# generated using pymatgen
data_ZnH20C21O4
_symmetry_space_group_name_H-M   'P 1'
_cell_length_a   11.58079063
_cell_length_b   16.45497598
_cell_length_c   21.10572210
_cell_angle_alpha   90.00003753
_cell_angle_beta   89.99987539
_cell_angle_gamma   89.99999245
_symmetry_Int_Tables_number   1
_chemical_formula_structural   ZnH20C21O4
_chemical_formula_sum   'Zn8 H160 C168 O32'
_cell_volume   4021.94084199
_cell_formula_units_Z   8
loop_
 _symmetry_equiv_pos_site_id
 _symmetry_equiv_pos_as_xyz
  1  'x, y, z'
loop_
 _atom_site_type_symbol
 _atom_site_label
 _atom_site_symmetry_multiplicity
 _atom_site_fract_x
 _atom_site_fract_y
 _atom_site_fract_z
 _atom_site_occupancy
 _atom_site_pbe_bader_charge
 _atom_site_pbe_bader_spin_density
 _atom_site_pbe_cm5_charge
 _atom_site_pbe_ddec_charge
 _atom_site_pbe_ddec_spin_density
 _atom_site_pbe_ddec_sum_bond_order
 _atom_site_pbe_magmom
Zn  Zn0  1  0.49999969  0.74999999  0.32567271  1  1.32471  0  0.679761  0.90966  0  2.291294  0
Zn  Zn1  1  0.00000131  0.74999995  0.17432732  1  1.324684  0  0.67976  0.909647  0  2.291325  0
Zn  Zn2  1  0.49999906  0.24999819  0.67432827  1  1.32468  0  0.679773  0.909699  0  2.291355  0
Zn  Zn3  1  0.00000008  0.24999950  0.82567236  1  1.324716  0  0.679764  0.909674  0  2.291287  0
Zn  Zn4  1  0.75000091  0.75176416  0.24999972  1  1.402216  0  0.722304  1.058141  0  2.161275  0
Zn  Zn5  1  0.24999878  0.74823455  0.25000002  1  1.402183  0  0.722303  1.058169  0  2.161205  0
Zn  Zn6  1  0.24999957  0.24823585  0.75000031  1  1.402212  0  0.722259  1.058089  0  2.161279  0
Zn  Zn7  1  0.74999911  0.25176546  0.74999954  1  1.402195  0  0.722321  1.05818  0  2.161245  0
H  H8  1  0.61523245  0.89532144  0.47436979  1  0.088824  0  0.105793  0.1111  0  1.019299  0
H  H9  1  0.38476635  0.60467928  0.47436938  1  0.08884  0  0.105798  0.111114  0  1.019283  0
H  H10  1  0.88476847  0.89532063  0.02562876  1  0.088805  0  0.105768  0.111078  0  1.019295  0
H  H11  1  0.11523469  0.60468032  0.02563105  1  0.088799  0  0.105816  0.111148  0  1.01928  0
H  H12  1  0.38476716  0.10467918  0.52562929  1  0.088838  0  0.105781  0.1111  0  1.019298  0
H  H13  1  0.61523240  0.39531952  0.52562875  1  0.088833  0  0.10583  0.111156  0  1.01927  0
H  H14  1  0.11523287  0.10467938  0.97436984  1  0.088833  0  0.105785  0.111088  0  1.019306  0
H  H15  1  0.88476752  0.39532030  0.97436993  1  0.088827  0  0.105825  0.111164  0  1.019262  0
H  H16  1  0.93921564  0.79428327  0.41481700  1  0.083531  0  0.102452  0.103712  0  1.026756  0
H  H17  1  0.06078167  0.70571861  0.41481798  1  0.082168  0  0.102429  0.103714  0  1.026774  0
H  H18  1  0.56078703  0.79427950  0.08518198  1  0.083581  0  0.102449  0.103725  0  1.026741  0
H  H19  1  0.43921935  0.70571846  0.08518203  1  0.08215  0  0.102437  0.103674  0  1.026788  0
H  H20  1  0.06078484  0.20571856  0.58518303  1  0.083526  0  0.10243  0.103685  0  1.026776  0
H  H21  1  0.93921190  0.29427775  0.58518205  1  0.082213  0  0.102448  0.103686  0  1.026763  0
H  H22  1  0.43921690  0.20571868  0.91481758  1  0.082174  0  0.10243  0.103697  0  1.026775  0
H  H23  1  0.56078458  0.29428277  0.91481705  1  0.083536  0  0.10245  0.103698  0  1.026786  0
H  H24  1  0.04014126  0.85752319  0.50750522  1  0.081769  0  0.102174  0.100927  0  1.035027  0
H  H25  1  0.95985741  0.64247695  0.50750603  1  0.081741  0  0.102178  0.100948  0  1.035028  0
H  H26  1  0.45986035  0.85752216  0.99249524  1  0.081747  0  0.102157  0.100931  0  1.03501  0
H  H27  1  0.54014332  0.64247717  0.99249324  1  0.081733  0  0.102185  0.100966  0  1.035033  0
H  H28  1  0.95985835  0.14247864  0.49249481  1  0.081768  0  0.102147  0.100903  0  1.035044  0
H  H29  1  0.04014047  0.35752185  0.49249589  1  0.081744  0  0.102115  0.100868  0  1.035068  0
H  H30  1  0.54014271  0.14247785  0.00750573  1  0.081753  0  0.102174  0.100942  0  1.035007  0
H  H31  1  0.45985802  0.35752344  0.00750489  1  0.081714  0  0.102154  0.100917  0  1.035021  0
H  H32  1  0.10520398  0.94183389  0.60147687  1  0.062966  0  0.103673  0.106528  0  1.012105  0
H  H33  1  0.89479432  0.55816511  0.60147535  1  0.062932  0  0.103667  0.106515  0  1.012122  0
H  H34  1  0.39479675  0.94183340  0.89852363  1  0.062956  0  0.10367  0.106541  0  1.012053  0
H  H35  1  0.60520556  0.55816646  0.89852293  1  0.062944  0  0.103678  0.106535  0  1.012032  0
H  H36  1  0.89479477  0.05816551  0.39852410  1  0.062938  0  0.103688  0.10656  0  1.01211  0
H  H37  1  0.10520615  0.44183247  0.39852467  1  0.062908  0  0.10366  0.106504  0  1.012149  0
H  H38  1  0.60520459  0.05816601  0.10147687  1  0.062961  0  0.103666  0.10652  0  1.012104  0
H  H39  1  0.39479491  0.44183476  0.10147567  1  0.062949  0  0.103661  0.106506  0  1.012044  0
H  H40  1  0.13079541  0.04263967  0.68932437  1  0.11227  0  0.10931  0.117917  0  0.990793  0
H  H41  1  0.86920091  0.45735977  0.68932261  1  0.112227  0  0.109321  0.117959  0  0.990673  0
H  H42  1  0.36920549  0.04263849  0.81067568  1  0.112397  0  0.109296  0.117904  0  0.990779  0
H  H43  1  0.63079726  0.45736044  0.81067562  1  0.112358  0  0.109328  0.117974  0  0.990689  0
H  H44  1  0.86920161  0.95735974  0.31067708  1  0.112237  0  0.109327  0.117961  0  0.990701  0
H  H45  1  0.13080043  0.54263902  0.31067837  1  0.112237  0  0.109299  0.117895  0  0.990735  0
H  H46  1  0.63079499  0.95736031  0.18932483  1  0.112386  0  0.109302  0.1179  0  0.990793  0
H  H47  1  0.36920149  0.54264078  0.18932251  1  0.112236  0  0.109311  0.117925  0  0.990708  0
H  H48  1  0.76745143  0.09956466  0.68477831  1  0.110404  0  0.100992  0.108968  0  1.048233  0
H  H49  1  0.23254492  0.40043599  0.68477871  1  0.110436  0  0.100956  0.108866  0  1.048341  0
H  H50  1  0.73254768  0.09956533  0.81522211  1  0.110394  0  0.101007  0.10898  0  1.048261  0
H  H51  1  0.26745333  0.40043483  0.81522246  1  0.110446  0  0.100956  0.108854  0  1.048313  0
H  H52  1  0.23254560  0.90043474  0.31522219  1  0.110442  0  0.100954  0.108858  0  1.048351  0
H  H53  1  0.76745642  0.59956524  0.31522274  1  0.110483  0  0.100967  0.108862  0  1.048373  0
H  H54  1  0.26745193  0.90043468  0.18477745  1  0.110553  0  0.100947  0.108848  0  1.048368  0
H  H55  1  0.73254542  0.59956397  0.18477851  1  0.11044  0  0.100957  0.108889  0  1.048328  0
H  H56  1  0.57960361  0.03585075  0.52323075  1  0.007576  0  0.086894  0.076763  0  1.013798  0
H  H57  1  0.42039682  0.46414977  0.52323096  1  0.007553  0  0.086859  0.076709  0  1.013765  0
H  H58  1  0.92039724  0.03585092  0.97676869  1  0.007575  0  0.086895  0.076779  0  1.01377  0
H  H59  1  0.07960314  0.46415058  0.97676930  1  0.007537  0  0.086881  0.076753  0  1.013784  0
H  H60  1  0.42039687  0.96415048  0.47676880  1  0.007549  0  0.086887  0.076763  0  1.013748  0
H  H61  1  0.57960365  0.53584963  0.47676860  1  0.007586  0  0.086873  0.076709  0  1.013801  0
H  H62  1  0.07960237  0.96414970  0.02323086  1  0.00754  0  0.086882  0.076771  0  1.01375  0
H  H63  1  0.92039648  0.53584943  0.02323072  1  0.007567  0  0.086884  0.076768  0  1.013766  0
H  H64  1  0.61601032  0.09874968  0.58767251  1  0.033125  0  0.092292  0.096157  0  0.986216  0
H  H65  1  0.38398900  0.40125150  0.58767273  1  0.033112  0  0.092284  0.096151  0  0.986258  0
H  H66  1  0.88398966  0.09874859  0.91232744  1  0.033133  0  0.092286  0.096152  0  0.986261  0
H  H67  1  0.11601097  0.40125226  0.91232703  1  0.03312  0  0.092276  0.096141  0  0.986274  0
H  H68  1  0.38398930  0.90125155  0.41232657  1  0.033106  0  0.09228  0.096135  0  0.986265  0
H  H69  1  0.61601148  0.59874790  0.41232730  1  0.033132  0  0.092299  0.096178  0  0.986226  0
H  H70  1  0.11601082  0.90125142  0.08767307  1  0.033107  0  0.092288  0.096148  0  0.986249  0
H  H71  1  0.88398950  0.59874897  0.08767253  1  0.033137  0  0.092278  0.096137  0  0.986267  0
H  H72  1  0.77591154  0.07483771  0.47385683  1  0.008302  0  0.081678  0.064351  0  1.022246  0
H  H73  1  0.22408908  0.42516216  0.47385678  1  0.008322  0  0.081668  0.064325  0  1.022203  0
H  H74  1  0.72408867  0.07483752  0.02614320  1  0.00832  0  0.081693  0.064367  0  1.022246  0
H  H75  1  0.27591199  0.42516258  0.02614309  1  0.008311  0  0.08169  0.064356  0  1.022258  0
H  H76  1  0.22408807  0.92516291  0.52614320  1  0.00831  0  0.081691  0.064358  0  1.022257  0
H  H77  1  0.77591139  0.57483664  0.52614278  1  0.008245  0  0.081689  0.064356  0  1.022258  0
H  H78  1  0.27591094  0.92516249  0.97385682  1  0.008313  0  0.081692  0.064365  0  1.02225  0
H  H79  1  0.72408849  0.57483683  0.97385694  1  0.008313  0  0.081673  0.064332  0  1.02229  0
H  H80  1  0.78908150  0.14830730  0.53444847  1  -0.000816  0  0.083505  0.073293  0  1.004686  0
H  H81  1  0.21091889  0.35169262  0.53444886  1  -0.000816  0  0.083511  0.073291  0  1.004657  0
H  H82  1  0.71091846  0.14830688  0.96555056  1  -0.00082  0  0.083508  0.073308  0  1.004646  0
H  H83  1  0.28908196  0.35169401  0.96555086  1  -0.000823  0  0.083502  0.073303  0  1.004687  0
H  H84  1  0.21091811  0.85169392  0.46555109  1  -0.000814  0  0.083498  0.073307  0  1.00466  0
H  H85  1  0.78908245  0.64830618  0.46555069  1  -0.000827  0  0.083495  0.073296  0  1.00467  0
H  H86  1  0.28908202  0.85169313  0.03444947  1  -0.000825  0  0.083504  0.073299  0  1.004653  0
H  H87  1  0.71091765  0.64830661  0.03444869  1  -0.000813  0  0.083503  0.073305  0  1.00461  0
H  H88  1  0.70559343  0.21293513  0.43779560  1  0.009153  0  0.081329  0.108245  0  1.021974  0
H  H89  1  0.29440734  0.28706470  0.43779586  1  0.009165  0  0.081334  0.108244  0  1.021968  0
H  H90  1  0.79440676  0.21293497  0.06220403  1  0.009166  0  0.081337  0.108265  0  1.021959  0
H  H91  1  0.20559376  0.28706577  0.06220393  1  0.009095  0  0.081332  0.108262  0  1.021964  0
H  H92  1  0.29440618  0.78706549  0.56220396  1  0.009099  0  0.081328  0.108277  0  1.021955  0
H  H93  1  0.70559487  0.71293409  0.56220417  1  0.009096  0  0.081327  0.108272  0  1.02196  0
H  H94  1  0.20559458  0.78706504  0.93779599  1  0.009152  0  0.081327  0.108247  0  1.021953  0
H  H95  1  0.79440585  0.71293485  0.93779562  1  0.009158  0  0.08133  0.108254  0  1.021963  0
H  H96  1  0.59980433  0.21214938  0.49863840  1  0.041055  0  0.085945  0.124076  0  1.023026  0
H  H97  1  0.40019619  0.28785050  0.49863807  1  0.04092  0  0.085943  0.124056  0  1.023028  0
H  H98  1  0.90019499  0.21214916  0.00136123  1  0.04092  0  0.085947  0.124075  0  1.023024  0
H  H99  1  0.09980490  0.28785153  0.00136173  1  0.041071  0  0.08596  0.124097  0  1.023018  0
H  H100  1  0.40019528  0.78785184  0.50136115  1  0.04094  0  0.085951  0.124079  0  1.023044  0
H  H101  1  0.59980515  0.71214829  0.50136149  1  0.041079  0  0.085948  0.124064  0  1.023067  0
H  H102  1  0.09980462  0.78785024  0.99863880  1  0.040926  0  0.085951  0.124076  0  1.023018  0
H  H103  1  0.90019471  0.71214849  0.99863830  1  0.041069  0  0.085958  0.12409  0  1.023025  0
H  H104  1  0.59263742  0.13997727  0.43604257  1  -0.009687  0  0.078639  0.102492  0  1.032848  0
H  H105  1  0.40736335  0.36002318  0.43604273  1  -0.009698  0  0.078652  0.102517  0  1.032826  0
H  H106  1  0.90736278  0.13997710  0.06395703  1  -0.009677  0  0.078647  0.10251  0  1.032834  0
H  H107  1  0.09263773  0.36002303  0.06395710  1  -0.00968  0  0.078651  0.102511  0  1.032843  0
H  H108  1  0.40736219  0.86002396  0.56395699  1  -0.009692  0  0.078639  0.102515  0  1.032844  0
H  H109  1  0.59263799  0.63997623  0.56395777  1  -0.009701  0  0.078651  0.102538  0  1.032819  0
H  H110  1  0.09263770  0.86002231  0.93604300  1  -0.009673  0  0.07864  0.102502  0  1.032872  0
H  H111  1  0.90736275  0.63997698  0.93604245  1  -0.009689  0  0.078651  0.102505  0  1.032816  0
H  H112  1  0.60048524  0.99607645  0.66045017  1  0.022681  0  0.089876  0.090289  0  0.988008  0
H  H113  1  0.39951542  0.50392564  0.66044922  1  0.022651  0  0.089883  0.090267  0  0.987951  0
H  H114  1  0.89951629  0.99607469  0.83954976  1  0.022614  0  0.089896  0.090298  0  0.988015  0
H  H115  1  0.10048453  0.50392573  0.83955059  1  0.022651  0  0.089883  0.090279  0  0.98795  0
H  H116  1  0.39951437  0.00392538  0.33954938  1  0.022624  0  0.089898  0.090311  0  0.988021  0
H  H117  1  0.60048592  0.49607498  0.33954986  1  0.02263  0  0.089879  0.090289  0  0.987953  0
H  H118  1  0.10048505  0.00392532  0.16044932  1  0.022642  0  0.089875  0.090259  0  0.987951  0
H  H119  1  0.89951249  0.49607611  0.16045086  1  0.022626  0  0.089882  0.090285  0  0.988042  0
H  H120  1  0.55159406  0.93091742  0.59994195  1  -0.002508  0  0.087931  0.080518  0  1.010923  0
H  H121  1  0.44840252  0.56908402  0.59994144  1  -0.002483  0  0.087951  0.080532  0  1.01089  0
H  H122  1  0.94840403  0.93091570  0.90005748  1  -0.002491  0  0.087936  0.080519  0  1.010924  0
H  H123  1  0.05159742  0.56908477  0.90005792  1  -0.002487  0  0.087972  0.080582  0  1.010918  0
H  H124  1  0.44840296  0.06908442  0.40005713  1  -0.00247  0  0.087932  0.080521  0  1.01087  0
H  H125  1  0.55159795  0.43091599  0.40005716  1  -0.002462  0  0.087937  0.080539  0  1.010889  0
H  H126  1  0.05159731  0.06908492  0.09994255  1  -0.002479  0  0.087966  0.08058  0  1.010905  0
H  H127  1  0.94840392  0.43091707  0.09994353  1  -0.002466  0  0.087932  0.08053  0  1.010861  0
H  H128  1  0.75135054  0.89198272  0.69070535  1  0.041678  0  0.085392  0.076546  0  1.012345  0
H  H129  1  0.24864828  0.60801636  0.69070606  1  0.041652  0  0.085383  0.076553  0  1.012283  0
H  H130  1  0.74864756  0.89198338  0.80929405  1  0.041362  0  0.085388  0.076562  0  1.012289  0
H  H131  1  0.25135166  0.60801641  0.80929380  1  0.041369  0  0.085384  0.076551  0  1.012291  0
H  H132  1  0.24864734  0.10801790  0.30929373  1  0.041343  0  0.085399  0.076571  0  1.012275  0
H  H133  1  0.75135220  0.39198304  0.30929302  1  0.041331  0  0.085385  0.07656  0  1.012273  0
H  H134  1  0.25135292  0.10801663  0.19070598  1  0.041637  0  0.085386  0.076553  0  1.012262  0
H  H135  1  0.74864709  0.39198360  0.19070670  1  0.041625  0  0.085411  0.076583  0  1.012303  0
H  H136  1  0.69500304  0.82544355  0.63297837  1  0.009433  0  0.08366  0.071731  0  1.001958  0
H  H137  1  0.30499428  0.67455669  0.63297999  1  0.009459  0  0.083646  0.071728  0  1.001921  0
H  H138  1  0.80499507  0.82544365  0.86702005  1  0.009464  0  0.083652  0.071715  0  1.001951  0
H  H139  1  0.19500564  0.67455740  0.86701990  1  0.009451  0  0.083639  0.071706  0  1.001943  0
H  H140  1  0.30499398  0.17455646  0.36702023  1  0.009454  0  0.083647  0.071708  0  1.001957  0
H  H141  1  0.69500534  0.32544332  0.36701956  1  0.009477  0  0.083655  0.071734  0  1.001936  0
H  H142  1  0.19500627  0.17455697  0.13297998  1  0.00945  0  0.083639  0.071718  0  1.001939  0
H  H143  1  0.80499397  0.32544382  0.13298012  1  0.009475  0  0.08363  0.071668  0  1.001894  0
H  H144  1  0.61097057  0.79407680  0.74023748  1  0.011619  0  0.085258  0.11252  0  1.006037  0
H  H145  1  0.38902891  0.70592232  0.74023806  1  0.011614  0  0.085258  0.112547  0  1.006027  0
H  H146  1  0.88902927  0.79407740  0.75976187  1  0.011604  0  0.08527  0.112583  0  1.006048  0
H  H147  1  0.11097100  0.70592295  0.75976185  1  0.011603  0  0.085235  0.112509  0  1.006063  0
H  H148  1  0.38902904  0.20592382  0.25976208  1  0.011622  0  0.085267  0.112575  0  1.006037  0
H  H149  1  0.61097070  0.29407708  0.25976149  1  0.011599  0  0.085266  0.112582  0  1.006037  0
H  H150  1  0.11097207  0.20592322  0.24023815  1  0.011619  0  0.085261  0.112578  0  1.006053  0
H  H151  1  0.88902861  0.29407767  0.24023818  1  0.011605  0  0.085277  0.112597  0  1.006026  0
H  H152  1  0.50066387  0.82854721  0.68850609  1  0.014458  0  0.083197  0.108849  0  1.014308  0
H  H153  1  0.49933496  0.67145308  0.68850605  1  0.014775  0  0.083211  0.108877  0  1.014308  0
H  H154  1  0.99933511  0.82854663  0.81149329  1  0.014781  0  0.083214  0.108856  0  1.014267  0
H  H155  1  0.00066496  0.67145377  0.81149385  1  0.014476  0  0.083211  0.10887  0  1.014293  0
H  H156  1  0.49933402  0.17145402  0.31149394  1  0.014493  0  0.083193  0.108837  0  1.014319  0
H  H157  1  0.50066552  0.32854693  0.31149303  1  0.01479  0  0.083209  0.108858  0  1.014298  0
H  H158  1  0.00066537  0.17145338  0.18850627  1  0.014493  0  0.083195  0.108851  0  1.014311  0
H  H159  1  0.99933465  0.32854685  0.18850666  1  0.01479  0  0.083212  0.108851  0  1.014285  0
H  H160  1  0.55858553  0.89524924  0.74650645  1  -0.005398  0  0.079236  0.104675  0  1.03314  0
H  H161  1  0.44141307  0.60475171  0.74650645  1  -0.005414  0  0.079229  0.104687  0  1.033137  0
H  H162  1  0.94141343  0.89524862  0.75349295  1  -0.005428  0  0.079227  0.104686  0  1.033139  0
H  H163  1  0.05858600  0.60475112  0.75349341  1  -0.005417  0  0.079242  0.104709  0  1.033125  0
H  H164  1  0.44141409  0.10475199  0.25349263  1  -0.005423  0  0.079223  0.10466  0  1.033143  0
H  H165  1  0.55858654  0.39524891  0.25349263  1  -0.005436  0  0.079222  0.10468  0  1.033147  0
H  H166  1  0.05858704  0.10475139  0.24650707  1  -0.005421  0  0.079222  0.104671  0  1.033135  0
H  H167  1  0.94141361  0.39524889  0.24650709  1  -0.005435  0  0.079221  0.104675  0  1.033135  0
C  C168  1  0.70780643  0.88916889  0.48245001  1  -0.080974  0  -0.078852  -0.131579  0  3.929458  0
C  C169  1  0.29219321  0.61083122  0.48245019  1  -0.080964  0  -0.078862  -0.131532  0  3.929411  0
C  C170  1  0.79219536  0.88916748  0.01754949  1  -0.081152  0  -0.078822  -0.131541  0  3.929316  0
C  C171  1  0.20780783  0.61083225  0.01755025  1  -0.080902  0  -0.078882  -0.131609  0  3.929429  0
C  C172  1  0.29219318  0.11083294  0.51754907  1  -0.081178  0  -0.078861  -0.131564  0  3.929434  0
C  C173  1  0.70780641  0.38916575  0.51754842  1  -0.0812  0  -0.078871  -0.131633  0  3.929463  0
C  C174  1  0.20780684  0.11083132  0.98245006  1  -0.080976  0  -0.07888  -0.131551  0  3.929478  0
C  C175  1  0.79219351  0.38916776  0.98245025  1  -0.081147  0  -0.078886  -0.131651  0  3.929476  0
C  C176  1  0.77318979  0.84126361  0.44030736  1  -0.01692  0  -0.016874  -0.041569  0  3.982368  0
C  C177  1  0.22680828  0.65873708  0.44030859  1  -0.016895  0  -0.016863  -0.04153  0  3.982385  0
C  C178  1  0.72681115  0.84126163  0.05969212  1  -0.016666  0  -0.01693  -0.041631  0  3.98236  0
C  C179  1  0.27319274  0.65873753  0.05969235  1  -0.016916  0  -0.016868  -0.041549  0  3.98243  0
C  C180  1  0.22680896  0.15873762  0.55969267  1  -0.016691  0  -0.016847  -0.041565  0  3.98232  0
C  C181  1  0.77318787  0.34126050  0.55969144  1  -0.016702  0  -0.016905  -0.041613  0  3.982279  0
C  C182  1  0.27319106  0.15873778  0.94030838  1  -0.016903  0  -0.016856  -0.04158  0  3.9824  0
C  C183  1  0.72681033  0.34126370  0.94030721  1  -0.016737  0  -0.016866  -0.041527  0  3.982342  0
C  C184  1  0.89211170  0.83063035  0.44921198  1  0.020785  0  -0.084464  -0.095479  0  4.000773  0
C  C185  1  0.10788633  0.66937157  0.44921288  1  0.021079  0  -0.084436  -0.09553  0  4.000935  0
C  C186  1  0.60788923  0.83062837  0.05078655  1  0.020999  0  -0.084391  -0.095382  0  4.000748  0
C  C187  1  0.39211383  0.66937138  0.05078711  1  0.021055  0  -0.084416  -0.095405  0  4.001002  0
C  C188  1  0.10788704  0.16937027  0.55078710  1  0.020766  0  -0.084442  -0.095433  0  4.000859  0
C  C189  1  0.89211155  0.33062784  0.55078667  1  0.021063  0  -0.084397  -0.095301  0  4.000703  0
C  C190  1  0.39211297  0.16937164  0.94921301  1  0.021077  0  -0.084413  -0.095416  0  4.000841  0
C  C191  1  0.60788751  0.33063045  0.94921197  1  0.020766  0  -0.084468  -0.095473  0  4.000794  0
C  C192  1  0.94796185  0.86663224  0.50023508  1  -0.059396  0  -0.087219  -0.118301  0  3.986853  0
C  C193  1  0.05203686  0.63336850  0.50023556  1  -0.059747  0  -0.087227  -0.118296  0  3.986942  0
C  C194  1  0.55204057  0.86663004  0.99976383  1  -0.059675  0  -0.087246  -0.118376  0  3.98685  0
C  C195  1  0.44796307  0.63336869  0.99976431  1  -0.059731  0  -0.087234  -0.118358  0  3.987104  0
C  C196  1  0.05203863  0.13336959  0.49976447  1  -0.059414  0  -0.087194  -0.118279  0  3.986966  0
C  C197  1  0.94795844  0.36662908  0.49976399  1  -0.05968  0  -0.087172  -0.118342  0  3.986962  0
C  C198  1  0.44796163  0.13336815  0.00023525  1  -0.059724  0  -0.087235  -0.118355  0  3.986947  0
C  C199  1  0.55203913  0.36663254  0.00023524  1  -0.059334  0  -0.087197  -0.118313  0  3.98695  0
C  C200  1  0.03194383  0.97638637  0.61946589  1  -0.032813  0  -0.086204  -0.124065  0  3.997513  0
C  C201  1  0.96805354  0.52361326  0.61946521  1  -0.032817  0  -0.086219  -0.124068  0  3.997515  0
C  C202  1  0.46805517  0.97638585  0.88053416  1  -0.033008  0  -0.0862  -0.124079  0  3.997366  0
C  C203  1  0.53194463  0.52361399  0.88053401  1  -0.032819  0  -0.086184  -0.124049  0  3.997514  0
C  C204  1  0.96805405  0.02361303  0.38053509  1  -0.032819  0  -0.086216  -0.124098  0  3.99765  0
C  C205  1  0.03194694  0.47638554  0.38053624  1  -0.032852  0  -0.086166  -0.124022  0  3.997552  0
C  C206  1  0.53194445  0.02361355  0.11946587  1  -0.032991  0  -0.086197  -0.124055  0  3.997454  0
C  C207  1  0.46805412  0.47638723  0.11946555  1  -0.032823  0  -0.086195  -0.124017  0  3.997476  0
C  C208  1  0.04634526  0.03182591  0.66831258  1  -0.017265  0  -0.077058  -0.081273  0  3.979917  0
C  C209  1  0.95365201  0.46817230  0.66831167  1  -0.016938  0  -0.077071  -0.081268  0  3.979813  0
C  C210  1  0.45365564  0.03182718  0.83168746  1  -0.017199  0  -0.077038  -0.081225  0  3.979883  0
C  C211  1  0.54634703  0.46817421  0.83168846  1  -0.017291  0  -0.077106  -0.081306  0  3.979894  0
C  C212  1  0.95365263  0.96817288  0.33168792  1  -0.017238  0  -0.077085  -0.081268  0  3.979869  0
C  C213  1  0.04634933  0.53182711  0.33169025  1  -0.016919  0  -0.077056  -0.08118  0  3.979859  0
C  C214  1  0.54634483  0.96817283  0.16831304  1  -0.017208  0  -0.077071  -0.081272  0  3.979916  0
C  C215  1  0.45365258  0.53182763  0.16831156  1  -0.017234  0  -0.077062  -0.081265  0  3.979831  0
C  C216  1  0.95160983  0.07648896  0.69146217  1  0.01126  0  -0.023289  -0.053347  0  4.009899  0
C  C217  1  0.04838563  0.42351048  0.69146138  1  0.010911  0  -0.02333  -0.053541  0  4.010043  0
C  C218  1  0.54838929  0.07648964  0.80853824  1  0.011276  0  -0.023306  -0.053419  0  4.009959  0
C  C219  1  0.45161348  0.42350990  0.80853886  1  0.011163  0  -0.023315  -0.053506  0  4.010038  0
C  C220  1  0.04838720  0.92350983  0.30853928  1  0.011218  0  -0.023327  -0.053562  0  4.009981  0
C  C221  1  0.95161571  0.57648953  0.30854007  1  0.010886  0  -0.023345  -0.053549  0  4.010088  0
C  C222  1  0.45161119  0.92351037  0.19146179  1  0.011298  0  -0.023308  -0.053438  0  4.009942  0
C  C223  1  0.54838700  0.57649011  0.19146116  1  0.011237  0  -0.023308  -0.053483  0  4.009997  0
C  C224  1  0.84044907  0.06556886  0.66585448  1  -0.101199  0  -0.080962  -0.127277  0  3.922876  0
C  C225  1  0.15954734  0.43442996  0.66585499  1  -0.100755  0  -0.080866  -0.126988  0  3.922743  0
C  C226  1  0.65955090  0.06557015  0.83414592  1  -0.100761  0  -0.080969  -0.127273  0  3.922854  0
C  C227  1  0.34045176  0.43443002  0.83414573  1  -0.100781  0  -0.080872  -0.127026  0  3.922776  0
C  C228  1  0.15954881  0.93442933  0.33414554  1  -0.100774  0  -0.080859  -0.12696  0  3.922681  0
C  C229  1  0.84045400  0.56557066  0.33414646  1  -0.100759  0  -0.080846  -0.126977  0  3.922732  0
C  C230  1  0.34044957  0.93442986  0.16585411  1  -0.100976  0  -0.080887  -0.127074  0  3.922781  0
C  C231  1  0.65954872  0.56556938  0.16585477  1  -0.100824  0  -0.080888  -0.127043  0  3.922818  0
C  C232  1  0.71631083  0.98795851  0.58104651  1  0.040567  0  -0.003074  0.072891  0  3.810234  0
C  C233  1  0.28368842  0.51204170  0.58104665  1  0.040613  0  -0.003076  0.072919  0  3.810241  0
C  C234  1  0.78368898  0.98795804  0.91895341  1  0.040616  0  -0.003088  0.072849  0  3.810212  0
C  C235  1  0.21631153  0.51204184  0.91895363  1  0.04065  0  -0.003032  0.072908  0  3.810209  0
C  C236  1  0.28368792  0.01204211  0.41895352  1  0.040657  0  -0.003044  0.072913  0  3.810169  0
C  C237  1  0.71631119  0.48795771  0.41895290  1  0.040512  0  -0.003097  0.07291  0  3.810217  0
C  C238  1  0.21631063  0.01204137  0.08104661  1  0.040572  0  -0.003081  0.0729  0  3.810213  0
C  C239  1  0.78368895  0.48795878  0.08104639  1  0.040576  0  -0.003066  0.072948  0  3.810127  0
C  C240  1  0.76378437  0.92840142  0.53189203  1  0.009701  0  0.000312  0.025298  0  3.893041  0
C  C241  1  0.23621334  0.57159813  0.53189178  1  0.009736  0  0.00033  0.025177  0  3.893084  0
C  C242  1  0.73621631  0.92840161  0.96810834  1  0.009702  0  0.000326  0.025332  0  3.893098  0
C  C243  1  0.26378573  0.57159953  0.96810806  1  0.00974  0  0.000296  0.025212  0  3.893077  0
C  C244  1  0.23621438  0.07159920  0.46810895  1  0.009693  0  0.000302  0.025188  0  3.893192  0
C  C245  1  0.76378368  0.42840067  0.46810825  1  0.009693  0  0.000294  0.025238  0  3.893138  0
C  C246  1  0.26378503  0.07159901  0.03189168  1  0.009727  0  0.000313  0.025221  0  3.893029  0
C  C247  1  0.73621474  0.42840109  0.03189197  1  0.00973  0  0.0003  0.025202  0  3.893038  0
C  C248  1  0.88382279  0.91679399  0.54043655  1  -0.040564  0  -0.00571  0.025212  0  4.011527  0
C  C249  1  0.11617489  0.58320679  0.54043693  1  -0.040578  0  -0.005711  0.025258  0  4.011502  0
C  C250  1  0.61617789  0.91679357  0.95956334  1  -0.040556  0  -0.005713  0.025192  0  4.011601  0
C  C251  1  0.38382505  0.58320695  0.95956339  1  -0.040567  0  -0.005705  0.025251  0  4.011516  0
C  C252  1  0.11617682  0.08320663  0.45956253  1  -0.040548  0  -0.005711  0.025247  0  4.011526  0
C  C253  1  0.88382300  0.41679262  0.45956310  1  -0.040541  0  -0.005715  0.025276  0  4.011557  0
C  C254  1  0.38382431  0.08320644  0.04043669  1  -0.040568  0  -0.005701  0.025252  0  4.011532  0
C  C255  1  0.61617543  0.41679367  0.04043664  1  -0.040805  0  -0.005714  0.025251  0  4.01152  0
C  C256  1  0.92204460  0.96710037  0.59305924  1  -0.051784  0  -5.8e-05  0.036371  0  4.008563  0
C  C257  1  0.07795460  0.53289802  0.59305916  1  -0.051805  0  -6.6e-05  0.03634  0  4.008598  0
C  C258  1  0.57795608  0.96710052  0.90694115  1  -0.05179  0  -9.8e-05  0.036323  0  4.008567  0
C  C259  1  0.42204534  0.53289935  0.90694019  1  -0.051811  0  -8.1e-05  0.036328  0  4.008597  0
C  C260  1  0.07795329  0.03289842  0.40694079  1  -0.051693  0  -8.3e-05  0.036314  0  4.008666  0
C  C261  1  0.92204501  0.46710078  0.40694087  1  -0.051806  0  -9.6e-05  0.036284  0  4.008716  0
C  C262  1  0.42204440  0.03289888  0.09305935  1  -0.051811  0  -8e-05  0.036365  0  4.008576  0
C  C263  1  0.57795427  0.46710249  0.09305937  1  -0.051572  0  -5.3e-05  0.036346  0  4.008604  0
C  C264  1  0.82637242  0.01133904  0.61623618  1  -0.002946  0  0.001148  0.029417  0  3.893249  0
C  C265  1  0.17362592  0.48866095  0.61623575  1  -0.003343  0  0.001134  0.029358  0  3.893291  0
C  C266  1  0.67362671  0.01133855  0.88376372  1  -0.003357  0  0.00118  0.029487  0  3.893221  0
C  C267  1  0.32637403  0.48866105  0.88376358  1  -0.003348  0  0.001117  0.029399  0  3.893259  0
C  C268  1  0.17362460  0.98866219  0.38376432  1  -0.003475  0  0.001099  0.029343  0  3.893246  0
C  C269  1  0.82637456  0.51133785  0.38376428  1  -0.003332  0  0.001113  0.029333  0  3.893321  0
C  C270  1  0.32637291  0.98866085  0.11623583  1  -0.003322  0  0.001163  0.029406  0  3.893219  0
C  C271  1  0.67362558  0.51133957  0.11623550  1  -0.003287  0  0.001121  0.029342  0  3.893287  0
C  C272  1  0.71554703  0.80142883  0.38542985  1  1.551664  0  0.22925  0.613741  0  4.137908  0
C  C273  1  0.28445212  0.69857182  0.38543055  1  1.55167  0  0.229198  0.613661  0  4.137953  0
C  C274  1  0.78445478  0.80142750  0.11456961  1  1.551608  0  0.2292  0.61364  0  4.138002  0
C  C275  1  0.21554890  0.69857110  0.11457040  1  1.55172  0  0.229229  0.613643  0  4.13811  0
C  C276  1  0.28445344  0.19857118  0.61457018  1  1.551662  0  0.229258  0.613769  0  4.137962  0
C  C277  1  0.71554576  0.30142698  0.61456947  1  1.551609  0  0.229219  0.613693  0  4.137873  0
C  C278  1  0.21554829  0.19857130  0.88542994  1  1.551666  0  0.229242  0.613742  0  4.137925  0
C  C279  1  0.78445417  0.30142891  0.88542963  1  1.551665  0  0.229238  0.613768  0  4.137939  0
C  C280  1  0.97407105  0.13534170  0.74251610  1  1.487424  0  0.21256  0.59437  0  4.134937  0
C  C281  1  0.02592679  0.36465718  0.74251578  1  1.487464  0  0.212574  0.594481  0  4.13486  0
C  C282  1  0.52592805  0.13534173  0.75748387  1  1.487455  0  0.212597  0.594448  0  4.134949  0
C  C283  1  0.47407492  0.36465656  0.75748538  1  1.487469  0  0.21259  0.594496  0  4.134833  0
C  C284  1  0.02592597  0.86465831  0.25748393  1  1.487466  0  0.212589  0.594492  0  4.134821  0
C  C285  1  0.97407714  0.63534283  0.25748567  1  1.487443  0  0.212575  0.5945  0  4.134863  0
C  C286  1  0.47407070  0.86465768  0.24251663  1  1.487435  0  0.212583  0.594441  0  4.134979  0
C  C287  1  0.52592815  0.63534285  0.24251607  1  1.487471  0  0.212582  0.594476  0  4.134846  0
C  C288  1  0.65355446  0.06085535  0.54986141  1  -0.016043  0  -0.15634  -0.189948  0  3.890806  0
C  C289  1  0.34644500  0.43914458  0.54986169  1  -0.016062  0  -0.156324  -0.189916  0  3.890781  0
C  C290  1  0.84644552  0.06085490  0.95013852  1  -0.016075  0  -0.15635  -0.189972  0  3.890878  0
C  C291  1  0.15355410  0.43914537  0.95013856  1  -0.01607  0  -0.156328  -0.189907  0  3.890762  0
C  C292  1  0.34644601  0.93914588  0.45013815  1  -0.016078  0  -0.156341  -0.189903  0  3.890727  0
C  C293  1  0.65355548  0.56085361  0.45013834  1  -0.016084  0  -0.156338  -0.189902  0  3.890778  0
C  C294  1  0.15355410  0.93914511  0.04986151  1  -0.016006  0  -0.15634  -0.189942  0  3.890787  0
C  C295  1  0.84644551  0.56085525  0.04986099  1  -0.016051  0  -0.156322  -0.189923  0  3.890804  0
C  C296  1  0.72586740  0.11412189  0.50599555  1  0.002768  0  -0.171499  -0.093596  0  3.971985  0
C  C297  1  0.27413397  0.38587740  0.50599589  1  0.002776  0  -0.171496  -0.093557  0  3.971896  0
C  C298  1  0.77413344  0.11412209  0.99400393  1  0.002762  0  -0.171509  -0.093618  0  3.972007  0
C  C299  1  0.22586773  0.38587821  0.99400386  1  0.002762  0  -0.171498  -0.093609  0  3.972013  0
C  C300  1  0.27413308  0.88587873  0.49400353  1  0.002823  0  -0.171467  -0.093572  0  3.971934  0
C  C301  1  0.72586737  0.61412079  0.49400367  1  0.00288  0  -0.171463  -0.093555  0  3.971925  0
C  C302  1  0.22586704  0.88587792  0.00599609  1  0.002759  0  -0.171507  -0.093623  0  3.972003  0
C  C303  1  0.77413361  0.61412180  0.00599570  1  0.002765  0  -0.17149  -0.09361  0  3.972  0
C  C304  1  0.65197096  0.17313685  0.46752168  1  -0.03137  0  -0.249393  -0.356735  0  3.952702  0
C  C305  1  0.34802969  0.32686301  0.46752143  1  -0.031381  0  -0.249393  -0.356718  0  3.95263  0
C  C306  1  0.84802838  0.17313666  0.03247793  1  -0.031381  0  -0.249399  -0.356758  0  3.952698  0
C  C307  1  0.15197226  0.32686344  0.03247839  1  -0.031315  0  -0.249411  -0.356782  0  3.95274  0
C  C308  1  0.34802779  0.82686437  0.53247835  1  -0.031354  0  -0.249399  -0.356818  0  3.952728  0
C  C309  1  0.65197165  0.67313579  0.53247860  1  -0.031347  0  -0.2494  -0.356811  0  3.952683  0
C  C310  1  0.15197210  0.82686335  0.96752162  1  -0.031368  0  -0.249386  -0.356735  0  3.952705  0
C  C311  1  0.84802822  0.67313657  0.96752164  1  -0.031375  0  -0.249414  -0.356763  0  3.952715  0
C  C312  1  0.62885471  0.94818150  0.62734632  1  -0.004237  0  -0.155722  -0.187527  0  3.895003  0
C  C313  1  0.37114350  0.55181995  0.62734638  1  -0.004179  0  -0.155739  -0.187538  0  3.894922  0
C  C314  1  0.87114511  0.94818099  0.87265311  1  -0.004161  0  -0.155755  -0.187559  0  3.894974  0
C  C315  1  0.12885645  0.55182007  0.87265393  1  -0.004167  0  -0.155788  -0.187648  0  3.894991  0
C  C316  1  0.37114318  0.05181912  0.37265323  1  -0.00416  0  -0.155764  -0.187594  0  3.89496  0
C  C317  1  0.62885698  0.44818006  0.37265270  1  -0.004053  0  -0.155763  -0.187624  0  3.895005  0
C  C318  1  0.12885623  0.05181963  0.12734644  1  -0.004183  0  -0.155773  -0.187598  0  3.895003  0
C  C319  1  0.87114403  0.44818116  0.12734705  1  -0.004188  0  -0.15575  -0.187587  0  3.894958  0
C  C320  1  0.67172909  0.87537132  0.66534735  1  -0.014373  0  -0.171136  -0.098998  0  3.972899  0
C  C321  1  0.32826897  0.62462895  0.66534844  1  -0.014292  0  -0.171108  -0.098962  0  3.972848  0
C  C322  1  0.82826901  0.87537078  0.83465110  1  -0.014348  0  -0.171131  -0.098965  0  3.972852  0
C  C323  1  0.17173096  0.62462964  0.83465096  1  -0.014307  0  -0.171118  -0.09893  0  3.972808  0
C  C324  1  0.32826880  0.12462930  0.33465126  1  -0.014329  0  -0.171149  -0.098983  0  3.97282  0
C  C325  1  0.67173151  0.37537045  0.33465064  1  -0.014343  0  -0.171081  -0.098924  0  3.9728  0
C  C326  1  0.17173146  0.12462923  0.16534845  1  -0.014312  0  -0.171114  -0.09897  0  3.972819  0
C  C327  1  0.82826865  0.37537159  0.16534907  1  -0.014303  0  -0.171131  -0.098913  0  3.972783  0
C  C328  1  0.58072312  0.84665298  0.71276202  1  -0.027914  0  -0.246932  -0.354911  0  3.973851  0
C  C329  1  0.41927475  0.65334672  0.71276207  1  -0.028049  0  -0.246936  -0.354987  0  3.973934  0
C  C330  1  0.91927499  0.84665300  0.78723736  1  -0.027978  0  -0.246932  -0.354989  0  3.973914  0
C  C331  1  0.08072431  0.65334738  0.78723781  1  -0.028013  0  -0.246916  -0.354956  0  3.973903  0
C  C332  1  0.41927477  0.15334764  0.28723706  1  -0.027999  0  -0.246898  -0.354932  0  3.973897  0
C  C333  1  0.58072487  0.34665268  0.28723701  1  -0.027984  0  -0.246955  -0.355024  0  3.973934  0
C  C334  1  0.08072549  0.15334762  0.21276267  1  -0.028018  0  -0.246898  -0.354958  0  3.973912  0
C  C335  1  0.91927444  0.34665324  0.21276269  1  -0.028008  0  -0.246931  -0.355006  0  3.973908  0
O  O336  1  0.60763384  0.78939904  0.39104450  1  -1.1833  0  -0.308496  -0.533174  0  2.379127  0
O  O337  1  0.39236443  0.71060100  0.39104461  1  -1.183261  0  -0.308457  -0.533118  0  2.379133  0
O  O338  1  0.89236970  0.78939891  0.10895542  1  -1.183294  0  -0.308442  -0.533116  0  2.379209  0
O  O339  1  0.10763572  0.71059968  0.10895635  1  -1.18328  0  -0.308501  -0.533123  0  2.37918  0
O  O340  1  0.39236664  0.21059976  0.60895553  1  -1.183293  0  -0.308483  -0.533163  0  2.379171  0
O  O341  1  0.60763000  0.28939962  0.60895589  1  -1.183296  0  -0.308512  -0.533201  0  2.379178  0
O  O342  1  0.10763509  0.21059989  0.89104508  1  -1.183255  0  -0.308471  -0.53315  0  2.379072  0
O  O343  1  0.89236648  0.28939911  0.89104415  1  -1.183312  0  -0.308506  -0.53321  0  2.379164  0
O  O344  1  0.77929666  0.78208754  0.33807013  1  -1.167972  0  -0.316681  -0.567772  0  2.362293  0
O  O345  1  0.22070268  0.71791306  0.33807045  1  -1.167969  0  -0.316694  -0.567801  0  2.362345  0
O  O346  1  0.72070515  0.78208686  0.16192931  1  -1.167924  0  -0.316674  -0.567747  0  2.36228  0
O  O347  1  0.27930006  0.71791359  0.16192956  1  -1.168011  0  -0.316691  -0.567774  0  2.362387  0
O  O348  1  0.22070209  0.21791186  0.66192942  1  -1.167967  0  -0.316667  -0.567786  0  2.362255  0
O  O349  1  0.77929434  0.28208756  0.66192910  1  -1.167928  0  -0.316679  -0.56778  0  2.362252  0
O  O350  1  0.27929619  0.21791436  0.83807024  1  -1.167981  0  -0.316703  -0.567815  0  2.362318  0
O  O351  1  0.72070214  0.28208763  0.83807047  1  -1.167964  0  -0.316667  -0.567792  0  2.362321  0
O  O352  1  0.88863296  0.17514852  0.76937901  1  -1.194232  0  -0.331041  -0.620625  0  2.441268  0
O  O353  1  0.11136477  0.32485160  0.76937905  1  -1.194203  0  -0.330974  -0.62058  0  2.441239  0
O  O354  1  0.61136700  0.17514851  0.73062050  1  -1.194211  0  -0.331019  -0.620613  0  2.44129  0
O  O355  1  0.38863694  0.32484975  0.73062162  1  -1.194131  0  -0.330984  -0.6206  0  2.441242  0
O  O356  1  0.11136406  0.82485089  0.23062101  1  -1.194136  0  -0.330993  -0.620608  0  2.441252  0
O  O357  1  0.88864002  0.67515024  0.23062240  1  -1.194055  0  -0.330946  -0.620557  0  2.441282  0
O  O358  1  0.38863262  0.82485150  0.26938000  1  -1.194254  0  -0.331054  -0.620665  0  2.441255  0
O  O359  1  0.61136613  0.67514844  0.26937841  1  -1.194227  0  -0.331007  -0.620653  0  2.44133  0
O  O360  1  0.07516002  0.14787109  0.76233354  1  -1.164032  0  -0.302553  -0.5447  0  2.250009  0
O  O361  1  0.92483688  0.35212963  0.76233261  1  -1.164126  0  -0.302564  -0.544748  0  2.249992  0
O  O362  1  0.42483913  0.14786985  0.73766751  1  -1.164073  0  -0.302552  -0.544727  0  2.250058  0
O  O363  1  0.57516477  0.35212963  0.73766794  1  -1.164174  0  -0.302577  -0.544764  0  2.249962  0
O  O364  1  0.92483786  0.85213074  0.23766696  1  -1.164123  0  -0.302579  -0.544741  0  2.250012  0
O  O365  1  0.07516705  0.64787099  0.23766932  1  -1.164173  0  -0.302592  -0.544805  0  2.249957  0
O  O366  1  0.57515962  0.85212895  0.26233299  1  -1.16403  0  -0.302531  -0.544671  0  2.250089  0
O  O367  1  0.42483743  0.64787098  0.26233303  1  -1.164105  0  -0.302559  -0.544723  0  2.249946  0
