# generated using pymatgen
data_CuH6C13N7O4F
_symmetry_space_group_name_H-M   'P 1'
_cell_length_a   10.57600279
_cell_length_b   11.34766321
_cell_length_c   14.65008050
_cell_angle_alpha   89.99769982
_cell_angle_beta   108.22570933
_cell_angle_gamma   90.03296382
_symmetry_Int_Tables_number   1
_chemical_formula_structural   CuH6C13N7O4F
_chemical_formula_sum   'Cu4 H24 C52 N28 O16 F4'
_cell_volume   1669.99294998
_cell_formula_units_Z   4
loop_
 _symmetry_equiv_pos_site_id
 _symmetry_equiv_pos_as_xyz
  1  'x, y, z'
loop_
 _atom_site_type_symbol
 _atom_site_label
 _atom_site_symmetry_multiplicity
 _atom_site_fract_x
 _atom_site_fract_y
 _atom_site_fract_z
 _atom_site_occupancy
 _atom_site_pbe_bader_charge
 _atom_site_pbe_bader_spin_density
 _atom_site_pbe_cm5_charge
 _atom_site_pbe_ddec_charge
 _atom_site_pbe_ddec_spin_density
 _atom_site_pbe_ddec_sum_bond_order
 _atom_site_pbe_magmom
Cu  Cu0  1  0.09324314  0.42051329  0.51259925  1  1.073668  0.546509  0.681994  0.772775  0.697899  2.373664  0.544
Cu  Cu1  1  0.90741965  0.92125938  0.98745658  1  1.081111  0.580387  0.685312  0.778383  0.745593  2.374216  0.581
Cu  Cu2  1  0.90672852  0.57953130  0.48739650  1  1.074382  -0.54476  0.681646  0.772088  -0.728093  2.37402  -0.542
Cu  Cu3  1  0.09258782  0.07871912  0.01254726  1  1.07948  0.581216  0.685418  0.778498  0.746764  2.3744  0.582
H  H4  1  0.39306716  0.93783173  0.26484722  1  0.071692  0.00038  0.099471  0.099918  0.000308  1.054302  0.0
H  H5  1  0.60700393  0.43779569  0.23513509  1  0.071497  -0.000302  0.09949  0.099759  -0.00029  1.054566  0.0
H  H6  1  0.60693037  0.06217145  0.73515574  1  0.071728  0.000382  0.099506  0.099925  0.000307  1.054325  0.0
H  H7  1  0.39299160  0.56220220  0.76486401  1  0.071489  0.000308  0.099483  0.099759  0.000283  1.054601  0.0
H  H8  1  0.40444405  0.67755263  0.48252646  1  0.115481  0.00013  0.100506  0.098614  0.00013  1.051315  0.0
H  H9  1  0.59551658  0.17754202  0.01743219  1  0.116938  0.000244  0.100366  0.098407  0.000168  1.051246  0.0
H  H10  1  0.59555646  0.32244878  0.51747308  1  0.115755  -0.000169  0.100474  0.09859  -0.000162  1.051293  0.0
H  H11  1  0.40448493  0.82245676  0.98256553  1  0.116888  0.000248  0.100369  0.098407  0.000172  1.051226  0.0
H  H12  1  0.94498855  0.84684704  0.51314564  1  0.139554  8.1e-05  0.120166  0.115976  5.6e-05  1.001982  0.0
H  H13  1  0.05501838  0.34678483  0.98685711  1  0.138889  -0.00011  0.12017  0.116293  -6.3e-05  1.001582  0.0
H  H14  1  0.05501296  0.15315702  0.48685686  1  0.139569  -7.5e-05  0.120155  0.115973  -5.2e-05  1.002019  0.0
H  H15  1  0.94498013  0.65320689  0.01314335  1  0.1389  -0.000115  0.1202  0.11632  -6.6e-05  1.001634  0.0
H  H16  1  0.03354223  0.76456037  0.26838780  1  0.107248  0.00025  0.106416  0.111667  0.000162  1.035961  0.0
H  H17  1  0.96643579  0.26454105  0.23161576  1  0.107343  0.000427  0.10667  0.111914  0.000345  1.035923  0.0
H  H18  1  0.96646326  0.23543664  0.73161219  1  0.107179  0.000382  0.106417  0.111611  0.000333  1.036113  0.0
H  H19  1  0.03357169  0.73545861  0.76838332  1  0.107481  2.7e-05  0.106682  0.111933  -5.8e-05  1.035856  0.0
H  H20  1  0.60592806  0.63903885  0.42967135  1  0.105551  6.8e-05  0.113102  0.08633  5.7e-05  1.023872  0.0
H  H21  1  0.39401078  0.13907077  0.07031703  1  0.105565  -8.2e-05  0.112923  0.08607  -7.4e-05  1.023978  0.0
H  H22  1  0.39407345  0.36096432  0.57032910  1  0.1055  -7.6e-05  0.113106  0.086356  -6.3e-05  1.02398  0.0
H  H23  1  0.60598973  0.86092536  0.92968593  1  0.105416  -7.8e-05  0.112908  0.086037  -7.2e-05  1.023929  0.0
H  H24  1  0.56158645  0.01878410  0.41869583  1  0.119239  1e-06  0.115005  0.140327  -5e-06  0.991725  0.0
H  H25  1  0.43847102  0.51883286  0.08132312  1  0.11875  4e-06  0.114787  0.139966  4e-06  0.992094  0.0
H  H26  1  0.43841307  0.98121907  0.58130485  1  0.11931  8e-06  0.115007  0.14035  -5e-06  0.991714  0.0
H  H27  1  0.56152650  0.48116327  0.91867712  1  0.118666  -4e-06  0.114819  0.139979  -1.1e-05  0.992038  0.0
C  C28  1  0.13833068  0.63152879  0.42600148  1  1.550985  -0.000388  0.213021  0.578867  -0.000543  4.16058  -0.001
C  C29  1  0.86148270  0.13182534  0.07412806  1  1.554381  -0.002045  0.213668  0.579624  0.000404  4.157777  -0.005
C  C30  1  0.86167183  0.36847527  0.57399920  1  1.551788  0.000778  0.213  0.578747  0.000546  4.160493  0.001
C  C31  1  0.13852677  0.86817255  0.92587419  1  1.553097  -0.001694  0.213632  0.579613  0.000651  4.1578  -0.004
C  C32  1  0.13160257  0.91531290  0.16461508  1  1.545373  -0.001463  0.21017  0.571581  0.00084  4.169146  -0.004
C  C33  1  0.86862064  0.41552031  0.33568559  1  1.540821  0.000828  0.210099  0.570983  0.000541  4.171818  0.001
C  C34  1  0.86840889  0.08468852  0.83538763  1  1.545145  -0.001786  0.210122  0.571661  0.000606  4.169449  -0.004
C  C35  1  0.13138285  0.58448111  0.66431599  1  1.54066  -0.000466  0.209987  0.570832  -0.000564  4.171828  -0.001
C  C36  1  0.41604176  0.81098941  0.37958431  1  -0.030482  0.000196  -0.010692  0.066984  4.8e-05  4.009951  0.0
C  C37  1  0.58396334  0.31100426  0.12046760  1  -0.030609  0.001245  -0.010372  0.066945  0.000812  4.00908  0.001
C  C38  1  0.58395676  0.18900936  0.62041342  1  -0.030477  0.00165  -0.010701  0.066932  0.001056  4.009893  0.001
C  C39  1  0.41603318  0.68899275  0.87953241  1  -0.030328  -0.000156  -0.010308  0.06705  -0.000185  4.009176  0.0
C  C40  1  0.20674198  0.85597482  0.25688479  1  -0.030119  0.016909  -0.017941  -0.01782  0.011831  3.975851  0.013
C  C41  1  0.79346848  0.35617668  0.24324557  1  -0.026102  -3.3e-05  -0.016505  -0.014664  -0.000185  3.972595  0.0
C  C42  1  0.79326251  0.14400545  0.74310064  1  -0.029373  0.01553  -0.017995  -0.017854  0.010895  3.975843  0.012
C  C43  1  0.20653702  0.64383972  0.75674487  1  -0.027031  0.000981  -0.016397  -0.014385  0.000623  3.972437  0.001
C  C44  1  0.34330911  0.87525045  0.29841744  1  0.040997  0.000257  -0.082789  -0.136173  0.000257  3.917298  0.0
C  C45  1  0.65686941  0.37527723  0.20165254  1  0.043399  0.003188  -0.082414  -0.136056  0.002039  3.916194  0.002
C  C46  1  0.65669040  0.12474039  0.70157505  1  0.040665  0.001119  -0.082883  -0.136297  0.000848  3.917395  0.001
C  C47  1  0.34313110  0.62472947  0.79834155  1  0.043505  0.001382  -0.082465  -0.1362  0.000901  3.916198  0.0
C  C48  1  0.34958509  0.72878094  0.41977877  1  -0.099283  -0.002131  -0.080829  -0.141525  -0.001429  3.923946  -0.002
C  C49  1  0.65027144  0.22882995  0.08022233  1  -0.100048  0.002637  -0.080516  -0.140019  0.001753  3.923255  0.002
C  C50  1  0.65041244  0.27122664  0.58022487  1  -0.099506  0.000622  -0.080755  -0.141418  0.000319  3.923864  0.001
C  C51  1  0.34972508  0.77116177  0.91978177  1  -0.100456  0.00278  -0.080556  -0.140089  0.001842  3.923164  0.002
C  C52  1  0.56184844  0.82644035  0.41935130  1  0.016122  -9.7e-05  -0.001391  0.053297  -0.0001  4.005089  0.0
C  C53  1  0.43815010  0.32648481  0.08065701  1  0.014842  0.000629  -0.001483  0.052947  0.000416  4.004391  0.0
C  C54  1  0.43814908  0.17356195  0.58064894  1  0.01607  0.000477  -0.001358  0.053333  0.000327  4.005109  0.0
C  C55  1  0.56184841  0.67351220  0.91934072  1  0.014761  0.000335  -0.001499  0.052881  0.000195  4.00447  0.0
C  C56  1  0.83662990  0.84288567  0.48763367  1  0.581291  0.000643  0.035139  -0.039969  0.000425  3.965279  0.0
C  C57  1  0.16336866  0.34280041  0.01237071  1  0.581227  -0.000699  0.035147  -0.04003  -0.000475  3.965374  0.0
C  C58  1  0.16337061  0.15711927  0.51236724  1  0.581556  -0.000589  0.035104  -0.040048  -0.000401  3.9653  0.0
C  C59  1  0.83662986  0.65719219  0.98762770  1  0.581235  -0.000725  0.035151  -0.040049  -0.000494  3.965364  0.0
C  C60  1  0.21181658  0.71449977  0.38120250  1  0.042804  0.001305  -0.015015  -0.008369  0.000793  3.97578  0.001
C  C61  1  0.78802740  0.21462595  0.11888427  1  0.073463  0.01531  -0.016032  -0.011583  0.010815  3.978761  0.012
C  C62  1  0.78817895  0.28551486  0.61880957  1  0.042725  0.000577  -0.015009  -0.008433  0.000243  3.975683  0.0
C  C63  1  0.21196912  0.78535696  0.88113212  1  0.047959  0.01647  -0.016165  -0.011688  0.011647  3.978738  0.013
C  C64  1  0.14035408  0.77751509  0.29959916  1  5.4e-05  0.002099  -0.077396  -0.114012  0.001406  3.933169  0.002
C  C65  1  0.85965650  0.27765161  0.20051237  1  -0.033548  0.002017  -0.077727  -0.113994  0.001395  3.934407  0.001
C  C66  1  0.85965439  0.22248457  0.70040355  1  -0.000122  -0.000371  -0.07725  -0.113715  -0.000145  3.933176  0.0
C  C67  1  0.14035197  0.72234364  0.79949375  1  -0.006592  0.004277  -0.07768  -0.114018  0.002793  3.934305  0.003
C  C68  1  0.64634548  0.72805628  0.44074030  1  0.490285  0.0007  0.039242  0.019773  0.000482  3.938547  0.0
C  C69  1  0.35356731  0.22805299  0.05923873  1  0.490971  -0.000661  0.039605  0.020373  -0.000491  3.938093  0.0
C  C70  1  0.35365503  0.27194690  0.55925788  1  0.490246  -0.000532  0.039237  0.019744  -0.000378  3.938752  0.0
C  C71  1  0.64643320  0.77194226  0.94076081  1  0.491307  -0.000771  0.039632  0.020515  -0.000569  3.937964  -0.001
C  C72  1  0.75867653  0.94412399  0.46893239  1  0.404083  -0.00015  0.098435  0.243874  -0.000125  4.099967  0.0
C  C73  1  0.24135794  0.44409897  0.03107694  1  0.405136  0.000246  0.098568  0.24408  0.000178  4.100146  0.0
C  C74  1  0.24132298  0.05587919  0.53106829  1  0.403813  0.000143  0.098375  0.243762  0.000114  4.099797  0.0
C  C75  1  0.75863859  0.55589452  0.96892170  1  0.404958  0.000246  0.098478  0.244061  0.000182  4.100114  0.0
C  C76  1  0.62097796  0.93843571  0.43384753  1  0.013796  0.000533  -0.081059  -0.218337  0.000323  3.9442  0.0
C  C77  1  0.37906466  0.43844658  0.06616382  1  0.013418  -0.000569  -0.08096  -0.218004  -0.000373  3.944149  0.0
C  C78  1  0.37902255  0.06156746  0.56615269  1  0.013872  -0.000478  -0.080991  -0.218183  -0.000327  3.944002  0.0
C  C79  1  0.62093286  0.56154954  0.93383573  1  0.013415  -0.000587  -0.081007  -0.21806  -0.000394  3.944158  0.0
N  N80  1  0.77925645  0.73612005  0.47292672  1  -1.183686  0.001672  -0.32798  -0.201488  0.000776  3.545485  0.0
N  N81  1  0.22065673  0.23604715  0.02706102  1  -1.182397  -0.00165  -0.327222  -0.201889  -0.000538  3.539847  0.0
N  N82  1  0.22074506  0.26388401  0.52707577  1  -1.1838  -0.001523  -0.327879  -0.201485  -0.000725  3.545241  0.0
N  N83  1  0.77934577  0.76394721  0.97294171  1  -1.182282  -0.001766  -0.327241  -0.201968  -0.000609  3.539688  0.0
N  N84  1  0.97972584  0.02829306  0.30958783  1  -0.021294  -5.7e-05  0.019559  0.02959  -6e-05  2.862606  0.0
N  N85  1  0.02030313  0.52828022  0.19041619  1  -0.020893  -1e-05  0.019798  0.029439  -1.1e-05  2.862635  0.0
N  N86  1  0.02027666  0.97171012  0.69041421  1  -0.021111  -5.9e-05  0.01946  0.029453  -6.1e-05  2.862759  0.0
N  N87  1  0.97969936  0.47171502  0.80958517  1  -0.021085  5e-06  0.019701  0.029372  -7e-06  2.862667  0.0
N  N88  1  0.88512705  0.97827336  0.29628196  1  0.012676  -5.3e-05  0.014682  0.014845  -3.9e-05  2.849693  0.0
N  N89  1  0.11485463  0.47828348  0.20371575  1  0.01224  -8e-06  0.014428  0.01486  -1.1e-05  2.849622  0.0
N  N90  1  0.11487545  0.02173158  0.70372009  1  0.012498  -3e-05  0.014786  0.014981  -2.1e-05  2.849836  0.0
N  N91  1  0.88514787  0.52171177  0.79628493  1  0.012432  5e-06  0.014526  0.01492  9e-06  2.84965  0.0
N  N92  1  0.76350292  0.70983711  0.20778390  1  0.083747  -7.3e-05  0.026222  0.0448  -5.6e-05  2.848347  0.0
N  N93  1  0.23651414  0.20982680  0.29222064  1  0.084436  8.7e-05  0.026225  0.044753  5.5e-05  2.848101  0.0
N  N94  1  0.23649360  0.29016166  0.79221680  1  0.083631  9.6e-05  0.026115  0.044743  5.3e-05  2.848332  0.0
N  N95  1  0.76348338  0.79017373  0.70777619  1  0.084358  5.2e-05  0.026292  0.044758  4.6e-05  2.848169  0.0
N  N96  1  0.66117180  0.67279045  0.17933164  1  -0.092979  -4.4e-05  0.002708  -0.009084  -4.2e-05  2.839257  0.0
N  N97  1  0.33880754  0.17279916  0.32066007  1  -0.093626  2.9e-05  0.002607  -0.009069  3.2e-05  2.838876  0.0
N  N98  1  0.33882672  0.32720744  0.82066882  1  -0.092858  5.5e-05  0.002806  -0.00902  4.1e-05  2.839187  0.0
N  N99  1  0.66119197  0.82720225  0.67933721  1  -0.093576  3.1e-05  0.002551  -0.009071  3.4e-05  2.838987  0.0
N  N100  1  0.56038366  0.93877648  0.12322898  1  -0.049119  0.000142  0.023436  0.026236  0.000115  2.8575  0.0
N  N101  1  0.43961141  0.43877995  0.37677367  1  -0.049507  4.6e-05  0.023551  0.026306  5.5e-05  2.857726  0.0
N  N102  1  0.43961287  0.06122493  0.87677240  1  -0.048758  0.000146  0.023396  0.02618  0.000115  2.857606  0.0
N  N103  1  0.56038611  0.56121794  0.62322725  1  -0.049391  -5.5e-05  0.023503  0.026271  -6.5e-05  2.857585  0.0
N  N104  1  0.57411522  0.99142012  0.18974008  1  0.038724  0.000132  0.018599  0.016392  7.5e-05  2.85507  0.0
N  N105  1  0.42588122  0.49141702  0.31026192  1  0.039166  5.9e-05  0.018477  0.016339  4.5e-05  2.855187  0.0
N  N106  1  0.42588230  0.00858306  0.81026016  1  0.038356  0.000128  0.018641  0.016456  7e-05  2.855164  0.0
N  N107  1  0.57411729  0.50857998  0.68973854  1  0.039057  -7.6e-05  0.01852  0.016374  -6.7e-05  2.855048  0.0
O  O108  1  0.02552009  0.66766275  0.42854946  1  -1.104423  -0.079627  -0.30852  -0.515823  -0.054054  2.377166  -0.072
O  O109  1  0.97441003  0.16773445  0.07146132  1  -1.105021  0.089942  -0.308832  -0.51602  0.057747  2.373913  0.082
O  O110  1  0.97449037  0.33233515  0.57145507  1  -1.104247  0.080157  -0.308476  -0.51579  0.051901  2.376693  0.072
O  O111  1  0.02559148  0.83227402  0.92853436  1  -1.104802  0.089819  -0.308777  -0.515966  0.057681  2.373938  0.082
O  O112  1  0.01925541  0.87026676  0.11863315  1  -1.111809  0.087955  -0.313531  -0.523507  0.056443  2.379158  0.08
O  O113  1  0.98077635  0.37019625  0.38149392  1  -1.110901  0.078606  -0.313205  -0.522594  0.050889  2.381319  0.071
O  O114  1  0.98074908  0.12974346  0.88136866  1  -1.111828  0.088203  -0.313476  -0.523423  0.056593  2.379098  0.08
O  O115  1  0.01923212  0.62980077  0.61850878  1  -1.110621  -0.078192  -0.31322  -0.522609  -0.053079  2.381518  -0.071
O  O116  1  0.19391089  0.53324425  0.45622162  1  -1.096971  0.088701  -0.313419  -0.513994  0.057346  2.342501  0.08
O  O117  1  0.80628270  0.03326504  0.04376894  1  -1.099568  0.099524  -0.31476  -0.515744  0.063928  2.340228  0.09
O  O118  1  0.80608166  0.46673954  0.54376043  1  -1.097828  -0.088103  -0.313401  -0.513887  -0.059687  2.342735  -0.08
O  O119  1  0.19371583  0.96674959  0.95621377  1  -1.099797  0.099938  -0.314858  -0.515842  0.064182  2.340276  0.091
O  O120  1  0.18614144  0.00426568  0.13896441  1  -1.105485  0.10037  -0.314795  -0.516623  0.064334  2.367742  0.091
O  O121  1  0.81359762  0.50414958  0.36106836  1  -1.10494  -0.088355  -0.313602  -0.515432  -0.059727  2.369851  -0.08
O  O122  1  0.81385111  0.99576305  0.86105245  1  -1.105279  0.099827  -0.31464  -0.51662  0.063991  2.367854  0.091
O  O123  1  0.18638993  0.49582098  0.63894464  1  -1.104716  0.088923  -0.313715  -0.515602  0.057359  2.369552  0.08
F  F124  1  0.81958278  0.05126177  0.48480696  1  -0.631873  -2.8e-05  -0.095207  -0.138392  -1.4e-05  1.363962  0.0
F  F125  1  0.18048942  0.55119939  0.01520748  1  -0.631725  1.9e-05  -0.095454  -0.138718  1e-05  1.363825  0.0
F  F126  1  0.18041673  0.94873876  0.51519167  1  -0.631833  1.6e-05  -0.095225  -0.138419  6e-06  1.363893  0.0
F  F127  1  0.81950711  0.44879762  0.98478844  1  -0.631714  2e-05  -0.095395  -0.138682  1e-05  1.363917  0.0
