# generated using pymatgen
data_KVH18C9(NO5)2
_symmetry_space_group_name_H-M   'P 1'
_cell_length_a   6.55998078
_cell_length_b   9.90197815
_cell_length_c   13.12577465
_cell_angle_alpha   71.60512233
_cell_angle_beta   76.28788409
_cell_angle_gamma   72.20354261
_symmetry_Int_Tables_number   1
_chemical_formula_structural   KVH18C9(NO5)2
_chemical_formula_sum   'K2 V2 H36 C18 N4 O20'
_cell_volume   760.94531841
_cell_formula_units_Z   2
loop_
 _symmetry_equiv_pos_site_id
 _symmetry_equiv_pos_as_xyz
  1  'x, y, z'
loop_
 _atom_site_type_symbol
 _atom_site_label
 _atom_site_symmetry_multiplicity
 _atom_site_fract_x
 _atom_site_fract_y
 _atom_site_fract_z
 _atom_site_occupancy
 _atom_site_hle17_ddec_charge
 _atom_site_hle17_ddec_spin_density
 _atom_site_hle17_ddec_sum_bond_order
 _atom_site_hle17_magmom
 _atom_site_hse06_10hf_ddec_charge
 _atom_site_hse06_10hf_ddec_spin_density
 _atom_site_hse06_10hf_ddec_sum_bond_order
 _atom_site_hse06_10hf_magmom
 _atom_site_hse06_ddec_charge
 _atom_site_hse06_ddec_spin_density
 _atom_site_hse06_ddec_sum_bond_order
 _atom_site_hse06_magmom
 _atom_site_pbe_cm5_charge
 _atom_site_pbe_ddec_charge
 _atom_site_pbe_ddec_spin_density
 _atom_site_pbe_ddec_sum_bond_order
 _atom_site_pbe_magmom
K  K0  1  0.58039794  0.82883908  0.63118174  1  0.920897  -0.000225  0.406054  0.0  0.878313  -0.000151  0.567431  0.0  0.891106  -0.000172  0.545672  0.0  0.714917  0.868364  -0.00013  0.583506  0.0
K  K1  1  0.41960555  0.17116012  0.36881825  1  0.920905  -0.000227  0.406046  0.0  0.878325  -0.000154  0.56742  0.0  0.891121  -0.000175  0.545659  0.0  0.714924  0.868376  -0.00013  0.583492  0.0
V  V2  1  0.10444850  0.19640541  0.80407796  1  1.571149  1.268328  2.701736  1.237  1.567269  1.05315  3.105354  1.018  1.657632  1.09423  3.072549  1.063  1.347743  1.506192  1.018763  3.129664  0.981
V  V3  1  0.89555302  0.80359487  0.19591971  1  1.571156  1.268353  2.701712  1.237  1.56727  1.053163  3.105308  1.018  1.657608  1.094245  3.072544  1.063  1.347718  1.506185  1.01878  3.129637  0.981
H  H4  1  0.24530408  0.28008930  0.04758388  1  0.131169  -0.000643  0.941113  0.0  0.141984  -0.000192  1.003829  0.0  0.145636  -0.000272  1.000896  0.0  0.116991  0.139286  -8.7e-05  1.006092  0.0
H  H5  1  0.75469394  0.71990769  0.95241653  1  0.13115  -0.000643  0.941132  0.0  0.141973  -0.000192  1.003856  0.0  0.145625  -0.000272  1.000925  0.0  0.116958  0.139275  -8.7e-05  1.006125  0.0
H  H6  1  0.13181692  0.12766457  0.07618118  1  0.132636  -0.000995  0.96138  0.0  0.151183  -0.000855  1.014758  0.0  0.155439  -0.000874  1.011324  0.0  0.125009  0.14819  -0.000821  1.017319  0.0
H  H7  1  0.86818261  0.87233680  0.92381646  1  0.132632  -0.000995  0.961357  0.0  0.151181  -0.000854  1.014754  0.0  0.155438  -0.000875  1.011321  0.0  0.124999  0.148187  -0.000821  1.017319  0.0
H  H8  1  0.52255580  0.97745456  0.88581137  1  0.09216  -0.000195  0.922535  0.0  0.10859  -7.7e-05  0.97946  0.0  0.110135  -0.000141  0.978229  0.0  0.119484  0.107366  -1.4e-05  0.980538  0.0
H  H9  1  0.47744605  0.02254902  0.11418623  1  0.092153  -0.000195  0.922606  0.0  0.108566  -7.7e-05  0.979556  0.0  0.110118  -0.000141  0.978312  0.0  0.119489  0.107342  -1.3e-05  0.980634  0.0
H  H10  1  0.30098102  0.95330625  0.99238684  1  0.090233  -0.000736  0.941898  0.0  0.103464  -0.000614  1.007305  0.0  0.105051  -0.00056  1.006487  0.0  0.113764  0.10232  -0.000619  1.007889  0.0
H  H11  1  0.69902363  0.04669403  0.00761047  1  0.090214  -0.000736  0.941899  0.0  0.103476  -0.000614  1.00728  0.0  0.105065  -0.00056  1.006463  0.0  0.113765  0.102332  -0.000619  1.007863  0.0
H  H12  1  0.60307060  0.19956154  0.81304260  1  0.091028  -0.000323  0.927578  0.0  0.105446  -0.00024  0.990799  0.0  0.107044  -0.000273  0.989788  0.0  0.116686  0.104236  -0.000175  0.991589  0.0
H  H13  1  0.39692968  0.80044206  0.18695670  1  0.091012  -0.000323  0.927608  0.0  0.105443  -0.00024  0.990777  0.0  0.107039  -0.000273  0.98977  0.0  0.116687  0.104233  -0.000175  0.991567  0.0
H  H14  1  0.54830852  0.27978560  0.92256384  1  0.086771  -0.000998  0.925997  -0.001  0.103865  -0.00043  0.98477  0.0  0.105514  -0.000441  0.983424  0.0  0.111554  0.102541  -0.000405  0.985964  0.0
H  H15  1  0.45168589  0.72021690  0.07743719  1  0.086775  -0.000997  0.926014  -0.001  0.103832  -0.00043  0.984813  0.0  0.105495  -0.00044  0.983449  0.0  0.111554  0.102508  -0.000405  0.986006  0.0
H  H16  1  0.23887467  0.47218661  0.84315850  1  0.086688  -6.9e-05  0.962793  0.0  0.100676  -5.7e-05  1.025594  0.0  0.102109  -6.6e-05  1.025065  0.0  0.111146  0.099433  -4.3e-05  1.026322  0.0
H  H17  1  0.76111899  0.52781366  0.15684086  1  0.086732  -6.9e-05  0.962792  0.0  0.100721  -5.7e-05  1.025581  0.0  0.102152  -6.6e-05  1.025054  0.0  0.111172  0.099476  -4.3e-05  1.026309  0.0
H  H18  1  0.48810763  0.47494580  0.75482504  1  0.085623  -0.000328  0.934184  0.0  0.101793  -0.000153  0.994461  0.0  0.103661  -0.000156  0.993129  0.0  0.112396  0.100353  -0.000137  0.99551  0.0
H  H19  1  0.51188794  0.52505780  0.24517558  1  0.085654  -0.000327  0.934153  0.0  0.101824  -0.000152  0.994429  0.0  0.103695  -0.000157  0.993095  0.0  0.11241  0.100383  -0.000137  0.995479  0.0
H  H20  1  0.14676884  0.59468703  0.59723584  1  0.119715  -0.000277  0.922557  0.0  0.133175  -9.8e-05  0.981283  0.0  0.136579  -0.000132  0.97839  0.0  0.122109  0.130546  -3.1e-05  0.983549  0.0
H  H21  1  0.85323110  0.40531325  0.40276278  1  0.119712  -0.000277  0.92258  0.0  0.133152  -9.8e-05  0.981299  0.0  0.136553  -0.000132  0.978405  0.0  0.122105  0.130524  -3.1e-05  0.983562  0.0
H  H22  1  0.01425265  0.57359549  0.73192522  1  0.119908  8e-06  0.922707  0.0  0.137431  7.3e-05  0.977227  0.0  0.139759  -8e-06  0.976052  0.0  0.129035  0.135659  0.000185  0.978168  0.0
H  H23  1  0.98574572  0.42640480  0.26807435  1  0.119877  8e-06  0.922724  0.0  0.137373  7.3e-05  0.97725  0.0  0.139703  -7e-06  0.976074  0.0  0.129012  0.135604  0.000185  0.978189  0.0
H  H24  1  0.58613010  0.36537153  0.61694596  1  0.12479  -0.000285  0.948031  0.0  0.13438  -0.000123  1.01297  0.0  0.138659  -0.000184  1.009392  0.0  0.118051  0.131134  -3.1e-05  1.015823  0.0
H  H25  1  0.41387216  0.63463096  0.38305261  1  0.124794  -0.000285  0.948022  0.0  0.134366  -0.000123  1.012973  0.0  0.138642  -0.000183  1.009393  0.0  0.118055  0.131123  -3.1e-05  1.015819  0.0
H  H26  1  0.37381559  0.40217492  0.54308120  1  0.131696  8.6e-05  0.952572  0.0  0.145425  0.000244  1.011411  0.0  0.148343  0.000123  1.009839  0.0  0.12569  0.143235  0.000396  1.012816  0.0
H  H27  1  0.62618359  0.59782317  0.45691957  1  0.131716  8.6e-05  0.952595  0.0  0.145436  0.000244  1.011435  0.0  0.148354  0.000124  1.009866  0.0  0.125695  0.143246  0.000396  1.012841  0.0
H  H28  1  0.00007105  0.78813365  0.42670011  1  0.40354  -0.000229  0.90049  0.0  0.376332  -0.000124  0.959893  0.0  0.385688  -0.00016  0.94601  0.0  0.285674  0.369647  -8.7e-05  0.969831  0.0
H  H29  1  0.99993441  0.21186445  0.57329991  1  0.403545  -0.000229  0.900486  0.0  0.376338  -0.000124  0.959887  0.0  0.385693  -0.000161  0.946004  0.0  0.285701  0.369654  -8.7e-05  0.969824  0.0
H  H30  1  0.09712251  0.86493118  0.48263396  1  0.426544  0.000107  0.864193  0.0  0.404227  0.000172  0.913895  0.0  0.413297  0.000117  0.900532  0.0  0.299213  0.397683  0.000238  0.923594  0.0
H  H31  1  0.90288574  0.13506363  0.51736729  1  0.426526  0.000107  0.864227  0.0  0.404206  0.000172  0.913934  0.0  0.413277  0.000117  0.90057  0.0  0.299247  0.397662  0.000238  0.923634  0.0
H  H32  1  0.70317345  0.53569821  0.86623730  1  0.410349  -8.8e-05  0.888154  0.0  0.381705  0.000122  0.952498  0.0  0.392027  -5e-06  0.937052  0.0  0.286865  0.37425  0.000256  0.963659  0.0
H  H33  1  0.29682574  0.46429988  0.13376270  1  0.410382  -8.9e-05  0.888135  0.0  0.381748  0.000122  0.952437  0.0  0.39207  -5e-06  0.936991  0.0  0.286889  0.374294  0.000256  0.963598  0.0
H  H34  1  0.46857842  0.62898323  0.89094819  1  0.412482  1.1e-05  0.889765  0.0  0.382851  1.1e-05  0.952684  0.0  0.393022  8e-06  0.937552  0.0  0.287575  0.375612  1.5e-05  0.963453  0.0
H  H35  1  0.53142117  0.37101376  0.10905280  1  0.412478  1.2e-05  0.889771  0.0  0.382848  1.1e-05  0.952686  0.0  0.393019  8e-06  0.937556  0.0  0.287573  0.37561  1.5e-05  0.963454  0.0
H  H36  1  0.15374769  0.74714611  0.80505588  1  0.395201  -6e-05  0.916793  0.0  0.366384  -7.1e-05  0.979174  0.0  0.375635  -5.9e-05  0.965602  0.0  0.281715  0.359861  -7.8e-05  0.988711  0.0
H  H37  1  0.84624829  0.25285639  0.19494420  1  0.395153  -6e-05  0.916859  0.0  0.366321  -7.1e-05  0.979267  0.0  0.375574  -5.9e-05  0.965694  0.0  0.281665  0.359798  -7.8e-05  0.988805  0.0
H  H38  1  0.09956383  0.91326528  0.74858446  1  0.410416  -0.000606  0.878698  0.0  0.386946  -0.000572  0.935503  0.0  0.396831  -0.000545  0.920676  0.0  0.293771  0.380076  -0.000556  0.945841  0.0
H  H39  1  0.90043571  0.08673610  0.25141470  1  0.410427  -0.000605  0.878691  0.0  0.386954  -0.000572  0.935496  0.0  0.396838  -0.000545  0.920668  0.0  0.29377  0.380084  -0.000556  0.945833  0.0
C  C40  1  0.16866878  0.22404553  0.01227389  1  -0.224677  0.002252  3.631355  0.002  -0.277858  0.00269  3.878005  0.002  -0.280804  0.00219  3.884355  0.002  -0.082412  -0.2757  0.003155  3.873617  0.002
C  C41  1  0.83133197  0.77595256  0.98772593  1  -0.224705  0.002254  3.631289  0.002  -0.277969  0.002691  3.877995  0.002  -0.280919  0.002194  3.884349  0.002  -0.082409  -0.275811  0.003157  3.873593  0.002
C  C42  1  0.95183912  0.32120606  0.98453589  1  0.704076  0.002425  3.813388  0.003  0.650815  0.002278  4.127135  0.003  0.68656  0.001899  4.116188  0.002  0.223666  0.626408  0.002715  4.133824  0.003
C  C43  1  0.04816600  0.67878870  0.01546041  1  0.704279  0.002427  3.813159  0.003  0.650989  0.002279  4.126949  0.003  0.686732  0.0019  4.115999  0.002  0.223763  0.626594  0.002715  4.133631  0.003
C  C44  1  0.42753585  0.01337306  0.95774589  1  -0.042957  0.001183  3.586154  0.001  -0.101041  0.001596  3.848748  0.001  -0.09732  0.001432  3.858918  0.001  -0.072228  -0.103319  0.001802  3.84159  0.001
C  C45  1  0.57245892  0.98663270  0.04224973  1  -0.042986  0.001183  3.586181  0.001  -0.101107  0.001596  3.848709  0.001  -0.097388  0.00143  3.858879  0.001  -0.07224  -0.103386  0.001802  3.841554  0.001
C  C46  1  0.47350526  0.26240284  0.86271511  1  -0.034483  0.000524  3.606043  0.001  -0.093966  0.000266  3.873882  0.001  -0.090978  0.00023  3.885864  0.001  -0.072898  -0.095875  0.000344  3.865716  0.001
C  C47  1  0.52649235  0.73759527  0.13728736  1  -0.034415  0.000522  3.606012  0.001  -0.093902  0.000267  3.87382  0.001  -0.09092  0.000227  3.885794  0.001  -0.072887  -0.095809  0.000345  3.865648  0.001
C  C48  1  0.36733831  0.41000099  0.79292997  1  -0.041991  -7e-05  3.635614  0.0  -0.100606  -7.9e-05  3.897205  0.0  -0.097998  -3e-05  3.908565  0.0  -0.074284  -0.102239  -0.000101  3.889403  0.0
C  C49  1  0.63265849  0.58999930  0.20706978  1  -0.042073  -7.1e-05  3.635635  0.0  -0.100677  -8e-05  3.897225  0.0  -0.098072  -2.7e-05  3.908589  0.0  -0.074328  -0.10231  -0.000101  3.889426  0.0
C  C50  1  0.09273386  0.51338953  0.66979191  1  -0.191162  -0.000317  3.645619  0.0  -0.248507  -0.000325  3.898371  0.0  -0.250343  -0.000213  3.905078  0.0  -0.068129  -0.246918  -0.000369  3.893705  0.0
C  C51  1  0.90726254  0.48661185  0.33020611  1  -0.191188  -0.000316  3.645735  0.0  -0.248396  -0.000325  3.898386  0.0  -0.250224  -0.000211  3.905077  0.0  -0.068104  -0.246817  -0.000369  3.893726  0.0
C  C52  1  0.92134642  0.45833260  0.64530886  1  0.698267  0.004978  3.804318  0.004  0.651202  0.006411  4.11703  0.005  0.687158  0.003151  4.106213  0.002  0.21903  0.625841  0.010246  4.124252  0.008
C  C53  1  0.07865195  0.54166770  0.35469147  1  0.698327  0.004978  3.80431  0.004  0.651247  0.006409  4.117008  0.005  0.687198  0.00315  4.106189  0.002  0.219067  0.625892  0.010244  4.124228  0.008
C  C54  1  0.46996332  0.17980028  0.62868719  1  0.702823  0.006786  3.843421  0.006  0.657491  0.008335  4.152528  0.006  0.694004  0.004625  4.140671  0.004  0.207056  0.631958  0.012553  4.160065  0.009
C  C55  1  0.53003860  0.82019890  0.37131146  1  0.702897  0.006785  3.843272  0.006  0.657582  0.008336  4.15235  0.006  0.694098  0.004624  4.140491  0.004  0.207063  0.632046  0.012553  4.15989  0.009
C  C56  1  0.43102616  0.34104491  0.62110693  1  -0.211877  -0.000138  3.627289  0.0  -0.261487  -2.6e-05  3.869211  0.0  -0.264834  1.2e-05  3.876045  0.0  -0.075756  -0.258967  2e-06  3.864625  0.0
C  C57  1  0.56897733  0.65895428  0.37889229  1  -0.211938  -0.000138  3.6273  0.0  -0.2615  -2.7e-05  3.869244  0.0  -0.264845  1.2e-05  3.876079  0.0  -0.07576  -0.25898  2e-06  3.864657  0.0
N  N58  1  0.31367324  0.17150204  0.91901333  1  -0.222829  -0.020966  3.245754  -0.028  -0.158231  -0.005088  3.513986  -0.014  -0.180508  -0.006269  3.541533  -0.015  -0.379146  -0.143045  -0.003991  3.495177  -0.013
N  N59  1  0.68632629  0.82849937  0.08098888  1  -0.222943  -0.020966  3.245762  -0.028  -0.158166  -0.00509  3.513718  -0.014  -0.180438  -0.006274  3.541265  -0.015  -0.379136  -0.142983  -0.003993  3.494917  -0.013
N  N60  1  0.26940217  0.38834833  0.71089946  1  -0.199425  -0.009864  3.308125  -0.009  -0.133854  -0.005348  3.567772  -0.004  -0.152024  -0.00511  3.594984  -0.004  -0.373516  -0.12147  -0.005384  3.548985  -0.004
N  N61  1  0.73059778  0.61165194  0.28909764  1  -0.199346  -0.009865  3.308181  -0.009  -0.133885  -0.005349  3.567868  -0.004  -0.152054  -0.00511  3.595077  -0.004  -0.373496  -0.1215  -0.005385  3.549083  -0.004
O  O62  1  0.91260756  0.34238383  0.88724360  1  -0.671818  -0.002189  2.107373  -0.013  -0.630294  0.009046  2.37368  -0.003  -0.66443  0.007727  2.368468  -0.004  -0.355889  -0.606329  0.010296  2.376803  -0.002
O  O63  1  0.08738726  0.65761757  0.11275840  1  -0.671878  -0.00219  2.107122  -0.013  -0.630371  0.009048  2.3735  -0.003  -0.664507  0.007728  2.368295  -0.004  -0.355935  -0.606393  0.010298  2.376579  -0.002
O  O64  1  0.35838785  0.10432563  0.71009474  1  -0.701593  8e-05  2.103552  -0.012  -0.66958  0.013851  2.373045  -0.001  -0.703651  0.013385  2.365163  0.0  -0.397246  -0.64551  0.014439  2.377991  -0.001
O  O65  1  0.64161209  0.89567466  0.28990540  1  -0.701598  7.7e-05  2.103579  -0.012  -0.669585  0.013848  2.373061  -0.001  -0.703653  0.013381  2.365181  0.0  -0.397216  -0.645509  0.014435  2.377999  -0.001
O  O66  1  0.93951963  0.31604179  0.68200675  1  -0.681231  -0.002329  2.075853  -0.014  -0.638831  0.009894  2.337506  -0.003  -0.673754  0.009865  2.330184  -0.002  -0.36885  -0.614261  0.010066  2.342474  -0.004
O  O67  1  0.06047956  0.68395631  0.31799478  1  -0.681216  -0.002334  2.075894  -0.014  -0.638838  0.009891  2.337563  -0.003  -0.673758  0.009861  2.330248  -0.002  -0.368849  -0.61427  0.010063  2.34253  -0.004
O  O68  1  0.00231909  0.05363453  0.85459109  1  -0.715761  -0.247904  1.369856  -0.217  -0.726541  -0.109055  1.64139  -0.095  -0.763858  -0.135061  1.632813  -0.12  -0.594895  -0.701782  -0.0922  1.647845  -0.08
O  O69  1  0.99768671  0.94636687  0.14540885  1  -0.715796  -0.247921  1.369849  -0.217  -0.726586  -0.10906  1.641397  -0.095  -0.763897  -0.135067  1.632828  -0.12  -0.594903  -0.701824  -0.092203  1.647855  -0.08
O  O70  1  0.81655396  0.37405105  0.05555434  1  -0.60572  -0.003234  1.992655  -0.003  -0.540048  -0.001751  2.204579  -0.001  -0.564902  -0.001587  2.194101  -0.001  -0.291093  -0.522698  -0.001796  2.211579  -0.001
O  O71  1  0.18343848  0.62595254  0.94444590  1  -0.605763  -0.003232  1.992752  -0.003  -0.540088  -0.00175  2.204706  -0.001  -0.564943  -0.001587  2.194239  -0.001  -0.291114  -0.522733  -0.001795  2.211676  -0.001
O  O72  1  0.60234650  0.12400284  0.55842417  1  -0.652632  0.004292  1.948011  0.005  -0.606479  0.009332  2.168594  0.009  -0.628952  0.007357  2.156691  0.008  -0.391703  -0.590709  0.011418  2.176688  0.011
O  O73  1  0.39765656  0.87599748  0.44157941  1  -0.652717  0.004292  1.947835  0.005  -0.606569  0.009332  2.168408  0.009  -0.629043  0.007357  2.156503  0.008  -0.391751  -0.590799  0.011418  2.176504  0.011
O  O74  1  0.77255786  0.54478144  0.59635090  1  -0.602216  0.003254  1.938278  0.004  -0.559771  0.008024  2.166308  0.008  -0.582915  0.006275  2.15735  0.006  -0.343167  -0.543596  0.009957  2.172519  0.01
O  O75  1  0.22744085  0.45522217  0.40365011  1  -0.602233  0.003252  1.938237  0.004  -0.559794  0.008023  2.166281  0.008  -0.58294  0.006272  2.157324  0.006  -0.343179  -0.543621  0.009956  2.172489  0.01
O  O76  1  0.96252659  0.84051972  0.48329301  1  -0.856044  0.000137  1.742022  0.0  -0.814679  0.000409  1.879227  0.0  -0.831317  0.000268  1.851686  0.0  -0.649014  -0.802583  0.000545  1.898906  0.0
O  O77  1  0.03748165  0.15947509  0.51670900  1  -0.85603  0.000137  1.74205  0.0  -0.81467  0.000409  1.879258  0.0  -0.831311  0.000269  1.851724  0.0  -0.649075  -0.802573  0.000545  1.898935  0.0
O  O78  1  0.61319247  0.63712557  0.85035525  1  -0.850312  9.3e-05  1.757494  0.0  -0.808622  0.000476  1.910597  0.001  -0.82544  0.00033  1.880591  0.0  -0.636157  -0.796509  0.000623  1.931907  0.001
O  O79  1  0.38680828  0.36287251  0.14964381  1  -0.850356  9.3e-05  1.757522  0.0  -0.808665  0.000476  1.910594  0.001  -0.825489  0.00033  1.880594  0.0  -0.636186  -0.796553  0.000623  1.931902  0.001
O  O80  1  0.14965896  0.81719621  0.73270278  1  -0.841393  -0.001476  1.739142  -0.001  -0.8005  -0.000952  1.873903  -0.001  -0.816805  -0.000903  1.845645  -0.001  -0.642756  -0.78864  -0.000964  1.893312  -0.001
O  O81  1  0.85033941  0.18280408  0.26729755  1  -0.841359  -0.001476  1.739177  -0.001  -0.800456  -0.000952  1.873943  -0.001  -0.816763  -0.000903  1.845685  -0.001  -0.642715  -0.788596  -0.000964  1.893353  -0.001
