# generated using pymatgen
data_HgH10C10N2(ClO)2
_symmetry_space_group_name_H-M   'P 1'
_cell_length_a   8.12960573
_cell_length_b   10.31154839
_cell_length_c   14.81709094
_cell_angle_alpha   89.99993940
_cell_angle_beta   89.04578616
_cell_angle_gamma   89.99979465
_symmetry_Int_Tables_number   1
_chemical_formula_structural   HgH10C10N2(ClO)2
_chemical_formula_sum   'Hg4 H40 C40 N8 Cl8 O8'
_cell_volume   1241.92704070
_cell_formula_units_Z   4
loop_
 _symmetry_equiv_pos_site_id
 _symmetry_equiv_pos_as_xyz
  1  'x, y, z'
loop_
 _atom_site_type_symbol
 _atom_site_label
 _atom_site_symmetry_multiplicity
 _atom_site_fract_x
 _atom_site_fract_y
 _atom_site_fract_z
 _atom_site_occupancy
 _atom_site_hle17_bader_spin_density
 _atom_site_hle17_ddec_charge
 _atom_site_hle17_ddec_spin_density
 _atom_site_hle17_ddec_sum_bond_order
 _atom_site_hle17_magmom
 _atom_site_hse06_10hf_bader_spin_density
 _atom_site_hse06_10hf_ddec_charge
 _atom_site_hse06_10hf_ddec_spin_density
 _atom_site_hse06_10hf_ddec_sum_bond_order
 _atom_site_hse06_10hf_magmom
 _atom_site_hse06_bader_spin_density
 _atom_site_hse06_ddec_charge
 _atom_site_hse06_ddec_spin_density
 _atom_site_hse06_ddec_sum_bond_order
 _atom_site_hse06_magmom
 _atom_site_pbe_bader_spin_density
 _atom_site_pbe_cm5_charge
 _atom_site_pbe_ddec_charge
 _atom_site_pbe_ddec_spin_density
 _atom_site_pbe_ddec_sum_bond_order
 _atom_site_pbe_magmom
Hg  Hg0  1  0.74999899  0.94066524  0.50000031  1  0  0.838392  0  2.047652  0  0  0.673957  0  2.546696  0  0  0.723355  0  2.511221  0  0  0.581124  0.645192  0  2.561895  0
Hg  Hg1  1  0.25000195  0.05934051  0.49999938  1  0  0.838348  0  2.047784  0  0  0.673907  0  2.546854  0  0  0.723306  0  2.511377  0  0  0.581093  0.645138  0  2.562066  0
Hg  Hg2  1  0.99999458  0.50000168  0.50000109  1  0  0.794684  0  2.081706  0  0  0.668814  0  2.581315  0  0  0.716816  0  2.543958  0  0  0.453869  0.638823  0  2.603498  0
Hg  Hg3  1  0.49999800  0.50000336  0.50000053  1  0  0.794696  0  2.081716  0  0  0.668825  0  2.581316  0  0  0.716831  0  2.543961  0  0  0.453876  0.638837  0  2.603503  0
H  H4  1  0.08636896  0.54624982  0.94548673  1  0  0.396426  0  0.892485  0  0  0.363319  0  0.974158  0  0  0.37607  0  0.960931  0  0  0.305571  0.35433  0  0.983408  0
H  H5  1  0.41363151  0.54625002  0.05451237  1  0  0.396456  0  0.892454  0  0  0.363347  0  0.974127  0  0  0.376097  0  0.960901  0  0  0.30558  0.354357  0  0.983377  0
H  H6  1  0.91363563  0.45374235  0.05451498  1  0  0.396445  0  0.892444  0  0  0.363337  0  0.974104  0  0  0.376087  0  0.960877  0  0  0.305603  0.354349  0  0.983347  0
H  H7  1  0.58636334  0.45374118  0.94548531  1  0  0.396451  0  0.892413  0  0  0.363351  0  0.974066  0  0  0.376098  0  0.960839  0  0  0.305615  0.354366  0  0.983308  0
H  H8  1  0.86610598  0.03484153  0.93379293  1  0  0.103736  0  0.952791  0  0  0.116616  0  1.010195  0  0  0.119717  0  1.008623  0  0  0.103708  0.114401  0  1.011401  0
H  H9  1  0.63389978  0.03484251  0.06620832  1  0  0.103758  0  0.952763  0  0  0.116627  0  1.010176  0  0  0.119728  0  1.008602  0  0  0.103699  0.114414  0  1.011379  0
H  H10  1  0.13390233  0.96516034  0.06620743  1  0  0.103757  0  0.952779  0  0  0.116608  0  1.01021  0  0  0.119721  0  1.008622  0  0  0.103706  0.114396  0  1.011413  0
H  H11  1  0.36610119  0.96515936  0.93379069  1  0  0.103769  0  0.95278  0  0  0.116624  0  1.010192  0  0  0.119737  0  1.008604  0  0  0.103725  0.114412  0  1.011395  0
H  H12  1  0.91649796  0.79670278  0.94873152  1  0  0.087813  0  0.976469  0  0  0.097047  0  1.040421  0  0  0.100022  0  1.039231  0  0  0.092385  0.094851  0  1.041388  0
H  H13  1  0.58350804  0.79670489  0.05126986  1  0  0.087822  0  0.976472  0  0  0.097009  0  1.040486  0  0  0.099981  0  1.0393  0  0  0.092391  0.094822  0  1.041446  0
H  H14  1  0.08351406  0.20329812  0.05126815  1  0  0.08779  0  0.976515  0  0  0.097075  0  1.040414  0  0  0.100036  0  1.039237  0  0  0.092433  0.09488  0  1.041376  0
H  H15  1  0.41649171  0.20329698  0.94872849  1  0  0.087817  0  0.976493  0  0  0.097004  0  1.040512  0  0  0.099972  0  1.03933  0  0  0.092391  0.09483  0  1.041456  0
H  H16  1  0.89458771  0.65047754  0.81719014  1  0  0.090663  0  0.966008  0  0  0.101419  0  1.026376  0  0  0.104344  0  1.025267  0  0  0.095412  0.099555  0  1.026896  0
H  H17  1  0.60541526  0.65047939  0.18281135  1  0  0.090687  0  0.965958  0  0  0.101444  0  1.026329  0  0  0.104369  0  1.02522  0  0  0.095426  0.099583  0  1.026848  0
H  H18  1  0.10542063  0.34952336  0.18280887  1  0  0.090608  0  0.965942  0  0  0.101414  0  1.02625  0  0  0.10434  0  1.025136  0  0  0.095395  0.099548  0  1.026771  0
H  H19  1  0.39458080  0.34952054  0.81718700  1  0  0.090672  0  0.965959  0  0  0.101429  0  1.026326  0  0  0.104354  0  1.025214  0  0  0.095422  0.099567  0  1.026846  0
H  H20  1  0.82087973  0.73404329  0.66566658  1  0  0.113907  0  0.971811  0  0  0.118995  0  1.04286  0  0  0.121753  0  1.041467  0  0  0.093004  0.116898  0  1.044324  0
H  H21  1  0.67912164  0.73404470  0.33433418  1  0  0.11393  0  0.971799  0  0  0.119016  0  1.042847  0  0  0.121774  0  1.041453  0  0  0.093019  0.116917  0  1.044315  0
H  H22  1  0.17912738  0.26595955  0.33433243  1  0  0.113947  0  0.971806  0  0  0.119043  0  1.042828  0  0  0.121797  0  1.041437  0  0  0.093024  0.116946  0  1.044289  0
H  H23  1  0.32087194  0.26595523  0.66566485  1  0  0.11385  0  0.971836  0  0  0.118957  0  1.042887  0  0  0.121714  0  1.041495  0  0  0.092945  0.116863  0  1.044345  0
H  H24  1  0.71098294  0.21080489  0.62752229  1  0  0.108825  0  0.963985  0  0  0.114048  0  1.034806  0  0  0.116613  0  1.03071  0  0  0.120165  0.111823  0  1.038541  0
H  H25  1  0.78901465  0.21080496  0.37247885  1  0  0.108831  0  0.963952  0  0  0.114051  0  1.034786  0  0  0.116616  0  1.030689  0  0  0.120159  0.111823  0  1.038524  0
H  H26  1  0.28901060  0.78919505  0.37247877  1  0  0.108804  0  0.963989  0  0  0.114023  0  1.034796  0  0  0.116587  0  1.0307  0  0  0.120123  0.111798  0  1.03853  0
H  H27  1  0.21098508  0.78919400  0.62752017  1  0  0.108841  0  0.963973  0  0  0.114054  0  1.034815  0  0  0.116619  0  1.030718  0  0  0.120141  0.111825  0  1.038553  0
H  H28  1  0.73772174  0.23799165  0.87868465  1  0  0.083488  0  0.929625  0  0  0.095557  0  0.996188  0  0  0.097148  0  0.994916  0  0  0.112897  0.094306  0  0.997237  0
H  H29  1  0.76227818  0.23799218  0.12131647  1  0  0.083488  0  0.92967  0  0  0.095542  0  0.996258  0  0  0.097135  0  0.994983  0  0  0.112871  0.09429  0  0.997306  0
H  H30  1  0.26228163  0.76200925  0.12131639  1  0  0.083434  0  0.929624  0  0  0.095491  0  0.996242  0  0  0.097085  0  0.994965  0  0  0.112848  0.094243  0  0.997297  0
H  H31  1  0.23771540  0.76200969  0.87868256  1  0  0.083483  0  0.929642  0  0  0.095546  0  0.996254  0  0  0.097141  0  0.994977  0  0  0.112868  0.094296  0  0.997307  0
H  H32  1  0.70343479  0.32901011  0.77916237  1  0  0.088562  0  0.945757  0  0  0.099407  0  1.015098  0  0  0.10041  0  1.014745  0  0  0.108278  0.098786  0  1.01536  0
H  H33  1  0.79656597  0.32901040  0.22083801  1  0  0.088568  0  0.945752  0  0  0.099412  0  1.015099  0  0  0.100414  0  1.014747  0  0  0.108274  0.09879  0  1.015361  0
H  H34  1  0.29656487  0.67099273  0.22083935  1  0  0.088515  0  0.94573  0  0  0.099377  0  1.015073  0  0  0.100373  0  1.014732  0  0  0.108274  0.098762  0  1.015333  0
H  H35  1  0.20343378  0.67099147  0.77916034  1  0  0.088587  0  0.945736  0  0  0.099434  0  1.015085  0  0  0.100436  0  1.014734  0  0  0.108297  0.098816  0  1.015348  0
H  H36  1  0.04847980  0.22933539  0.81940014  1  0  0.123304  0  0.93962  0  0  0.136501  0  0.999951  0  0  0.137659  0  1.00219  0  0  0.111003  0.135638  0  0.998462  0
H  H37  1  0.45152204  0.22933530  0.18060121  1  0  0.123328  0  0.93962  0  0  0.136519  0  0.999946  0  0  0.137677  0  1.002186  0  0  0.110993  0.135657  0  0.998457  0
H  H38  1  0.95152006  0.77066163  0.18059416  1  0  0.123239  0  0.9398  0  0  0.136481  0  1.000062  0  0  0.137641  0  1.0023  0  0  0.110981  0.135617  0  0.998575  0
H  H39  1  0.54847873  0.77066173  0.81940523  1  0  0.123245  0  0.939828  0  0  0.136477  0  1.000097  0  0  0.137637  0  1.002336  0  0  0.110976  0.135613  0  0.998611  0
H  H40  1  0.99674746  0.36513329  0.75342240  1  0  0.131809  0  0.927478  0  0  0.140917  0  0.991206  0  0  0.14343  0  0.990279  0  0  0.101405  0.139249  0  0.9919  0
H  H41  1  0.50325066  0.36513340  0.24657863  1  0  0.13183  0  0.927467  0  0  0.14093  0  0.991192  0  0  0.143444  0  0.990264  0  0  0.101411  0.139262  0  0.991884  0
H  H42  1  0.00324978  0.63486858  0.24657797  1  0  0.131832  0  0.927464  0  0  0.140954  0  0.991201  0  0  0.143469  0  0.990275  0  0  0.101422  0.139285  0  0.991893  0
H  H43  1  0.49675021  0.63486944  0.75342377  1  0  0.131836  0  0.927541  0  0  0.140993  0  0.99121  0  0  0.143512  0  0.990285  0  0  0.101429  0.139325  0  0.991904  0
C  C44  1  0.81510090  0.01577959  0.79040168  1  0  0.098968  0  3.781629  0  0  0.088698  0  4.025901  0  0  0.092571  0  4.048327  0  0  0.089695  0.086156  0  4.010668  0
C  C45  1  0.68490003  0.01578118  0.20959959  1  0  0.09901  0  3.781589  0  0  0.088726  0  4.02588  0  0  0.092599  0  4.048305  0  0  0.089701  0.086183  0  4.010647  0
C  C46  1  0.18489882  0.98422131  0.20959801  1  0  0.098914  0  3.78169  0  0  0.088679  0  4.025935  0  0  0.092553  0  4.048366  0  0  0.089694  0.086137  0  4.010702  0
C  C47  1  0.31510215  0.98421778  0.79040010  1  0  0.098975  0  3.781594  0  0  0.088622  0  4.025976  0  0  0.092495  0  4.048406  0  0  0.089681  0.086079  0  4.010744  0
C  C48  1  0.85608763  0.97026561  0.87588243  1  0  -0.158783  0  3.7852  0  0  -0.178468  0  4.041332  0  0  -0.181534  0  4.061668  0  0  -0.102474  -0.176263  0  4.027266  0
C  C49  1  0.64391636  0.97026744  0.12411884  1  0  -0.15886  0  3.785144  0  0  -0.178529  0  4.041266  0  0  -0.181595  0  4.061599  0  0  -0.102505  -0.176326  0  4.027206  0
C  C50  1  0.14391826  0.02973627  0.12411659  1  0  -0.158789  0  3.785196  0  0  -0.178462  0  4.04134  0  0  -0.181537  0  4.061666  0  0  -0.102502  -0.176262  0  4.027281  0
C  C51  1  0.35608582  0.02973346  0.87588085  1  0  -0.15876  0  3.785177  0  0  -0.178384  0  4.0413  0  0  -0.181458  0  4.061628  0  0  -0.102465  -0.176183  0  4.027245  0
C  C52  1  0.88375813  0.83715073  0.88351052  1  0  -0.087557  0  3.798292  0  0  -0.104915  0  4.058727  0  0  -0.106715  0  4.080581  0  0  -0.106686  -0.103447  0  4.043618  0
C  C53  1  0.61624648  0.83715265  0.11649016  1  0  -0.087489  0  3.798186  0  0  -0.104802  0  4.058615  0  0  -0.106598  0  4.08047  0  0  -0.106668  -0.103345  0  4.043507  0
C  C54  1  0.11625025  0.16285017  0.11648714  1  0  -0.087519  0  3.798144  0  0  -0.104914  0  4.058568  0  0  -0.106703  0  4.080432  0  0  -0.106696  -0.103448  0  4.043452  0
C  C55  1  0.38375448  0.16284825  0.88350886  1  0  -0.087573  0  3.798314  0  0  -0.10489  0  4.058747  0  0  -0.106685  0  4.080609  0  0  -0.106707  -0.103441  0  4.043624  0
C  C56  1  0.87192557  0.75370553  0.80846988  1  0  -0.078925  0  3.783335  0  0  -0.096437  0  4.041756  0  0  -0.099016  0  4.064142  0  0  -0.102659  -0.094371  0  4.025979  0
C  C57  1  0.62807815  0.75370633  0.19153222  1  0  -0.079083  0  3.783292  0  0  -0.096602  0  4.041719  0  0  -0.09918  0  4.064103  0  0  -0.102757  -0.094536  0  4.025946  0
C  C58  1  0.12808278  0.24629537  0.19152913  1  0  -0.078881  0  3.783052  0  0  -0.096414  0  4.041454  0  0  -0.098993  0  4.063836  0  0  -0.102659  -0.094347  0  4.025673  0
C  C59  1  0.37192035  0.24629360  0.80846680  1  0  -0.079113  0  3.783383  0  0  -0.096634  0  4.041808  0  0  -0.099212  0  4.064192  0  0  -0.102767  -0.09457  0  4.026037  0
C  C60  1  0.83132690  0.79918476  0.72316773  1  0  -0.133314  0  3.730344  0  0  -0.150273  0  3.980294  0  0  -0.153105  0  4.000358  0  0  -0.092649  -0.148656  0  3.967454  0
C  C61  1  0.66867417  0.79918532  0.27683366  1  0  -0.133193  0  3.730254  0  0  -0.150163  0  3.980214  0  0  -0.152995  0  4.000278  0  0  -0.092535  -0.148547  0  3.967372  0
C  C62  1  0.16867403  0.20081809  0.27683264  1  0  -0.133386  0  3.730328  0  0  -0.150343  0  3.980333  0  0  -0.153172  0  4.000401  0  0  -0.092634  -0.148727  0  3.967491  0
C  C63  1  0.33132310  0.20081461  0.72316537  1  0  -0.133075  0  3.730258  0  0  -0.150043  0  3.980182  0  0  -0.152875  0  4.000245  0  0  -0.092455  -0.148426  0  3.967344  0
C  C64  1  0.80206606  0.93207561  0.71504863  1  0  0.146239  0  3.814373  0  0  0.139506  0  4.059283  0  0  0.143938  0  4.082982  0  0  0.085609  0.136201  0  4.044246  0
C  C65  1  0.69793317  0.93207705  0.28495267  1  0  0.146158  0  3.814413  0  0  0.139427  0  4.059301  0  0  0.143858  0  4.083001  0  0  0.085548  0.136124  0  4.044262  0
C  C66  1  0.19793363  0.06792723  0.28495174  1  0  0.146326  0  3.814404  0  0  0.139509  0  4.059417  0  0  0.143941  0  4.083117  0  0  0.085555  0.136204  0  4.044378  0
C  C67  1  0.30206536  0.06792385  0.71504500  1  0  0.146216  0  3.814417  0  0  0.139482  0  4.059366  0  0  0.143914  0  4.083065  0  0  0.085552  0.136178  0  4.044329  0
C  C68  1  0.74454134  0.12870462  0.66935128  1  0  0.233166  0  3.614436  0  0  0.166792  0  3.880417  0  0  0.186683  0  3.889826  0  0  0.168267  0.153562  0  3.874743  0
C  C69  1  0.75545906  0.12870583  0.33065059  1  0  0.233201  0  3.614453  0  0  0.166817  0  3.880437  0  0  0.186708  0  3.889847  0  0  0.168289  0.15359  0  3.874758  0
C  C70  1  0.25545217  0.87129628  0.33065045  1  0  0.233105  0  3.61459  0  0  0.166765  0  3.880526  0  0  0.186657  0  3.889937  0  0  0.168257  0.153532  0  3.874851  0
C  C71  1  0.24454559  0.87129507  0.66934842  1  0  0.233176  0  3.614557  0  0  0.16681  0  3.880516  0  0  0.1867  0  3.889929  0  0  0.168286  0.153583  0  3.874836  0
C  C72  1  0.78517978  0.25831933  0.81043618  1  0  0.031148  0  3.619267  0  0  -0.033259  0  3.876436  0  0  -0.028188  0  3.886965  0  0  -0.050945  -0.036491  0  3.868964  0
C  C73  1  0.71482005  0.25831892  0.18956492  1  0  0.031147  0  3.619413  0  0  -0.033269  0  3.876574  0  0  -0.028199  0  3.887105  0  0  -0.050926  -0.0365  0  3.869098  0
C  C74  1  0.21481744  0.74167963  0.18956487  1  0  0.031345  0  3.61927  0  0  -0.033086  0  3.876497  0  0  -0.028013  0  3.887026  0  0  -0.050885  -0.036341  0  3.869056  0
C  C75  1  0.28518090  0.74168004  0.81043477  1  0  0.031199  0  3.619457  0  0  -0.03325  0  3.876713  0  0  -0.028178  0  3.887245  0  0  -0.050933  -0.036495  0  3.869257  0
C  C76  1  0.96129669  0.31079228  0.81442874  1  0  -0.299645  0  3.637616  0  0  -0.335338  0  3.880977  0  0  -0.342847  0  3.889279  0  0  -0.158954  -0.330099  0  3.874879  0
C  C77  1  0.53870290  0.31079141  0.18557233  1  0  -0.299752  0  3.637657  0  0  -0.335398  0  3.880901  0  0  -0.342908  0  3.889203  0  0  -0.158957  -0.330161  0  3.874803  0
C  C78  1  0.03870796  0.68920959  0.18557028  1  0  -0.299596  0  3.637875  0  0  -0.335446  0  3.881499  0  0  -0.342961  0  3.889805  0  0  -0.158945  -0.3302  0  3.875407  0
C  C79  1  0.46129179  0.68920949  0.81443142  1  0  -0.299613  0  3.63794  0  0  -0.33545  0  3.881458  0  0  -0.342971  0  3.889771  0  0  -0.158963  -0.330211  0  3.875365  0
C  C80  1  0.98666192  0.39179845  0.89720505  1  0  0.729817  0  3.716989  0  0  0.678475  0  4.023052  0  0  0.712156  0  4.013094  0  0  0.247918  0.655709  0  4.029127  0
C  C81  1  0.51333610  0.39179874  0.10279529  1  0  0.729828  0  3.717012  0  0  0.678529  0  4.022989  0  0  0.712209  0  4.013032  0  0  0.24795  0.655765  0  4.029065  0
C  C82  1  0.01333522  0.60819469  0.10279937  1  0  0.729863  0  3.716807  0  0  0.678568  0  4.022855  0  0  0.712253  0  4.012896  0  0  0.247926  0.655802  0  4.028932  0
C  C83  1  0.48666124  0.60819343  0.89720104  1  0  0.729888  0  3.716784  0  0  0.678607  0  4.022792  0  0  0.712292  0  4.012833  0  0  0.247964  0.655844  0  4.028869  0
N  N84  1  0.77745345  0.13893382  0.75856892  1  0  -0.115809  0  3.509039  0  0  -0.025541  0  3.729915  0  0  -0.04277  0  3.753647  0  0  -0.238708  -0.013898  0  3.713363  0
N  N85  1  0.72254815  0.13893428  0.24143226  1  0  -0.115891  0  3.509044  0  0  -0.025624  0  3.72994  0  0  -0.042854  0  3.753674  0  0  -0.23877  -0.013982  0  3.713386  0
N  N86  1  0.22254133  0.86106611  0.24143146  1  0  -0.115799  0  3.509091  0  0  -0.025509  0  3.729915  0  0  -0.042739  0  3.753647  0  0  -0.238668  -0.013858  0  3.713366  0
N  N87  1  0.27745771  0.86106371  0.75856742  1  0  -0.115942  0  3.509103  0  0  -0.025623  0  3.729993  0  0  -0.042852  0  3.753725  0  0  -0.238759  -0.013977  0  3.713442  0
N  N88  1  0.75728575  0.00658136  0.64130171  1  0  -0.373689  0  3.278495  0  0  -0.289592  0  3.557872  0  0  -0.315841  0  3.576862  0  0  -0.331737  -0.272549  0  3.544579  0
N  N89  1  0.74271399  0.00658256  0.35869958  1  0  -0.373598  0  3.278562  0  0  -0.289466  0  3.557888  0  0  -0.315714  0  3.576879  0  0  -0.331656  -0.272424  0  3.544591  0
N  N90  1  0.24271148  0.99342051  0.35869934  1  0  -0.373685  0  3.278735  0  0  -0.28958  0  3.558132  0  0  -0.31583  0  3.577123  0  0  -0.331679  -0.272536  0  3.544837  0
N  N91  1  0.25728822  0.99341931  0.64129876  1  0  -0.373632  0  3.278763  0  0  -0.289509  0  3.558101  0  0  -0.315757  0  3.577093  0  0  -0.33163  -0.272468  0  3.544807  0
Cl  Cl92  1  0.00109365  0.78188415  0.48955184  1  0  -0.569165  0  0.985065  0  0  -0.519096  0  1.293377  0  0  -0.540799  0  1.27244  0  0  -0.320141  -0.503211  0  1.30311  0
Cl  Cl93  1  0.49890567  0.78188343  0.51045047  1  0  -0.569173  0  0.985071  0  0  -0.519102  0  1.293372  0  0  -0.540809  0  1.272443  0  0  -0.320155  -0.503216  0  1.303102  0
Cl  Cl94  1  0.99890721  0.21811675  0.51045123  1  0  -0.569148  0  0.985067  0  0  -0.519072  0  1.293371  0  0  -0.540779  0  1.272442  0  0  -0.320136  -0.503183  0  1.303097  0
Cl  Cl95  1  0.50109283  0.21811845  0.48954855  1  0  -0.569119  0  0.985055  0  0  -0.519044  0  1.293368  0  0  -0.540759  0  1.272455  0  0  -0.320121  -0.50316  0  1.303104  0
Cl  Cl96  1  0.81659764  0.48543875  0.37416120  1  0  -0.444704  0  1.032176  0  0  -0.377925  0  1.31022  0  0  -0.398365  0  1.292499  0  0  -0.244565  -0.368169  0  1.323213  0
Cl  Cl97  1  0.68339747  0.48544069  0.62583975  1  0  -0.444697  0  1.032208  0  0  -0.377903  0  1.310239  0  0  -0.398344  0  1.292522  0  0  -0.244547  -0.368144  0  1.323225  0
Cl  Cl98  1  0.18339467  0.51456409  0.62583918  1  0  -0.444693  0  1.032204  0  0  -0.377894  0  1.310223  0  0  -0.398339  0  1.292512  0  0  -0.244554  -0.368134  0  1.323207  0
Cl  Cl99  1  0.31660099  0.51456700  0.37416062  1  0  -0.44473  0  1.03219  0  0  -0.377948  0  1.310214  0  0  -0.398386  0  1.292492  0  0  -0.244573  -0.368189  0  1.3232  0
O  O100  1  0.92006646  0.36320918  0.97092919  1  0  -0.582493  0  2.012921  0  0  -0.5306  0  2.234794  0  0  -0.552915  0  2.224609  0  0  -0.284891  -0.515273  0  2.24152  0
O  O101  1  0.57993042  0.36320843  0.02907252  1  0  -0.582475  0  2.012961  0  0  -0.5306  0  2.234797  0  0  -0.55291  0  2.224614  0  0  -0.284926  -0.515275  0  2.241525  0
O  O102  1  0.07994812  0.63678202  0.02906644  1  0  -0.582651  0  2.0125  0  0  -0.530719  0  2.234304  0  0  -0.553038  0  2.22412  0  0  -0.284918  -0.515374  0  2.241009  0
O  O103  1  0.42004944  0.63678083  0.97093395  1  0  -0.582686  0  2.012596  0  0  -0.530745  0  2.234364  0  0  -0.553064  0  2.224181  0  0  -0.284941  -0.515404  0  2.241074  0
O  O104  1  0.08511777  0.49271959  0.88648415  1  0  -0.540334  0  2.09019  0  0  -0.487283  0  2.310088  0  0  -0.510545  0  2.296842  0  0  -0.31847  -0.471103  0  2.318647  0
O  O105  1  0.41488044  0.49271970  0.11351634  1  0  -0.540348  0  2.090159  0  0  -0.487317  0  2.310045  0  0  -0.510577  0  2.296802  0  0  -0.318464  -0.471135  0  2.3186  0
O  O106  1  0.91487948  0.50727840  0.11351555  1  0  -0.540303  0  2.090511  0  0  -0.487223  0  2.310393  0  0  -0.510484  0  2.297146  0  0  -0.318396  -0.471038  0  2.318942  0
O  O107  1  0.58512169  0.50727926  0.88648538  1  0  -0.540291  0  2.090455  0  0  -0.487227  0  2.310328  0  0  -0.510484  0  2.297082  0  0  -0.318394  -0.471034  0  2.318856  0
