# generated using pymatgen
data_ZnH16C21N2O5
_symmetry_space_group_name_H-M   'P 1'
_cell_length_a   9.30290108
_cell_length_b   10.28676632
_cell_length_c   13.35544278
_cell_angle_alpha   82.95907215
_cell_angle_beta   70.74170468
_cell_angle_gamma   71.91017197
_symmetry_Int_Tables_number   1
_chemical_formula_structural   ZnH16C21N2O5
_chemical_formula_sum   'Zn2 H32 C42 N4 O10'
_cell_volume   1146.62494458
_cell_formula_units_Z   2
loop_
 _symmetry_equiv_pos_site_id
 _symmetry_equiv_pos_as_xyz
  1  'x, y, z'
loop_
 _atom_site_type_symbol
 _atom_site_label
 _atom_site_symmetry_multiplicity
 _atom_site_fract_x
 _atom_site_fract_y
 _atom_site_fract_z
 _atom_site_occupancy
 _atom_site_hle17_bader_spin_density
 _atom_site_hle17_ddec_charge
 _atom_site_hle17_ddec_spin_density
 _atom_site_hle17_ddec_sum_bond_order
 _atom_site_hle17_magmom
 _atom_site_hse06_10hf_bader_spin_density
 _atom_site_hse06_10hf_ddec_charge
 _atom_site_hse06_10hf_ddec_spin_density
 _atom_site_hse06_10hf_ddec_sum_bond_order
 _atom_site_hse06_10hf_magmom
 _atom_site_hse06_bader_spin_density
 _atom_site_hse06_ddec_charge
 _atom_site_hse06_ddec_spin_density
 _atom_site_hse06_ddec_sum_bond_order
 _atom_site_hse06_magmom
 _atom_site_pbe_bader_spin_density
 _atom_site_pbe_cm5_charge
 _atom_site_pbe_ddec_charge
 _atom_site_pbe_ddec_spin_density
 _atom_site_pbe_ddec_sum_bond_order
 _atom_site_pbe_magmom
Zn  Zn0  1  0.66783873  0.12405330  0.44423412  1  0  1.041689  0  1.820354  0  0  0.861655  0  2.274033  0  0  0.912244  0  2.218074  0  0  0.686524  0.823677  0  2.314483  0
Zn  Zn1  1  0.33216021  0.87594587  0.55576638  1  0  1.04168  0  1.820346  0  0  0.861663  0  2.273996  0  0  0.91225  0  2.21804  0  0  0.686525  0.823687  0  2.314447  0
H  H2  1  0.72912130  0.93379313  0.94306618  1  0  0.065269  0  0.934166  0  0  0.079049  0  0.990019  0  0  0.080835  0  0.988745  0  0  0.100459  0.077712  0  0.991095  0
H  H3  1  0.27087958  0.06620705  0.05693303  1  0  0.065236  0  0.934177  0  0  0.079032  0  0.990018  0  0  0.080821  0  0.98874  0  0  0.100447  0.077701  0  0.9911  0
H  H4  1  0.45199883  0.19480228  0.99078768  1  0  0.072309  0  0.923189  0  0  0.086443  0  0.977404  0  0  0.087938  0  0.976728  0  0  0.104956  0.085335  0  0.978005  0
H  H5  1  0.54800239  0.80519688  0.00921154  1  0  0.072362  0  0.923161  0  0  0.086498  0  0.977364  0  0  0.087994  0  0.976688  0  0  0.104986  0.08539  0  0.977964  0
H  H6  1  0.63193687  0.58947800  0.46801432  1  0  0.127982  0  0.964649  0  0  0.133028  0  1.036373  0  0  0.138012  0  1.031408  0  0  0.106055  0.129335  0  1.040243  0
H  H7  1  0.36806469  0.41052014  0.53198417  1  0  0.127992  0  0.964648  0  0  0.133047  0  1.036358  0  0  0.138032  0  1.031394  0  0  0.106064  0.129362  0  1.040218  0
H  H8  1  0.03931605  0.74466492  0.36263598  1  0  0.112637  0  0.966813  0  0  0.119829  0  1.034715  0  0  0.124137  0  1.03158  0  0  0.101902  0.116697  0  1.037039  0
H  H9  1  0.96068403  0.25533424  0.63736576  1  0  0.112639  0  0.966798  0  0  0.119826  0  1.034709  0  0  0.124135  0  1.031573  0  0  0.101902  0.116693  0  1.037034  0
H  H10  1  0.36667160  0.28829602  0.17299058  1  0  0.110871  0  0.947172  0  0  0.119709  0  1.008227  0  0  0.123468  0  1.00667  0  0  0.107906  0.116928  0  1.009596  0
H  H11  1  0.63332894  0.71170518  0.82700787  1  0  0.110902  0  0.947125  0  0  0.119722  0  1.008195  0  0  0.123481  0  1.006638  0  0  0.107926  0.116943  0  1.009565  0
H  H12  1  0.44119355  0.24021175  0.65519973  1  0  0.079758  0  0.961837  0  0  0.089354  0  1.024303  0  0  0.090667  0  1.023821  0  0  0.120074  0.088266  0  1.024767  0
H  H13  1  0.55880619  0.75978843  0.34480049  1  0  0.079753  0  0.961859  0  0  0.089325  0  1.024342  0  0  0.090637  0  1.023864  0  0  0.120058  0.08824  0  1.02481  0
H  H14  1  0.44392276  0.29856690  0.33171948  1  0  0.098183  0  0.952776  0  0  0.103651  0  1.017844  0  0  0.10642  0  1.015155  0  0  0.12441  0.101347  0  1.020149  0
H  H15  1  0.55607698  0.70143329  0.66827999  1  0  0.098171  0  0.952798  0  0  0.103634  0  1.017859  0  0  0.106399  0  1.01518  0  0  0.124402  0.101314  0  1.020183  0
H  H16  1  0.09774562  0.31659116  0.32896943  1  0  0.11451  0  0.952192  0  0  0.122124  0  1.020016  0  0  0.126222  0  1.016981  0  0  0.104514  0.119157  0  1.022227  0
H  H17  1  0.90225525  0.68340902  0.67102828  1  0  0.114497  0  0.952186  0  0  0.122086  0  1.020045  0  0  0.126183  0  1.017011  0  0  0.104506  0.119118  0  1.022257  0
H  H18  1  0.89106567  0.96214209  0.57148710  1  0  0.102883  0  0.934009  0  0  0.10982  0  0.997269  0  0  0.112751  0  0.994427  0  0  0.124288  0.107492  0  0.999698  0
H  H19  1  0.10893406  0.03785809  0.42851312  1  0  0.102874  0  0.934024  0  0  0.109828  0  0.997268  0  0  0.11276  0  0.994425  0  0  0.124285  0.107499  0  0.999697  0
H  H20  1  0.86479314  0.99218560  0.22434179  1  0  0.086761  0  0.928614  0  0  0.096383  0  0.987626  0  0  0.099262  0  0.984949  0  0  0.119154  0.094169  0  0.989682  0
H  H21  1  0.13520659  0.00781458  0.77565843  1  0  0.086755  0  0.928629  0  0  0.096379  0  0.987641  0  0  0.099246  0  0.984979  0  0  0.119159  0.094164  0  0.989698  0
H  H22  1  0.40523955  0.19262494  0.84657865  1  0  0.098451  0  0.949623  0  0  0.112069  0  1.002961  0  0  0.115089  0  1.002313  0  0  0.106112  0.109854  0  1.003629  0
H  H23  1  0.59475871  0.80737627  0.15342256  1  0  0.098463  0  0.949597  0  0  0.11208  0  1.002935  0  0  0.115098  0  1.00229  0  0  0.106115  0.109867  0  1.003603  0
H  H24  1  0.87813832  0.90532197  0.75742983  1  0  0.117609  0  0.950115  0  0  0.126001  0  1.011971  0  0  0.129939  0  1.009984  0  0  0.10826  0.123101  0  1.013613  0
H  H25  1  0.12185947  0.09467720  0.24257168  1  0  0.117634  0  0.950151  0  0  0.126013  0  1.012012  0  0  0.12996  0  1.010014  0  0  0.108274  0.123113  0  1.013652  0
H  H26  1  0.80827296  0.96802628  0.05884053  1  0  0.096441  0  0.960933  0  0  0.107851  0  1.018902  0  0  0.111019  0  1.018085  0  0  0.102123  0.105546  0  1.019654  0
H  H27  1  0.19172598  0.03197289  0.94115997  1  0  0.096442  0  0.960901  0  0  0.107843  0  1.018883  0  0  0.111009  0  1.018066  0  0  0.102108  0.105538  0  1.019633  0
H  H28  1  0.28625724  0.68565905  0.24258695  1  0  0.067582  0  0.954078  0  0  0.082657  0  1.022779  0  0  0.082978  0  1.023037  0  0  0.087966  0.08235  0  1.022753  0
H  H29  1  0.71374249  0.31434113  0.75741402  1  0  0.067575  0  0.954052  0  0  0.082648  0  1.022773  0  0  0.082968  0  1.023032  0  0  0.087954  0.08234  0  1.022748  0
H  H30  1  0.45369262  0.54738920  0.25612834  1  0  0.092042  0  0.922236  0  0  0.111216  0  0.981692  0  0  0.111913  0  0.981204  0  0  0.10395  0.110604  0  0.982132  0
H  H31  1  0.54630678  0.45261201  0.74387261  1  0  0.092046  0  0.92221  0  0  0.111216  0  0.981687  0  0  0.111914  0  0.981199  0  0  0.103938  0.110604  0  0.982127  0
H  H32  1  0.30432970  0.62778595  0.37196445  1  0  0.094929  0  0.952707  0  0  0.110405  0  1.019535  0  0  0.110108  0  1.021088  0  0  0.100721  0.110482  0  1.018517  0
H  H33  1  0.69567037  0.37221321  0.62803503  1  0  0.094883  0  0.952737  0  0  0.110461  0  1.019461  0  0  0.110164  0  1.021014  0  0  0.100754  0.110538  0  1.018444  0
C  C34  1  0.51041971  0.09616085  0.02229356  1  0  -0.055439  0  3.530998  0  0  -0.067418  0  3.766848  0  0  -0.068576  0  3.780286  0  0  -0.068949  -0.066433  0  3.757367  0
C  C35  1  0.48958151  0.90383830  0.97770567  1  0  -0.05555  0  3.530987  0  0  -0.067491  0  3.76686  0  0  -0.068647  0  3.780298  0  0  -0.068972  -0.066504  0  3.757381  0
C  C36  1  0.75937527  0.57337610  0.43062246  1  0  -0.108949  0  3.686474  0  0  -0.14985  0  3.940773  0  0  -0.148097  0  3.958129  0  0  -0.094626  -0.151233  0  3.930213  0
C  C37  1  0.24062595  0.42662306  0.56937676  1  0  -0.108982  0  3.68651  0  0  -0.149893  0  3.940822  0  0  -0.148137  0  3.958174  0  0  -0.094649  -0.151281  0  3.930255  0
C  C38  1  0.99142169  0.65862501  0.37070137  1  0  -0.192846  0  3.724826  0  0  -0.227252  0  3.973677  0  0  -0.229147  0  3.991959  0  0  -0.104794  -0.22511  0  3.960876  0
C  C39  1  0.00857838  0.34137415  0.62929886  1  0  -0.19283  0  3.724757  0  0  -0.227241  0  3.973583  0  0  -0.229136  0  3.991864  0  0  -0.104778  -0.2251  0  3.960781  0
C  C40  1  0.47962481  0.22065105  0.17954888  1  0  -0.170192  0  3.712589  0  0  -0.191143  0  3.967087  0  0  -0.200129  0  3.988909  0  0  -0.086636  -0.185485  0  3.952784  0
C  C41  1  0.52037572  0.77935016  0.82044956  1  0  -0.170207  0  3.712516  0  0  -0.191105  0  3.967042  0  0  -0.200089  0  3.988862  0  0  -0.086617  -0.185451  0  3.952741  0
C  C42  1  0.63744608  0.04130220  0.82060766  1  0  0.111562  0  3.760062  0  0  0.120973  0  4.001521  0  0  0.125933  0  4.024971  0  0  0.003504  0.117938  0  3.985422  0
C  C43  1  0.36255252  0.95869799  0.17939207  1  0  0.11154  0  3.760104  0  0  0.120947  0  4.001573  0  0  0.125906  0  4.025027  0  0  0.003513  0.117922  0  3.98548  0
C  C44  1  0.61355405  0.99212288  0.93352189  1  0  -0.058194  0  3.53591  0  0  -0.072204  0  3.773839  0  0  -0.073474  0  3.787238  0  0  -0.072034  -0.071234  0  3.764403  0
C  C45  1  0.38644569  0.00787730  0.06647833  1  0  -0.058117  0  3.535785  0  0  -0.072147  0  3.773734  0  0  -0.073419  0  3.787133  0  0  -0.072031  -0.071221  0  3.764364  0
C  C46  1  0.57757147  0.12226272  0.10310635  1  0  0.118005  0  3.7544  0  0  0.129845  0  3.992592  0  0  0.134906  0  4.016321  0  0  0.004017  0.126681  0  3.976361  0
C  C47  1  0.42242941  0.87773746  0.89689286  1  0  0.118055  0  3.754334  0  0  0.129773  0  3.992674  0  0  0.134831  0  4.01641  0  0  0.003948  0.126609  0  3.976449  0
C  C48  1  0.53440024  0.16614920  0.68187070  1  0  0.143483  0  3.699154  0  0  0.11513  0  3.944579  0  0  0.122379  0  3.963876  0  0  0.053591  0.110478  0  3.931338  0
C  C49  1  0.46559916  0.83385201  0.31812950  1  0  0.143439  0  3.699136  0  0  0.115101  0  3.944573  0  0  0.12235  0  3.963868  0  0  0.053611  0.110444  0  3.931337  0
C  C50  1  0.52181139  0.22791614  0.26871422  1  0  0.152859  0  3.676521  0  0  0.120083  0  3.928416  0  0  0.128454  0  3.945529  0  0  0.053421  0.114601  0  3.917145  0
C  C51  1  0.47818915  0.77208506  0.73128497  1  0  0.152847  0  3.676501  0  0  0.120083  0  3.928367  0  0  0.128455  0  3.945476  0  0  0.053419  0.114614  0  3.917105  0
C  C52  1  0.79123424  0.32327957  0.41169366  1  0  0.609821  0  3.947961  0  0  0.56529  0  4.235713  0  0  0.598953  0  4.229258  0  0  0.185834  0.542526  0  4.238943  0
C  C53  1  0.20876732  0.67671857  0.58830559  1  0  0.60981  0  3.948012  0  0  0.565288  0  4.235747  0  0  0.598951  0  4.229293  0  0  0.185813  0.542526  0  4.238976  0
C  C54  1  0.02171885  0.41954612  0.35182775  1  0  -0.171905  0  3.709494  0  0  -0.209341  0  3.963639  0  0  -0.210243  0  3.980495  0  0  -0.096852  -0.207831  0  3.95186  0
C  C55  1  0.97827941  0.58045509  0.64817272  1  0  -0.171793  0  3.70941  0  0  -0.209225  0  3.963557  0  0  -0.210126  0  3.980415  0  0  -0.09684  -0.207716  0  3.951781  0
C  C56  1  0.78564212  0.01268868  0.63444570  1  0  0.158897  0  3.649578  0  0  0.126825  0  3.899689  0  0  0.134762  0  3.91677  0  0  0.060308  0.121549  0  3.888556  0
C  C57  1  0.21435796  0.98731048  0.36555529  1  0  0.158874  0  3.649593  0  0  0.126774  0  3.899727  0  0  0.134709  0  3.916811  0  0  0.060264  0.121499  0  3.88859  0
C  C58  1  0.85805130  0.44216288  0.39704776  1  0  -0.039557  0  3.785113  0  0  -0.014074  0  4.02021  0  0  -0.021223  0  4.042845  0  0  -0.023497  -0.009826  0  4.005612  0
C  C59  1  0.14194992  0.55783628  0.60295221  1  0  -0.039661  0  3.785118  0  0  -0.01418  0  4.020226  0  0  -0.021331  0  4.042863  0  0  -0.023518  -0.009934  0  4.005631  0
C  C60  1  0.82667033  0.68119678  0.41674196  1  0  -0.054393  0  3.777809  0  0  -0.028516  0  4.015503  0  0  -0.036242  0  4.038648  0  0  -0.024696  -0.023673  0  4.000345  0
C  C61  1  0.17333089  0.31880237  0.58325877  1  0  -0.054362  0  3.777783  0  0  -0.028494  0  4.015488  0  0  -0.036223  0  4.038635  0  0  -0.024704  -0.023652  0  4.000331  0
C  C62  1  0.75712059  0.05727458  0.20811349  1  0  0.133551  0  3.721154  0  0  0.103063  0  3.971292  0  0  0.110388  0  3.990201  0  0  0.048045  0.098444  0  3.958313  0
C  C63  1  0.24287915  0.94272560  0.79188673  1  0  0.133552  0  3.721145  0  0  0.103056  0  3.971286  0  0  0.110389  0  3.990194  0  0  0.048044  0.098438  0  3.958308  0
C  C64  1  0.08846367  0.52741716  0.33873851  1  0  0.259187  0  3.83281  0  0  0.256102  0  4.089844  0  0  0.264727  0  4.106904  0  0  0.07694  0.24984  0  4.078041  0
C  C65  1  0.91153687  0.47258404  0.66126143  1  0  0.25917  0  3.832798  0  0  0.256113  0  4.089765  0  0  0.264738  0  4.106824  0  0  0.076972  0.24985  0  4.077961  0
C  C66  1  0.51625039  0.13922136  0.78900788  1  0  -0.178909  0  3.744001  0  0  -0.195434  0  3.993218  0  0  -0.203897  0  4.015693  0  0  -0.088558  -0.189898  0  3.978043  0
C  C67  1  0.48374901  0.86077985  0.21099232  1  0  -0.178874  0  3.743979  0  0  -0.195397  0  3.993191  0  0  -0.203856  0  4.015665  0  0  -0.088548  -0.18986  0  3.978012  0
C  C68  1  0.77662346  0.98082189  0.74039483  1  0  -0.170269  0  3.695501  0  0  -0.189311  0  3.947459  0  0  -0.19793  0  3.968535  0  0  -0.083789  -0.18384  0  3.93379  0
C  C69  1  0.22337514  0.01917829  0.25960565  1  0  -0.170283  0  3.69553  0  0  -0.189308  0  3.947497  0  0  -0.197935  0  3.968567  0  0  -0.0838  -0.183837  0  3.933823  0
C  C70  1  0.72322083  0.04392488  0.11633234  1  0  -0.19313  0  3.763477  0  0  -0.211683  0  4.014937  0  0  -0.221094  0  4.038312  0  0  -0.096891  -0.205573  0  3.999173  0
C  C71  1  0.27677924  0.95607428  0.88366790  1  0  -0.19313  0  3.76341  0  0  -0.211631  0  4.014898  0  0  -0.221038  0  4.038269  0  0  -0.096851  -0.205518  0  3.999131  0
C  C72  1  0.32612556  0.59595714  0.29134162  1  0  -0.078065  0  3.661098  0  0  -0.174242  0  3.92795  0  0  -0.167552  0  3.932344  0  0  -0.14476  -0.178556  0  3.924734  0
C  C73  1  0.67387498  0.40404407  0.70865832  1  0  -0.078024  0  3.661021  0  0  -0.17431  0  3.927872  0  0  -0.167622  0  3.932266  0  0  -0.144775  -0.178624  0  3.924656  0
C  C74  1  0.72410887  0.82386578  0.45024302  1  0  0.659811  0  3.886592  0  0  0.607855  0  4.181521  0  0  0.64328  0  4.172127  0  0  0.211289  0.583588  0  4.187209  0
C  C75  1  0.27589121  0.17613337  0.54975722  1  0  0.659852  0  3.886612  0  0  0.607898  0  4.181537  0  0  0.643322  0  4.172142  0  0  0.211274  0.583629  0  4.187227  0
N  N76  1  0.65567656  0.14393182  0.28488330  1  0  -0.307718  0  3.258092  0  0  -0.229986  0  3.517389  0  0  -0.249381  0  3.534411  0  0  -0.316648  -0.216994  0  3.505748  0
N  N77  1  0.34432318  0.85606837  0.71511617  1  0  -0.30773  0  3.258062  0  0  -0.229995  0  3.517357  0  0  -0.249388  0  3.534374  0  0  -0.316662  -0.217003  0  3.505713  0
N  N78  1  0.66505955  0.10153965  0.60550604  1  0  -0.318115  0  3.27502  0  0  -0.239496  0  3.537318  0  0  -0.259072  0  3.554484  0  0  -0.316339  -0.226359  0  3.525693  0
N  N79  1  0.33494053  0.89845951  0.39449420  1  0  -0.318075  0  3.275016  0  0  -0.239446  0  3.537311  0  0  -0.259022  0  3.554477  0  0  -0.31632  -0.226311  0  3.525689  0
O  O80  1  0.64066917  0.34441959  0.44670276  1  0  -0.625912  0  1.976393  0  0  -0.570309  0  2.222617  0  0  -0.59691  0  2.212113  0  0  -0.324368  -0.550869  0  2.228544  0
O  O81  1  0.35933205  0.65557956  0.55329647  1  0  -0.625932  0  1.976443  0  0  -0.570318  0  2.222646  0  0  -0.596916  0  2.212141  0  0  -0.32436  -0.550873  0  2.228565  0
O  O82  1  0.79024148  0.92003110  0.41682681  1  0  -0.640939  0  2.054753  0  0  -0.574937  0  2.320631  0  0  -0.602917  0  2.306546  0  0  -0.319372  -0.554561  0  2.330312  0
O  O83  1  0.20975711  0.07996909  0.58317367  1  0  -0.640965  0  2.054698  0  0  -0.574972  0  2.320586  0  0  -0.602954  0  2.306506  0  0  -0.319366  -0.554595  0  2.330265  0
O  O84  1  0.88655254  0.20322051  0.38988582  1  0  -0.646016  0  1.9532  0  0  -0.592528  0  2.195616  0  0  -0.618762  0  2.185662  0  0  -0.331102  -0.572946  0  2.202255  0
O  O85  1  0.11344787  0.79677763  0.61011368  1  0  -0.645966  0  1.953188  0  0  -0.592493  0  2.195607  0  0  -0.618726  0  2.185653  0  0  -0.331083  -0.572911  0  2.202246  0
O  O86  1  0.58191364  0.84073039  0.50848695  1  0  -0.651792  0  2.123628  0  0  -0.592523  0  2.405142  0  0  -0.618233  0  2.389839  0  0  -0.321119  -0.573645  0  2.414429  0
O  O87  1  0.41808677  0.15926775  0.49151330  1  0  -0.651815  0  2.123698  0  0  -0.592538  0  2.405215  0  0  -0.618249  0  2.389906  0  0  -0.32111  -0.573662  0  2.414505  0
O  O88  1  0.25015687  0.49397534  0.29348611  1  0  -0.26473  0  2.372416  0  0  -0.186158  0  2.607623  0  0  -0.203901  0  2.610907  0  0  -0.191282  -0.173614  0  2.604878  0
O  O89  1  0.74984367  0.50602587  0.70651383  1  0  -0.264757  0  2.372388  0  0  -0.186153  0  2.607581  0  0  -0.203893  0  2.61086  0  0  -0.191287  -0.173605  0  2.60483  0
