# generated using pymatgen
data_Ag2H4C7SO5
_symmetry_space_group_name_H-M   'P 1'
_cell_length_a   8.38576604
_cell_length_b   9.87184350
_cell_length_c   11.02818428
_cell_angle_alpha   103.87197023
_cell_angle_beta   90.00007763
_cell_angle_gamma   89.99981783
_symmetry_Int_Tables_number   1
_chemical_formula_structural   Ag2H4C7SO5
_chemical_formula_sum   'Ag8 H16 C28 S4 O20'
_cell_volume   886.31876704
_cell_formula_units_Z   4
loop_
 _symmetry_equiv_pos_site_id
 _symmetry_equiv_pos_as_xyz
  1  'x, y, z'
loop_
 _atom_site_type_symbol
 _atom_site_label
 _atom_site_symmetry_multiplicity
 _atom_site_fract_x
 _atom_site_fract_y
 _atom_site_fract_z
 _atom_site_occupancy
 _atom_site_pbe_bader_spin_density
 _atom_site_pbe_cm5_charge
 _atom_site_pbe_ddec_charge
 _atom_site_pbe_ddec_spin_density
 _atom_site_pbe_ddec_sum_bond_order
 _atom_site_pbe_magmom
Ag  Ag0  1  0.64102348  0.02821056  0.44745020  1  0  0.431624  0.546827  0  1.839816  0
Ag  Ag1  1  0.14102310  0.47178876  0.55254915  1  0  0.431628  0.546838  0  1.839777  0
Ag  Ag2  1  0.35897840  0.97178812  0.55254851  1  0  0.431617  0.546819  0  1.839848  0
Ag  Ag3  1  0.85897639  0.52821096  0.44745159  1  0  0.431631  0.546825  0  1.839784  0
Ag  Ag4  1  0.00606976  0.82328065  0.34079531  1  0  0.464574  0.622682  0  1.56416  0
Ag  Ag5  1  0.50606996  0.67672038  0.65920485  1  0  0.464578  0.622682  0  1.564117  0
Ag  Ag6  1  0.99393092  0.17671907  0.65920544  1  0  0.464576  0.622672  0  1.564142  0
Ag  Ag7  1  0.49393072  0.32328038  0.34079431  1  0  0.464578  0.622673  0  1.564105  0
H  H8  1  0.41880431  0.99053438  0.06642574  1  0  0.102261  0.103088  0  1.03481  0
H  H9  1  0.91880324  0.50946559  0.93357372  1  0  0.10225  0.103074  0  1.034785  0
H  H10  1  0.58119638  0.00946534  0.93357320  1  0  0.102257  0.10308  0  1.034773  0
H  H11  1  0.08119626  0.49053517  0.06642544  1  0  0.102268  0.103105  0  1.034735  0
H  H12  1  0.89879769  0.23440181  0.10555205  1  0  0.102911  0.107077  0  1.043745  0
H  H13  1  0.39879631  0.26559789  0.89444765  1  0  0.102902  0.10706  0  1.043727  0
H  H14  1  0.10120181  0.76559687  0.89444575  1  0  0.102906  0.107077  0  1.043735  0
H  H15  1  0.60120438  0.73440392  0.10555536  1  0  0.102905  0.107071  0  1.043749  0
H  H16  1  0.04312830  0.18548261  0.90227571  1  0  0.091757  0.074188  0  1.062327  0
H  H17  1  0.54312817  0.31451904  0.09772404  1  0  0.091764  0.074234  0  1.062322  0
H  H18  1  0.95687119  0.81451606  0.09772300  1  0  0.091764  0.074207  0  1.062311  0
H  H19  1  0.45687251  0.68548172  0.90227693  1  0  0.09176  0.074208  0  1.062328  0
H  H20  1  0.29783990  0.05220936  0.87917777  1  0  0.106311  0.115473  0  0.998823  0
H  H21  1  0.79783932  0.44779060  0.12082278  1  0  0.106305  0.115473  0  0.998815  0
H  H22  1  0.70215959  0.94779036  0.12082207  1  0  0.106313  0.115488  0  0.998794  0
H  H23  1  0.20216136  0.55220912  0.87917796  1  0  0.106312  0.115475  0  0.998825  0
C  C24  1  0.07641273  0.13866205  0.19763068  1  0  -0.014071  -0.097767  0  3.923952  0
C  C25  1  0.57641130  0.36133847  0.80236977  1  0  -0.014029  -0.097687  0  3.923926  0
C  C26  1  0.92358676  0.86133871  0.80236757  1  0  -0.014078  -0.097785  0  3.924013  0
C  C27  1  0.42358819  0.63866229  0.19763120  1  0  -0.014076  -0.097764  0  3.923991  0
C  C28  1  0.30473660  0.04436221  0.07323940  1  0  -0.088814  -0.10918  0  3.971364  0
C  C29  1  0.80473743  0.45563773  0.92676116  1  0  -0.08881  -0.1092  0  3.971369  0
C  C30  1  0.69526408  0.95563856  0.92676067  1  0  -0.088816  -0.109209  0  3.971367  0
C  C31  1  0.19526445  0.54436303  0.07323890  1  0  -0.088797  -0.109177  0  3.971335  0
C  C32  1  0.22612368  0.07320475  0.18881665  1  0  -0.010947  -0.041702  0  3.9653  0
C  C33  1  0.72612440  0.42679644  0.81118410  1  0  -0.010933  -0.041663  0  3.965225  0
C  C34  1  0.77387581  0.92679497  0.81118319  1  0  -0.010948  -0.041712  0  3.965313  0
C  C35  1  0.27387628  0.57320537  0.18881710  1  0  -0.010936  -0.041699  0  3.965254  0
C  C36  1  0.01314941  0.18103061  0.09535258  1  0  -0.084298  -0.086182  0  3.97035  0
C  C37  1  0.51314832  0.31897112  0.90464716  1  0  -0.084313  -0.086173  0  3.970376  0
C  C38  1  0.98685128  0.81897015  0.90464658  1  0  -0.084267  -0.08612  0  3.970274  0
C  C39  1  0.48685236  0.68103069  0.09535403  1  0  -0.084305  -0.086179  0  3.970342  0
C  C40  1  0.09440222  0.15334486  0.98205309  1  0  -0.086049  -0.059318  0  3.980609  0
C  C41  1  0.59439945  0.34665666  0.01794850  1  0  -0.086036  -0.059375  0  3.980534  0
C  C42  1  0.90559727  0.84665486  0.01794675  1  0  -0.086063  -0.05938  0  3.980575  0
C  C43  1  0.40560005  0.65334306  0.98205315  1  0  -0.086026  -0.059323  0  3.980514  0
C  C44  1  0.23869328  0.08085285  0.96971266  1  0  -0.081348  -0.063044  0  3.969668  0
C  C45  1  0.73869264  0.41914726  0.03028787  1  0  -0.08136  -0.063056  0  3.969563  0
C  C46  1  0.76130502  0.91914582  0.03028696  1  0  -0.081331  -0.063011  0  3.969604  0
C  C47  1  0.26130685  0.58085246  0.96971197  1  0  -0.081371  -0.063075  0  3.969636  0
C  C48  1  0.31365908  0.03642834  0.29534473  1  0  0.210983  0.592242  0  4.16047  0
C  C49  1  0.81365709  0.46357366  0.70465538  1  0  0.210951  0.592211  0  4.160482  0
C  C50  1  0.68634161  0.96357242  0.70465443  1  0  0.21096  0.592261  0  4.160446  0
C  C51  1  0.18634240  0.53642814  0.29534673  1  0  0.210987  0.592298  0  4.160426  0
S  S52  1  0.95686904  0.16632453  0.33494293  1  0  0.509089  1.176145  0  6.105962  0
S  S53  1  0.45687057  0.33367606  0.66505612  1  0  0.509059  1.176087  0  6.106027  0
S  S54  1  0.04313045  0.83367519  0.66505601  1  0  0.509062  1.176138  0  6.106018  0
S  S55  1  0.54312892  0.66632366  0.33494463  1  0  0.509042  1.176071  0  6.10605  0
O  O56  1  0.87916262  0.02785005  0.32748815  1  0  -0.353023  -0.605027  0  2.476125  0
O  O57  1  0.37916245  0.47214970  0.67251154  1  0  -0.35299  -0.604975  0  2.476107  0
O  O58  1  0.12083807  0.97214967  0.67251078  1  0  -0.353005  -0.605  0  2.476118  0
O  O59  1  0.62083585  0.52785107  0.32748853  1  0  -0.352985  -0.604942  0  2.476093  0
O  O60  1  0.25429253  0.95374041  0.35474504  1  0  -0.310203  -0.53322  0  2.480075  0
O  O61  1  0.75429319  0.54625894  0.64525592  1  0  -0.310196  -0.533211  0  2.48012  0
O  O62  1  0.74570696  0.04625931  0.64525480  1  0  -0.31019  -0.533212  0  2.480109  0
O  O63  1  0.24570749  0.45374182  0.35474505  1  0  -0.310204  -0.533238  0  2.480103  0
O  O64  1  0.83667350  0.27101649  0.32522971  1  0  -0.332785  -0.591338  0  2.323435  0
O  O65  1  0.33667305  0.22898337  0.67476996  1  0  -0.332806  -0.591383  0  2.323398  0
O  O66  1  0.16332600  0.72898427  0.67477035  1  0  -0.33279  -0.591356  0  2.323478  0
O  O67  1  0.66332644  0.77101635  0.32523079  1  0  -0.332791  -0.591374  0  2.323405  0
O  O68  1  0.45330992  0.09030540  0.31605593  1  0  -0.324859  -0.543069  0  2.488177  0
O  O69  1  0.95330929  0.40969311  0.68394448  1  0  -0.324865  -0.543073  0  2.488139  0
O  O70  1  0.54668957  0.90969536  0.68394414  1  0  -0.324861  -0.543088  0  2.488122  0
O  O71  1  0.04668901  0.59030661  0.31605536  1  0  -0.32487  -0.543116  0  2.488154  0
O  O72  1  0.06461903  0.20623059  0.44231917  1  0  -0.333114  -0.607871  0  2.423569  0
O  O73  1  0.56461980  0.29376996  0.55768219  1  0  -0.333106  -0.607854  0  2.423618  0
O  O74  1  0.93538046  0.79377017  0.55768090  1  0  -0.333114  -0.607885  0  2.423585  0
O  O75  1  0.43538088  0.70622975  0.44231856  1  0  -0.333105  -0.607838  0  2.423641  0
