# generated using pymatgen
data_H9PbC3S2N(O2F)2
_symmetry_space_group_name_H-M   'P 1'
_cell_length_a   7.51198508
_cell_length_b   7.40305510
_cell_length_c   10.04919153
_cell_angle_alpha   96.72638231
_cell_angle_beta   104.73157021
_cell_angle_gamma   104.79146668
_symmetry_Int_Tables_number   1
_chemical_formula_structural   H9PbC3S2N(O2F)2
_chemical_formula_sum   'H18 Pb2 C6 S4 N2 O8 F4'
_cell_volume   512.57121713
_cell_formula_units_Z   2
loop_
 _symmetry_equiv_pos_site_id
 _symmetry_equiv_pos_as_xyz
  1  'x, y, z'
loop_
 _atom_site_type_symbol
 _atom_site_label
 _atom_site_symmetry_multiplicity
 _atom_site_fract_x
 _atom_site_fract_y
 _atom_site_fract_z
 _atom_site_occupancy
 _atom_site_hle17_bader_spin_density
 _atom_site_hle17_ddec_charge
 _atom_site_hle17_ddec_spin_density
 _atom_site_hle17_ddec_sum_bond_order
 _atom_site_hle17_magmom
 _atom_site_hse06_10hf_bader_spin_density
 _atom_site_hse06_10hf_ddec_charge
 _atom_site_hse06_10hf_ddec_spin_density
 _atom_site_hse06_10hf_ddec_sum_bond_order
 _atom_site_hse06_10hf_magmom
 _atom_site_hse06_bader_spin_density
 _atom_site_hse06_ddec_charge
 _atom_site_hse06_ddec_spin_density
 _atom_site_hse06_ddec_sum_bond_order
 _atom_site_hse06_magmom
 _atom_site_pbe_bader_spin_density
 _atom_site_pbe_cm5_charge
 _atom_site_pbe_ddec_charge
 _atom_site_pbe_ddec_spin_density
 _atom_site_pbe_ddec_sum_bond_order
 _atom_site_pbe_magmom
H  H0  1  0.58699864  0.38854719  0.55941692  1  0  0.148759  0  1.003025  0  0  0.16459  0  1.064623  0  0  0.16661  0  1.066045  0  0  0.082199  0.162993  0  1.063879  0
H  H1  1  0.41298299  0.61141255  0.44059491  1  0  0.148651  0  1.003149  0  0  0.164524  0  1.064709  0  0  0.166545  0  1.066129  0  0  0.082162  0.162929  0  1.063958  0
H  H2  1  0.82916200  0.38346219  0.57098161  1  0  0.160843  0  0.993721  0  0  0.174818  0  1.054858  0  0  0.177818  0  1.054458  0  0  0.084609  0.172552  0  1.055415  0
H  H3  1  0.17081813  0.61651166  0.42901223  1  0  0.160722  0  0.993653  0  0  0.174717  0  1.054768  0  0  0.177723  0  1.05437  0  0  0.084595  0.172444  0  1.055334  0
H  H4  1  0.64894913  0.17080848  0.57325014  1  0  0.153857  0  1.005069  0  0  0.16949  0  1.066065  0  0  0.17183  0  1.067164  0  0  0.085266  0.16767  0  1.065509  0
H  H5  1  0.35104317  0.82914998  0.42673177  1  0  0.153703  0  1.005066  0  0  0.169301  0  1.06617  0  0  0.171644  0  1.067264  0  0  0.085145  0.167481  0  1.065614  0
H  H6  1  0.82976543  0.57121102  0.27353199  1  0  0.163006  0  0.979607  0  0  0.17761  0  1.038358  0  0  0.180512  0  1.038104  0  0  0.086185  0.175136  0  1.039239  0
H  H7  1  0.17023402  0.42882133  0.72651432  1  0  0.162858  0  0.979723  0  0  0.177491  0  1.038442  0  0  0.180393  0  1.038182  0  0  0.086134  0.175031  0  1.039308  0
H  H8  1  0.58315325  0.54282767  0.17767293  1  0  0.164179  0  0.986951  0  0  0.181321  0  1.042913  0  0  0.183853  0  1.043529  0  0  0.089667  0.179363  0  1.042692  0
H  H9  1  0.41685772  0.45721617  0.82234670  1  0  0.16411  0  0.986889  0  0  0.181221  0  1.042927  0  0  0.183752  0  1.04354  0  0  0.089641  0.179249  0  1.042725  0
H  H10  1  0.72105968  0.41715390  0.10288135  1  0  0.167514  0  0.984435  0  0  0.181329  0  1.044457  0  0  0.184359  0  1.044296  0  0  0.088801  0.179042  0  1.044794  0
H  H11  1  0.27897632  0.58291025  0.89715374  1  0  0.167423  0  0.984426  0  0  0.181193  0  1.044552  0  0  0.184219  0  1.044386  0  0  0.088762  0.178905  0  1.044889  0
H  H12  1  0.59715846  0.92099516  0.11376817  1  0  0.178438  0  0.982873  0  0  0.194318  0  1.03869  0  0  0.197315  0  1.039013  0  0  0.093374  0.192099  0  1.038772  0
H  H13  1  0.40285897  0.07903743  0.88622586  1  0  0.178399  0  0.982703  0  0  0.194273  0  1.03855  0  0  0.197269  0  1.038874  0  0  0.093368  0.19206  0  1.038625  0
H  H14  1  0.35862705  0.89284012  0.13240406  1  0  0.176334  0  0.989514  0  0  0.189679  0  1.050362  0  0  0.192726  0  1.050163  0  0  0.089022  0.187445  0  1.050629  0
H  H15  1  0.64137718  0.10716530  0.86757518  1  0  0.176298  0  0.98959  0  0  0.189645  0  1.050442  0  0  0.192694  0  1.050238  0  0  0.088996  0.187408  0  1.050712  0
H  H16  1  0.54192908  0.84129553  0.26553940  1  0  0.166472  0  0.995286  0  0  0.182183  0  1.05299  0  0  0.184769  0  1.053552  0  0  0.089318  0.180258  0  1.052863  0
H  H17  1  0.45808334  0.15872421  0.73444759  1  0  0.166499  0  0.995322  0  0  0.182218  0  1.052996  0  0  0.184809  0  1.053547  0  0  0.089354  0.180289  0  1.052881  0
Pb  Pb18  1  0.60700269  0.22854320  0.30072834  1  0  1.249927  0  2.471375  0  0  1.133936  0  2.955675  0  0  1.157642  0  2.948779  0  0  0.547144  1.118283  0  2.958869  0
Pb  Pb19  1  0.39297986  0.77147319  0.69926661  1  0  1.249846  0  2.471514  0  0  1.133773  0  2.955835  0  0  1.157453  0  2.949013  0  0  0.547153  1.118168  0  2.958944  0
C  C20  1  0.67632771  0.30269264  0.53311132  1  0  -0.651396  0  3.459573  0  0  -0.695036  0  3.696709  0  0  -0.704636  0  3.704491  0  0  -0.331487  -0.688328  0  3.691764  0
C  C21  1  0.32366424  0.69727434  0.46688618  1  0  -0.651025  0  3.459525  0  0  -0.694689  0  3.696613  0  0  -0.704294  0  3.704408  0  0  -0.33135  -0.687974  0  3.691663  0
C  C22  1  0.69683023  0.47393315  0.19985843  1  0  -0.634604  0  3.427853  0  0  -0.677407  0  3.661959  0  0  -0.686747  0  3.669647  0  0  -0.319651  -0.670821  0  3.657376  0
C  C23  1  0.30318270  0.52610791  0.80017228  1  0  -0.63429  0  3.427549  0  0  -0.677025  0  3.661732  0  0  -0.686371  0  3.669467  0  0  -0.319575  -0.670445  0  3.657149  0
C  C24  1  0.51258525  0.92864449  0.18701849  1  0  -0.645898  0  3.391363  0  0  -0.685412  0  3.613374  0  0  -0.695265  0  3.620844  0  0  -0.316566  -0.678773  0  3.608686  0
C  C25  1  0.48742855  0.07137529  0.81296976  1  0  -0.645764  0  3.391372  0  0  -0.685296  0  3.613446  0  0  -0.695147  0  3.620915  0  0  -0.31656  -0.678659  0  3.608761  0
S  S26  1  0.14086539  0.26873718  0.10637298  1  0  1.466976  0  5.554438  0  0  1.337782  0  6.127831  0  0  1.395807  0  6.093803  0  0  0.641085  1.297949  0  6.150869  0
S  S27  1  0.85916698  0.73128013  0.89363750  1  0  1.465612  0  5.551426  0  0  1.336589  0  6.124786  0  0  1.394648  0  6.090765  0  0  0.640661  1.29671  0  6.147842  0
S  S28  1  0.11798005  0.15301714  0.35784026  1  0  1.491042  0  5.582492  0  0  1.359871  0  6.148601  0  0  1.417284  0  6.115295  0  0  0.655506  1.318869  0  6.173332  0
S  S29  1  0.88202314  0.84694575  0.64212419  1  0  1.489633  0  5.580956  0  0  1.358368  0  6.147114  0  0  1.415766  0  6.113871  0  0  0.655018  1.317363  0  6.171825  0
N  N30  1  0.24213151  0.22216398  0.25589341  1  0  -0.82834  0  2.966601  0  0  -0.770309  0  3.293467  0  0  -0.795394  0  3.283886  0  0  -0.390213  -0.753287  0  3.300287  0
N  N31  1  0.75780619  0.77782042  0.74408530  1  0  -0.827671  0  2.96517  0  0  -0.769708  0  3.292003  0  0  -0.794781  0  3.282441  0  0  -0.389967  -0.752713  0  3.298877  0
O  O32  1  0.26562688  0.26191620  0.02113500  1  0  -0.559846  0  1.986022  0  0  -0.515963  0  2.234256  0  0  -0.53842  0  2.223646  0  0  -0.266273  -0.501081  0  2.241809  0
O  O33  1  0.73431462  0.73807683  0.97888994  1  0  -0.559522  0  1.984302  0  0  -0.515681  0  2.232485  0  0  -0.538157  0  2.221894  0  0  -0.266215  -0.500766  0  2.240025  0
O  O34  1  0.93707046  0.18044746  0.05361501  1  0  -0.581361  0  1.978634  0  0  -0.545755  0  2.236342  0  0  -0.56612  0  2.222565  0  0  -0.280335  -0.531989  0  2.245994  0
O  O35  1  0.06299304  0.81955337  0.94637611  1  0  -0.580588  0  1.97821  0  0  -0.545117  0  2.236011  0  0  -0.565499  0  2.222244  0  0  -0.27994  -0.531347  0  2.24567  0
O  O36  1  0.97528967  0.24980467  0.36429976  1  0  -0.630861  0  2.034332  0  0  -0.57073  0  2.294085  0  0  -0.593206  0  2.281156  0  0  -0.27959  -0.555734  0  2.303741  0
O  O37  1  0.02472771  0.75015000  0.63568261  1  0  -0.630378  0  2.034287  0  0  -0.569923  0  2.29389  0  0  -0.592387  0  2.280991  0  0  -0.279141  -0.554923  0  2.303535  0
O  O38  1  0.24397826  0.13589666  0.48556293  1  0  -0.576155  0  1.967677  0  0  -0.533432  0  2.215527  0  0  -0.554886  0  2.203753  0  0  -0.273277  -0.519275  0  2.224777  0
O  O39  1  0.75597679  0.86411498  0.51442538  1  0  -0.575379  0  1.967694  0  0  -0.532647  0  2.215611  0  0  -0.554102  0  2.203848  0  0  -0.272834  -0.518498  0  2.224863  0
F  F40  1  0.16465518  0.49257463  0.14983739  1  0  -0.29591  0  1.091537  0  0  -0.23317  0  1.260084  0  0  -0.244735  0  1.244521  0  0  -0.09375  -0.225236  0  1.271078  0
F  F41  1  0.83531284  0.50735648  0.85014153  1  0  -0.295978  0  1.090474  0  0  -0.233279  0  1.259013  0  0  -0.244845  0  1.243454  0  0  -0.093932  -0.225308  0  1.269981  0
F  F42  1  0.99421420  0.93894861  0.28058950  1  0  -0.283044  0  1.114767  0  0  -0.219767  0  1.283512  0  0  -0.231158  0  1.268493  0  0  -0.081116  -0.207201  0  1.288879  0
F  F43  1  0.00581361  0.06106721  0.71942894  1  0  -0.283093  0  1.11388  0  0  -0.219896  0  1.282684  0  0  -0.231289  0  1.267679  0  0  -0.081394  -0.207338  0  1.288063  0
