# generated using pymatgen
data_AlH14C21O5F2
_symmetry_space_group_name_H-M   'P 1'
_cell_length_a   6.66720401
_cell_length_b   21.59951950
_cell_length_c   25.43687091
_cell_angle_alpha   95.59987249
_cell_angle_beta   89.99977459
_cell_angle_gamma   90.00021692
_symmetry_Int_Tables_number   1
_chemical_formula_structural   AlH14C21O5F2
_chemical_formula_sum   'Al4 H56 C84 O20 F8'
_cell_volume   3645.64133013
_cell_formula_units_Z   4
loop_
 _symmetry_equiv_pos_site_id
 _symmetry_equiv_pos_as_xyz
  1  'x, y, z'
loop_
 _atom_site_type_symbol
 _atom_site_label
 _atom_site_symmetry_multiplicity
 _atom_site_fract_x
 _atom_site_fract_y
 _atom_site_fract_z
 _atom_site_occupancy
 _atom_site_pbe_bader_charge
 _atom_site_pbe_bader_spin_density
 _atom_site_pbe_cm5_charge
 _atom_site_pbe_ddec_charge
 _atom_site_pbe_ddec_spin_density
 _atom_site_pbe_ddec_sum_bond_order
 _atom_site_pbe_magmom
Al  Al0  1  0.21734252  0.25033352  0.24830091  1  2.500872  0  0.400571  1.640894  0  2.581718  0
Al  Al1  1  0.78267747  0.74965434  0.75170445  1  2.501055  0  0.400608  1.641204  0  2.581268  0
Al  Al2  1  0.71734969  0.24965696  0.25170551  1  2.501117  0  0.400495  1.640897  0  2.58183  0
Al  Al3  1  0.28267030  0.75033261  0.74829865  1  2.500785  0  0.400531  1.640761  0  2.581834  0
H  H4  1  0.01508605  0.46050138  0.27194896  1  0.043588  0  0.109142  0.114579  0  1.005463  0
H  H5  1  0.98490394  0.53949396  0.72804174  1  0.043471  0  0.109186  0.1146  0  1.00553  0
H  H6  1  0.51509326  0.03949717  0.22804024  1  0.04317  0  0.109211  0.114628  0  1.005553  0
H  H7  1  0.48490873  0.96050196  0.77194727  1  0.044177  0  0.109162  0.114648  0  1.005334  0
H  H8  1  0.94923363  0.37093322  0.49131366  1  0.138891  0  0.105753  0.140273  0  1.037556  0
H  H9  1  0.05064238  0.62907026  0.50867541  1  0.138489  0  0.105801  0.140216  0  1.03761  0
H  H10  1  0.44935919  0.12907400  0.00867386  1  0.138423  0  0.105812  0.1402  0  1.037715  0
H  H11  1  0.55068630  0.87093620  0.99131717  1  0.139058  0  0.105803  0.140314  0  1.037454  0
H  H12  1  0.68548574  0.15956114  0.38676936  1  0.103962  0  0.107457  0.11457  0  1.011737  0
H  H13  1  0.31454625  0.84043530  0.61324188  1  0.103769  0  0.10745  0.114521  0  1.011717  0
H  H14  1  0.18547961  0.34042883  0.11323670  1  0.10324  0  0.107432  0.114535  0  1.011815  0
H  H15  1  0.81450439  0.65956998  0.88677493  1  0.104101  0  0.10744  0.114566  0  1.011871  0
H  H16  1  0.27543060  0.02645467  0.40956886  1  0.044399  0  0.1013  0.106806  0  1.012858  0
H  H17  1  0.72461039  0.97354121  0.59044159  1  0.044181  0  0.10137  0.106943  0  1.013118  0
H  H18  1  0.77539875  0.47354220  0.09043667  1  0.044262  0  0.101366  0.106961  0  1.012978  0
H  H19  1  0.22458975  0.52645335  0.90957102  1  0.044461  0  0.101341  0.106857  0  1.012926  0
H  H20  1  0.07732875  0.38892991  0.67760517  1  0.062001  0  0.094331  0.135168  0  0.991532  0
H  H21  1  0.95655056  0.43726895  0.72865317  1  0.004828  0  0.091838  0.126516  0  0.998572  0
H  H22  1  0.81468443  0.39788160  0.67642447  1  0.059779  0  0.094119  0.135303  0  0.991952  0
H  H23  1  0.92265825  0.61106781  0.32236694  1  0.062164  0  0.0943  0.135157  0  0.991468  0
H  H24  1  0.18528907  0.60211859  0.32356423  1  0.060115  0  0.094154  0.135326  0  0.992077  0
H  H25  1  0.04346793  0.56272211  0.27133280  1  0.004997  0  0.091965  0.126603  0  0.99845  0
H  H26  1  0.57733771  0.11106819  0.82236628  1  0.06207  0  0.094305  0.135201  0  0.99149  0
H  H27  1  0.45652527  0.06272081  0.77133293  1  0.004998  0  0.091961  0.126624  0  0.99838  0
H  H28  1  0.31469977  0.10211955  0.82356410  1  0.059992  0  0.094175  0.135368  0  0.992041  0
H  H29  1  0.42266128  0.88893402  0.17760857  1  0.062245  0  0.094345  0.135181  0  0.991537  0
H  H30  1  0.68530072  0.89788599  0.17641904  1  0.059928  0  0.094123  0.135309  0  0.991893  0
H  H31  1  0.54346322  0.93727294  0.22865224  1  0.004826  0  0.091886  0.1265  0  0.99864  0
H  H32  1  0.67359164  0.10229238  0.51020877  1  0.062146  0  0.094731  0.132509  0  0.987733  0
H  H33  1  0.51094681  0.11778102  0.45734539  1  0.036978  0  0.093623  0.133877  0  0.999268  0
H  H34  1  0.57627308  0.04002820  0.46798046  1  0.044425  0  0.090604  0.123322  0  1.010778  0
H  H35  1  0.32644785  0.89771389  0.48980717  1  0.062313  0  0.094888  0.132653  0  0.987778  0
H  H36  1  0.42377091  0.95997869  0.53204061  1  0.044132  0  0.090641  0.123395  0  1.010756  0
H  H37  1  0.48911218  0.88222195  0.54266622  1  0.037434  0  0.093563  0.13382  0  0.99906  0
H  H38  1  0.17357530  0.39770935  0.98980010  1  0.061496  0  0.094799  0.132591  0  0.987862  0
H  H39  1  0.01090817  0.38221443  0.04265648  1  0.036856  0  0.093671  0.133971  0  0.999048  0
H  H40  1  0.07624237  0.45997178  0.03203199  1  0.044398  0  0.090622  0.123359  0  1.01081  0
H  H41  1  0.82639669  0.60230024  0.01021266  1  0.061588  0  0.094746  0.132563  0  0.987761  0
H  H42  1  0.92373412  0.54003916  0.96798433  1  0.044709  0  0.090651  0.123359  0  1.010768  0
H  H43  1  0.98905782  0.61779422  0.95735234  1  0.036855  0  0.093666  0.133912  0  0.999143  0
H  H44  1  0.28487092  0.08636625  0.28691326  1  0.022086  0  0.093617  0.131611  0  1.006186  0
H  H45  1  0.41356382  0.13840400  0.33204264  1  0.087492  0  0.101332  0.151115  0  1.005244  0
H  H46  1  0.43285129  0.05689392  0.33752505  1  0.017824  0  0.086387  0.11744  0  1.00858  0
H  H47  1  0.71516707  0.91362389  0.71309564  1  0.021709  0  0.093558  0.131564  0  1.006083  0
H  H48  1  0.56719120  0.94310404  0.66248342  1  0.018244  0  0.086486  0.117555  0  1.008398  0
H  H49  1  0.58644718  0.86159257  0.66796583  1  0.087311  0  0.101323  0.151031  0  1.005196  0
H  H50  1  0.78486890  0.41362512  0.21309268  1  0.021954  0  0.093579  0.131594  0  1.006079  0
H  H51  1  0.91357476  0.36158894  0.16796079  1  0.087222  0  0.101304  0.151017  0  1.005335  0
H  H52  1  0.93284168  0.44310091  0.16247875  1  0.018103  0  0.086443  0.117534  0  1.008502  0
H  H53  1  0.21513609  0.58637489  0.78691736  1  0.022246  0  0.093614  0.131618  0  1.006255  0
H  H54  1  0.06714381  0.55690112  0.83752891  1  0.017945  0  0.086425  0.117485  0  1.008527  0
H  H55  1  0.08641673  0.63841132  0.83204372  1  0.087162  0  0.1013  0.151007  0  1.0053  0
H  H56  1  0.46063480  0.28386272  0.31526860  1  0.628735  0  0.358226  0.437872  0  0.840433  0
H  H57  1  0.53938519  0.71613004  0.68473515  1  0.628708  0  0.358248  0.43805  0  0.840222  0
H  H58  1  0.96063769  0.21613389  0.18473832  1  0.628815  0  0.358293  0.438003  0  0.840285  0
H  H59  1  0.03939131  0.78385935  0.81526938  1  0.628815  0  0.358309  0.43809  0  0.84017  0
C  C60  1  0.47058040  0.31974828  0.18082019  1  1.56994  0  0.265523  0.647115  0  4.089269  0
C  C61  1  0.52939910  0.68024355  0.81918357  1  1.570683  0  0.265459  0.646961  0  4.089219  0
C  C62  1  0.97059099  0.18024095  0.31918320  1  1.57072  0  0.26548  0.646957  0  4.089255  0
C  C63  1  0.02942900  0.81975061  0.68082213  1  1.569834  0  0.2654  0.647044  0  4.089424  0
C  C64  1  0.46994995  0.15291992  0.19360482  1  1.625771  0  0.279124  0.678203  0  4.085333  0
C  C65  1  0.53004454  0.84708189  0.80639336  1  1.61065  0  0.279094  0.678112  0  4.085113  0
C  C66  1  0.96997204  0.34708259  0.30639732  1  1.610574  0  0.279028  0.6781  0  4.085058  0
C  C67  1  0.03005395  0.65291456  0.69360443  1  1.610649  0  0.279143  0.678231  0  4.085135  0
C  C68  1  0.02162417  0.59137934  0.66070291  1  0.103546  0  -0.023612  -0.14343  0  4.055106  0
C  C69  1  0.97839282  0.40862323  0.33929012  1  0.103607  0  -0.023555  -0.143145  0  4.054894  0
C  C70  1  0.52161269  0.90862347  0.83929011  1  0.103382  0  -0.023544  -0.143033  0  4.05492  0
C  C71  1  0.47837731  0.09138429  0.16070369  1  0.088348  0  -0.023641  -0.143387  0  4.055115  0
C  C72  1  0.97970070  0.47904336  0.65602916  1  0.044995  0  -0.005437  0.13877  0  3.953261  0
C  C73  1  0.02029979  0.52096248  0.34396030  1  0.044926  0  -0.005188  0.139249  0  3.952999  0
C  C74  1  0.47968540  0.02096173  0.84396119  1  0.044892  0  -0.005198  0.139243  0  3.953199  0
C  C75  1  0.52028360  0.97904781  0.15602825  1  0.045215  0  -0.005501  0.13844  0  3.953426  0
C  C76  1  0.99446895  0.53647085  0.68506489  1  0.013586  0  -0.085836  -0.14818  0  3.973302  0
C  C77  1  0.00551054  0.46353027  0.31492380  1  0.013111  0  -0.08583  -0.148415  0  3.973225  0
C  C78  1  0.49449418  0.96352993  0.81492606  1  0.012561  0  -0.08588  -0.148566  0  3.973222  0
C  C79  1  0.50551382  0.03647605  0.18506458  1  0.013065  0  -0.085784  -0.148025  0  3.973528  0
C  C80  1  0.03089379  0.58843300  0.60646442  1  0.32639  0  0.103588  0.215442  0  3.997398  0
C  C81  1  0.96911121  0.41156831  0.39352586  1  0.327031  0  0.103618  0.215479  0  3.997245  0
C  C82  1  0.53088608  0.91156808  0.89352584  1  0.327248  0  0.103592  0.215404  0  3.99731  0
C  C83  1  0.46908592  0.08844051  0.10646717  1  0.326478  0  0.103552  0.215397  0  3.997496  0
C  C84  1  0.01079202  0.53246133  0.57276024  1  0.028682  0  -0.005705  -0.053715  0  3.943638  0
C  C85  1  0.98918748  0.46754174  0.42722923  1  0.028276  0  -0.005709  -0.053731  0  3.943335  0
C  C86  1  0.51078359  0.96754188  0.92722844  1  0.028181  0  -0.005651  -0.053604  0  3.943063  0
C  C87  1  0.48918391  0.03246744  0.07276298  1  0.02883  0  -0.005657  -0.053614  0  3.943575  0
C  C88  1  0.98628856  0.47691323  0.59964436  1  0.052093  0  -0.009554  -0.071238  0  3.968145  0
C  C89  1  0.01368944  0.52309030  0.40034511  1  0.052243  0  -0.009648  -0.071399  0  3.968107  0
C  C90  1  0.48629498  0.02308936  0.90034442  1  0.052402  0  -0.00968  -0.071445  0  3.968228  0
C  C91  1  0.51366502  0.97691860  0.09964346  1  0.052116  0  -0.009426  -0.071002  0  3.968386  0
C  C92  1  0.01144785  0.52922060  0.51537194  1  0.062563  0  -0.002909  0.067555  0  3.958498  0
C  C93  1  0.98854365  0.47078248  0.48462149  1  0.002389  0  -0.002895  0.067816  0  3.958474  0
C  C94  1  0.51142965  0.97078489  0.98462029  1  0.00246  0  -0.002896  0.067738  0  3.958599  0
C  C95  1  0.48853184  0.02922295  0.01537034  1  0.062587  0  -0.003026  0.067283  0  3.958565  0
C  C96  1  0.96673159  0.41680057  0.51203643  1  0.136008  0  -0.11318  -0.279103  0  4.030757  0
C  C97  1  0.03322541  0.58320514  0.48795580  1  0.136819  0  -0.113175  -0.278678  0  4.030669  0
C  C98  1  0.46676809  0.08320781  0.98795432  1  0.136458  0  -0.113059  -0.278419  0  4.030649  0
C  C99  1  0.53322640  0.91680321  0.01203591  1  0.136041  0  -0.113327  -0.279152  0  4.030741  0
C  C100  1  0.96664875  0.42080634  0.56576059  1  0.280553  0  0.093748  0.247442  0  4.071245  0
C  C101  1  0.03333225  0.57919576  0.43423245  1  0.279518  0  0.093574  0.247131  0  4.071365  0
C  C102  1  0.46667245  0.07919814  0.93422860  1  0.28019  0  0.093561  0.247094  0  4.071402  0
C  C103  1  0.53331005  0.92081130  0.06576006  1  0.279988  0  0.093802  0.247521  0  4.071095  0
C  C104  1  0.81124798  0.09112029  0.43308556  1  0.011083  0  -0.005945  0.121203  0  3.948172  0
C  C105  1  0.18876451  0.90887800  0.56692568  1  0.011363  0  -0.005963  0.121412  0  3.94763  0
C  C106  1  0.31124109  0.40887650  0.06692310  1  0.011821  0  -0.006019  0.121287  0  3.947757  0
C  C107  1  0.68875640  0.59112109  0.93308616  1  0.011203  0  -0.00605  0.12117  0  3.947965  0
C  C108  1  0.81470594  0.13014511  0.39268312  1  -0.056898  0  -0.083911  -0.153788  0  3.9732  0
C  C109  1  0.18531855  0.86985470  0.60732534  1  -0.05655  0  -0.083771  -0.153751  0  3.972938  0
C  C110  1  0.31469757  0.36985018  0.10732080  1  -0.05633  0  -0.083741  -0.15371  0  3.973047  0
C  C111  1  0.68529242  0.63015365  0.89268646  1  -0.057207  0  -0.083861  -0.153786  0  3.973027  0
C  C112  1  0.98041888  0.13423431  0.35910756  1  -0.031961  0  -0.016678  -0.103117  0  3.936989  0
C  C113  1  0.01958611  0.86576088  0.64090092  1  -0.032243  0  -0.016654  -0.103187  0  3.936884  0
C  C114  1  0.48042342  0.36575600  0.14089700  1  -0.031969  0  -0.016698  -0.103172  0  3.937013  0
C  C115  1  0.51957257  0.63423872  0.85911149  1  -0.031898  0  -0.016625  -0.103077  0  3.937017  0
C  C116  1  0.15091627  0.09612349  0.36440701  1  -0.011032  0  0.000718  0.163705  0  3.95661  0
C  C117  1  0.84909623  0.90387259  0.63559357  1  -0.011011  0  0.000767  0.163765  0  3.95698  0
C  C118  1  0.65091515  0.40387229  0.13559353  1  -0.01101  0  0.000819  0.163827  0  3.956785  0
C  C119  1  0.34907784  0.59612927  0.86441413  1  -0.01105  0  0.000655  0.163505  0  3.957069  0
C  C120  1  0.14696634  0.05658800  0.40458414  1  -0.015872  0  -0.089386  -0.198574  0  3.941108  0
C  C121  1  0.85305515  0.94340699  0.59542276  1  -0.0151  0  -0.089462  -0.198762  0  3.941614  0
C  C122  1  0.64694422  0.44340725  0.09542352  1  -0.015289  0  -0.089492  -0.19887  0  3.941846  0
C  C123  1  0.35304428  0.55658881  0.90458457  1  -0.015962  0  -0.089399  -0.198529  0  3.941618  0
C  C124  1  0.98397509  0.05419260  0.43958131  1  0.068399  0  -0.002103  0.083933  0  4.108381  0
C  C125  1  0.01606590  0.94581527  0.56042870  1  0.068255  0  -0.002149  0.084  0  4.108116  0
C  C126  1  0.48394964  0.44581114  0.06042714  1  0.067622  0  -0.002164  0.08403  0  4.108315  0
C  C127  1  0.51603735  0.55419130  0.93958013  1  0.06845  0  -0.002042  0.083909  0  4.108365  0
C  C128  1  0.99506895  0.01581704  0.48139408  1  -0.404434  0  -0.040647  -0.096099  0  4.117703  0
C  C129  1  0.00503653  0.98420374  0.51862693  1  0.057213  0  -0.040471  -0.095967  0  4.117969  0
C  C130  1  0.49501049  0.48419529  0.01862024  1  -0.018184  0  -0.040503  -0.09616  0  4.118223  0
C  C131  1  0.50497350  0.51580377  0.98138585  1  -0.328895  0  -0.040569  -0.095826  0  4.117936  0
C  C132  1  0.95565078  0.42266850  0.68609962  1  -0.028605  0  -0.239287  -0.413535  0  3.986478  0
C  C133  1  0.04433922  0.57733010  0.31388355  1  -0.029568  0  -0.239472  -0.413743  0  3.986719  0
C  C134  1  0.45565070  0.07733157  0.81388367  1  -0.029304  0  -0.239477  -0.413824  0  3.986615  0
C  C135  1  0.54434080  0.92267336  0.18609829  1  -0.028933  0  -0.239353  -0.413466  0  3.986485  0
C  C136  1  0.63323753  0.08797080  0.46885941  1  -0.067387  0  -0.235996  -0.407102  0  3.986514  0
C  C137  1  0.36680196  0.91203511  0.53115732  1  -0.067807  0  -0.236163  -0.407381  0  3.98609  0
C  C138  1  0.13321624  0.41202937  0.03115061  1  -0.066672  0  -0.236198  -0.407465  0  3.986475  0
C  C139  1  0.86676176  0.58798064  0.96886176  1  -0.067046  0  -0.236094  -0.407233  0  3.986494  0
C  C140  1  0.33070252  0.09432648  0.32850694  1  -0.036056  0  -0.240585  -0.413822  0  3.960072  0
C  C141  1  0.66932498  0.90566773  0.67150115  1  -0.035902  0  -0.240607  -0.413788  0  3.959742  0
C  C142  1  0.83069942  0.40566470  0.17149737  1  -0.036044  0  -0.240571  -0.413793  0  3.959809  0
C  C143  1  0.16929357  0.59433511  0.82851109  1  -0.035905  0  -0.240618  -0.413765  0  3.960094  0
O  O144  1  0.63845701  0.17540811  0.20860679  1  -1.251777  0  -0.225907  -0.579734  0  2.321986  0
O  O145  1  0.36153598  0.82458255  0.79140645  1  -1.252413  0  -0.225846  -0.579633  0  2.321907  0
O  O146  1  0.13846591  0.32457948  0.29140644  1  -1.252457  0  -0.225807  -0.579582  0  2.321884  0
O  O147  1  0.86155258  0.67541162  0.70859890  1  -1.252265  0  -0.225843  -0.579678  0  2.321798  0
O  O148  1  0.29726456  0.30168084  0.19445559  1  -1.259264  0  -0.241185  -0.603032  0  2.342805  0
O  O149  1  0.70272393  0.69831279  0.80554776  1  -1.259836  0  -0.241052  -0.602909  0  2.34262  0
O  O150  1  0.79728027  0.19831598  0.30554952  1  -1.259869  0  -0.241047  -0.602832  0  2.342771  0
O  O151  1  0.20274873  0.80167644  0.69445146  1  -1.25947  0  -0.241144  -0.603056  0  2.342895  0
O  O152  1  0.29871044  0.17641977  0.20440694  1  -1.253412  0  -0.228144  -0.584469  0  2.310372  0
O  O153  1  0.70129155  0.82357987  0.79559243  1  -1.253391  0  -0.228174  -0.584535  0  2.310098  0
O  O154  1  0.79870665  0.32358074  0.29559421  1  -1.253262  0  -0.228107  -0.584506  0  2.310019  0
O  O155  1  0.20131334  0.67641356  0.70440321  1  -1.253403  0  -0.228197  -0.584468  0  2.310031  0
O  O156  1  0.13663155  0.19956636  0.30220007  1  -1.258476  0  -0.235013  -0.593231  0  2.390827  0
O  O157  1  0.86339444  0.80042047  0.69780450  1  -1.258552  0  -0.235006  -0.593203  0  2.390708  0
O  O158  1  0.63661517  0.30041386  0.19779818  1  -1.258624  0  -0.235056  -0.593194  0  2.39052  0
O  O159  1  0.36337932  0.69957134  0.80220047  1  -1.258478  0  -0.23502  -0.593098  0  2.390862  0
O  O160  1  0.46520038  0.25753663  0.28217201  1  -1.430177  0  -0.447416  -0.990871  0  2.195503  0
O  O161  1  0.53482711  0.74245650  0.71783095  1  -1.42996  0  -0.447441  -0.991057  0  2.195144  0
O  O162  1  0.96519588  0.24245896  0.21783412  1  -1.430098  0  -0.447473  -0.990991  0  2.195415  0
O  O163  1  0.03480912  0.75753150  0.78217359  1  -1.430084  0  -0.447522  -0.991186  0  2.19542  0
F  F164  1  0.94446325  0.36594521  0.58787520  1  -0.631816  0  -0.098743  -0.143722  0  1.349509  0
F  F165  1  0.05542625  0.63406680  0.41211937  1  -0.631429  0  -0.098664  -0.143729  0  1.349152  0
F  F166  1  0.44459052  0.13406626  0.91211438  1  -0.631961  0  -0.098676  -0.143741  0  1.349346  0
F  F167  1  0.55546397  0.86594499  0.08787388  1  -0.631372  0  -0.09882  -0.143871  0  1.34929  0
F  F168  1  0.94341449  0.35542138  0.41356234  1  -0.629592  0  -0.088758  -0.128922  0  1.370232  0
F  F169  1  0.05659500  0.64458443  0.58643067  1  -0.629491  0  -0.088768  -0.128908  0  1.370429  0
F  F170  1  0.44337878  0.14458812  0.08642873  1  -0.629534  0  -0.088824  -0.128974  0  1.370586  0
F  F171  1  0.55658272  0.85542352  0.91356268  1  -0.629545  0  -0.088746  -0.128915  0  1.370299  0
