# generated using pymatgen
data_ZnH12C17N2O5
_symmetry_space_group_name_H-M   'P 1'
_cell_length_a   8.57493261
_cell_length_b   8.49097465
_cell_length_c   22.20720000
_cell_angle_alpha   90.00000000
_cell_angle_beta   90.00000000
_cell_angle_gamma   97.52853324
_symmetry_Int_Tables_number   1
_chemical_formula_structural   ZnH12C17N2O5
_chemical_formula_sum   'Zn4 H48 C68 N8 O20'
_cell_volume   1602.95784587
_cell_formula_units_Z   4
loop_
 _symmetry_equiv_pos_site_id
 _symmetry_equiv_pos_as_xyz
  1  'x, y, z'
loop_
 _atom_site_type_symbol
 _atom_site_label
 _atom_site_symmetry_multiplicity
 _atom_site_fract_x
 _atom_site_fract_y
 _atom_site_fract_z
 _atom_site_occupancy
 _atom_site_hle17_bader_spin_density
 _atom_site_hle17_ddec_charge
 _atom_site_hle17_ddec_spin_density
 _atom_site_hle17_ddec_sum_bond_order
 _atom_site_hle17_magmom
 _atom_site_hse06_10hf_bader_spin_density
 _atom_site_hse06_10hf_ddec_charge
 _atom_site_hse06_10hf_ddec_spin_density
 _atom_site_hse06_10hf_ddec_sum_bond_order
 _atom_site_hse06_10hf_magmom
 _atom_site_hse06_bader_spin_density
 _atom_site_hse06_ddec_charge
 _atom_site_hse06_ddec_spin_density
 _atom_site_hse06_ddec_sum_bond_order
 _atom_site_hse06_magmom
 _atom_site_pbe_bader_charge
 _atom_site_pbe_bader_spin_density
 _atom_site_pbe_cm5_charge
 _atom_site_pbe_ddec_charge
 _atom_site_pbe_ddec_spin_density
 _atom_site_pbe_ddec_sum_bond_order
 _atom_site_pbe_magmom
Zn  Zn0  1  0.13178859  0.39313571  0.70283196  1  0  1.096569  0  1.71191  0  0  0.911972  0  2.17123  0  0  0.963047  0  2.111571  0  1.296959  0  0.688635  0.876049  0  2.212258  0
Zn  Zn1  1  0.39111469  0.13232705  0.29768544  1  0  1.098068  0  1.710895  0  0  0.913388  0  2.17034  0  0  0.96449  0  2.110563  0  1.295602  0  0.689114  0.877438  0  2.21145  0
Zn  Zn2  1  0.89111652  0.63232585  0.20231411  1  0  1.098119  0  1.710835  0  0  0.9134  0  2.170291  0  0  0.964502  0  2.110515  0  1.295589  0  0.689132  0.877449  0  2.211398  0
Zn  Zn3  1  0.63179206  0.89313807  0.79716759  1  0  1.096484  0  1.711914  0  0  0.911906  0  2.171232  0  0  0.962982  0  2.111575  0  1.296968  0  0.688615  0.875983  0  2.212259  0
H  H4  1  0.45438508  0.65316863  0.62578578  1  0  0.098591  0  0.94572  0  0  0.110374  0  1.007106  0  0  0.113843  0  1.005016  0  0.082216  0  0.103778  0.107813  0  1.008799  0
H  H5  1  0.65471247  0.45400568  0.37357929  1  0  0.100113  0  0.946494  0  0  0.111959  0  1.007812  0  0  0.115436  0  1.005725  0  0.060928  0  0.104629  0.109403  0  1.009501  0
H  H6  1  0.15471446  0.95400329  0.12642431  1  0  0.100152  0  0.946524  0  0  0.112057  0  1.00777  0  0  0.115531  0  1.005687  0  0.060699  0  0.104665  0.1095  0  1.00946  0
H  H7  1  0.95438092  0.15317221  0.87421602  1  0  0.098563  0  0.945738  0  0  0.110361  0  1.007115  0  0  0.113826  0  1.00503  0  0.082042  0  0.103774  0.1078  0  1.008808  0
H  H8  1  0.39091364  0.49358618  0.53545427  1  0  0.088963  0  0.980499  0  0  0.100593  0  1.043728  0  0  0.102982  0  1.042924  0  0.056752  0  0.099563  0.098875  0  1.04437  0
H  H9  1  0.49673010  0.39122903  0.46402293  1  0  0.08921  0  0.981212  0  0  0.101401  0  1.0437  0  0  0.10379  0  1.042919  0  0.030108  0  0.099714  0.099696  0  1.04429  0
H  H10  1  0.99672736  0.89121951  0.03598067  1  0  0.089243  0  0.98111  0  0  0.10145  0  1.043584  0  0  0.103834  0  1.042803  0  0.030093  0  0.099759  0.099755  0  1.044165  0
H  H11  1  0.89091530  0.99360161  0.96455204  1  0  0.088931  0  0.980248  0  0  0.10055  0  1.043535  0  0  0.102938  0  1.042731  0  0.056842  0  0.09951  0.09882  0  1.044178  0
H  H12  1  0.27070150  0.46117146  0.43260114  1  0  0.095068  0  0.95981  0  0  0.104386  0  1.022073  0  0  0.107538  0  1.020304  0  0.08615  0  0.098395  0.102021  0  1.023517  0
H  H13  1  0.46430658  0.27031117  0.56695351  1  0  0.093926  0  0.959067  0  0  0.103518  0  1.020944  0  0  0.106655  0  1.019168  0  0.097997  0  0.098556  0.101237  0  1.022274  0
H  H14  1  0.96430359  0.77030878  0.93304919  1  0  0.093946  0  0.959052  0  0  0.103526  0  1.020936  0  0  0.106663  0  1.019162  0  0.09805  0  0.098557  0.101248  0  1.022261  0
H  H15  1  0.77069375  0.96119521  0.06740201  1  0  0.095012  0  0.959618  0  0  0.104333  0  1.021887  0  0  0.107484  0  1.020119  0  0.086184  0  0.09837  0.101962  0  1.023341  0
H  H16  1  0.11924820  0.66714975  0.39229799  1  0  0.106194  0  0.949118  0  0  0.115036  0  1.009271  0  0  0.118736  0  1.006812  0  0.117501  0  0.102558  0.112333  0  1.011142  0
H  H17  1  0.66852315  0.11868093  0.60770066  1  0  0.105763  0  0.948692  0  0  0.114675  0  1.009065  0  0  0.118313  0  1.006652  0  0.104613  0  0.10191  0.112001  0  1.01092  0
H  H18  1  0.16852047  0.61867854  0.89230115  1  0  0.105756  0  0.948635  0  0  0.114658  0  1.009026  0  0  0.118297  0  1.006611  0  0.104708  0  0.101877  0.111972  0  1.010893  0
H  H19  1  0.61923834  0.16717234  0.10770066  1  0  0.106241  0  0.949077  0  0  0.115062  0  1.009244  0  0  0.118762  0  1.006785  0  0.117436  0  0.10258  0.112362  0  1.011112  0
H  H20  1  0.08018147  0.90118889  0.45438461  1  0  0.084501  0  0.974227  0  0  0.095481  0  1.037782  0  0  0.098027  0  1.036594  0  0.052647  0  0.097396  0.093637  0  1.038747  0
H  H21  1  0.90129974  0.07980726  0.54603552  1  0  0.083297  0  0.972966  0  0  0.09413  0  1.03667  0  0  0.096593  0  1.035654  0  0.060328  0  0.096823  0.092354  0  1.037492  0
H  H22  1  0.40129994  0.57980012  0.95396493  1  0  0.083238  0  0.972863  0  0  0.094083  0  1.036573  0  0  0.096551  0  1.035549  0  0.060307  0  0.096789  0.092306  0  1.037395  0
H  H23  1  0.58016750  0.40120672  0.04561043  1  0  0.084506  0  0.974235  0  0  0.095456  0  1.037806  0  0  0.098005  0  1.036612  0  0.052344  0  0.097481  0.093613  0  1.038767  0
H  H24  1  0.12930085  0.05712076  0.55150041  1  0  0.094598  0  0.971795  0  0  0.105623  0  1.036301  0  0  0.108767  0  1.034008  0  0.072605  0  0.100335  0.103385  0  1.037945  0
H  H25  1  0.05632478  0.12918014  0.44906112  1  0  0.094828  0  0.972165  0  0  0.106055  0  1.036412  0  0  0.109198  0  1.034162  0  0.068959  0  0.100205  0.103811  0  1.038061  0
H  H26  1  0.55632941  0.62918250  0.05093798  1  0  0.094837  0  0.972226  0  0  0.106071  0  1.036466  0  0  0.109212  0  1.034216  0  0.068889  0  0.100219  0.103827  0  1.038112  0
H  H27  1  0.62929398  0.55712431  0.94849328  1  0  0.094687  0  0.971834  0  0  0.105577  0  1.036474  0  0  0.108716  0  1.034184  0  0.072355  0  0.100338  0.103339  0  1.038116  0
H  H28  1  0.94344950  0.67363127  0.71348301  1  0  0.098274  0  0.948263  0  0  0.104786  0  1.011174  0  0  0.107353  0  1.00883  0  0.163579  0  0.122363  0.10284  0  1.012952  0
H  H29  1  0.67108517  0.94502705  0.28659264  1  0  0.098748  0  0.948494  0  0  0.105593  0  1.010585  0  0  0.108153  0  1.008305  0  0.165692  0  0.123199  0.10363  0  1.012367  0
H  H30  1  0.17108536  0.44502587  0.21340736  1  0  0.098777  0  0.948469  0  0  0.105623  0  1.010561  0  0  0.108184  0  1.008283  0  0.165686  0  0.123214  0.10366  0  1.012343  0
H  H31  1  0.44344588  0.17362772  0.78651699  1  0  0.098261  0  0.948285  0  0  0.104778  0  1.011158  0  0  0.107344  0  1.008815  0  0.163562  0  0.122369  0.102832  0  1.012935  0
H  H32  1  0.78102178  0.82074607  0.64380336  1  0  0.129729  0  0.92754  0  0  0.139818  0  0.985014  0  0  0.143106  0  0.984207  0  0.124552  0  0.119287  0.137385  0  0.985865  0
H  H33  1  0.81964012  0.78307343  0.35612279  1  0  0.131947  0  0.926879  0  0  0.141322  0  0.985001  0  0  0.144647  0  0.984178  0  0.136431  0  0.120003  0.138872  0  0.98586  0
H  H34  1  0.31964366  0.28307106  0.14387856  1  0  0.131912  0  0.926878  0  0  0.141285  0  0.98501  0  0  0.14461  0  0.984187  0  0.13638  0  0.119975  0.138832  0  0.985876  0
H  H35  1  0.28101917  0.32074133  0.85619754  1  0  0.129714  0  0.927495  0  0  0.139792  0  0.984995  0  0  0.143081  0  0.984187  0  0.124686  0  0.119286  0.137361  0  0.985848  0
H  H36  1  0.90609050  0.51939940  0.49983609  1  0  0.114992  0  0.98764  0  0  0.11768  0  1.058424  0  0  0.120008  0  1.059326  0  0.127767  0  0.111296  0.11601  0  1.057944  0
H  H37  1  0.51936302  0.90427403  0.50031882  1  0  0.11456  0  0.988587  0  0  0.118187  0  1.05833  0  0  0.120445  0  1.059359  0  0.12635  0  0.111455  0.116523  0  1.057856  0
H  H38  1  0.01936640  0.40427047  0.99968163  1  0  0.114554  0  0.988624  0  0  0.118171  0  1.058382  0  0  0.120429  0  1.059411  0  0.126368  0  0.111455  0.116506  0  1.057908  0
H  H39  1  0.40608961  0.01938991  0.00016571  1  0  0.11496  0  0.987669  0  0  0.117685  0  1.058407  0  0  0.120007  0  1.059328  0  0.127709  0  0.11129  0.116015  0  1.057927  0
H  H40  1  0.06222943  0.38400741  0.57545391  1  0  0.087902  0  0.9531  0  0  0.094915  0  1.017825  0  0  0.097189  0  1.016025  0  0.146724  0  0.117232  0.093206  0  1.019168  0
H  H41  1  0.38292319  0.06045062  0.42493200  1  0  0.087516  0  0.95193  0  0  0.094486  0  1.016602  0  0  0.096756  0  1.01484  0  0.158872  0  0.116982  0.092775  0  1.017931  0
H  H42  1  0.88292766  0.56045179  0.07506755  1  0  0.087521  0  0.952009  0  0  0.094503  0  1.016657  0  0  0.096777  0  1.014896  0  0.158886  0  0.116973  0.092784  0  1.01801  0
H  H43  1  0.56223080  0.88400265  0.92454519  1  0  0.087854  0  0.953107  0  0  0.094878  0  1.017821  0  0  0.097155  0  1.016017  0  0.146727  0  0.117234  0.09317  0  1.019166  0
H  H44  1  0.38017817  0.60649006  0.73797372  1  0  0.45124  0  0.843018  0  0  0.416373  0  0.91042  0  0  0.428487  0  0.893091  0  0.65587  0  0.296451  0.407816  0  0.922636  0
H  H45  1  0.60626690  0.38037106  0.26240814  1  0  0.45203  0  0.841308  0  0  0.416955  0  0.909123  0  0  0.429026  0  0.891826  0  0.655016  0  0.29646  0.408431  0  0.92131  0
H  H46  1  0.10626950  0.88037343  0.23759096  1  0  0.452101  0  0.841207  0  0  0.417039  0  0.908996  0  0  0.429108  0  0.891701  0  0.654999  0  0.296495  0.408517  0  0.92118  0
H  H47  1  0.88017867  0.10649363  0.76202673  1  0  0.451191  0  0.843085  0  0  0.41632  0  0.910491  0  0  0.428434  0  0.893163  0  0.655846  0  0.296418  0.407763  0  0.922708  0
H  H48  1  0.43907882  0.43977271  0.72652473  1  0  0.445559  0  0.792972  0  0  0.428999  0  0.84282  0  0  0.437293  0  0.833716  0  0.633901  0  0.333501  0.42303  0  0.849461  0
H  H49  1  0.44286959  0.44413728  0.27269264  1  0  0.445596  0  0.793833  0  0  0.428704  0  0.844162  0  0  0.43712  0  0.834825  0  0.636997  0  0.331844  0.422649  0  0.85097  0
H  H50  1  0.94287111  0.94413370  0.22730646  1  0  0.445655  0  0.79378  0  0  0.42876  0  0.844111  0  0  0.437176  0  0.834774  0  0.637097  0  0.331864  0.422706  0  0.85092  0
H  H51  1  0.93907630  0.93977388  0.77347302  1  0  0.445613  0  0.792926  0  0  0.429051  0  0.842779  0  0  0.437344  0  0.833676  0  0.633941  0  0.333532  0.423082  0  0.849422  0
C  C52  1  0.22281649  0.11003851  0.66612540  1  0  0.6423  0  3.937668  0  0  0.595258  0  4.230194  0  0  0.629291  0  4.222779  0  1.551304  0  0.195825  0.572077  0  4.234427  0
C  C53  1  0.10860943  0.22185302  0.33403131  1  0  0.643569  0  3.933635  0  0  0.596637  0  4.226  0  0  0.630752  0  4.218466  0  1.563946  0  0.196413  0.573398  0  4.230302  0
C  C54  1  0.60862223  0.72185539  0.16596329  1  0  0.643718  0  3.933314  0  0  0.596701  0  4.225789  0  0  0.630819  0  4.218254  0  1.563305  0  0.196453  0.57346  0  4.23009  0
C  C55  1  0.72282935  0.61005038  0.83387955  1  0  0.642298  0  3.937161  0  0  0.595343  0  4.229597  0  0  0.62938  0  4.22218  0  1.551003  0  0.195821  0.572158  0  4.233832  0
C  C56  1  0.26460620  0.98338277  0.62409354  1  0  -0.055272  0  3.733262  0  0  -0.040285  0  3.968425  0  0  -0.046065  0  3.990232  0  -0.047462  0  -0.011072  -0.036591  0  3.95388  0
C  C57  1  0.98288055  0.26401616  0.37600373  1  0  -0.054154  0  3.730823  0  0  -0.039412  0  3.965857  0  0  -0.045193  0  3.987703  0  -0.048348  0  -0.010277  -0.035703  0  3.951269  0
C  C58  1  0.48288447  0.76401971  0.12399627  1  0  -0.054068  0  3.730674  0  0  -0.039263  0  3.965692  0  0  -0.045036  0  3.987538  0  -0.04836  0  -0.010213  -0.035555  0  3.951106  0
C  C59  1  0.76460522  0.48338397  0.87590241  1  0  -0.055236  0  3.733465  0  0  -0.040269  0  3.968589  0  0  -0.046049  0  3.990392  0  -0.047586  0  -0.011053  -0.036571  0  3.954046  0
C  C60  1  0.36066629  0.86971741  0.64513896  1  0  -0.062273  0  3.742989  0  0  -0.049517  0  3.983376  0  0  -0.054657  0  4.004403  0  -0.039027  0  -0.012519  -0.046217  0  3.969343  0
C  C61  1  0.86973253  0.36006523  0.35468722  1  0  -0.061478  0  3.743819  0  0  -0.047825  0  3.98344  0  0  -0.052954  0  4.004492  0  -0.037519  0  -0.01252  -0.044541  0  3.969397  0
C  C62  1  0.36973553  0.86006166  0.14531413  1  0  -0.061413  0  3.743765  0  0  -0.047813  0  3.983441  0  0  -0.052957  0  4.004508  0  -0.037552  0  -0.01253  -0.04453  0  3.969399  0
C  C63  1  0.86066298  0.36971861  0.85485878  1  0  -0.062378  0  3.743228  0  0  -0.049595  0  3.983655  0  0  -0.054732  0  4.004676  0  -0.038999  0  -0.012536  -0.046296  0  3.969622  0
C  C64  1  0.37949676  0.73927091  0.61015932  1  0  -0.120519  0  3.71655  0  0  -0.15594  0  3.976926  0  0  -0.156252  0  3.99447  0  -0.014671  0  -0.083733  -0.155626  0  3.96512  0
C  C65  1  0.74034007  0.37918310  0.38952187  1  0  -0.122505  0  3.71826  0  0  -0.158992  0  3.977819  0  0  -0.15936  0  3.995459  0  0.006795  0  -0.084946  -0.158637  0  3.965925  0
C  C66  1  0.24033778  0.87917477  0.11048084  1  0  -0.122534  0  3.718173  0  0  -0.159121  0  3.977761  0  0  -0.159481  0  3.995407  0  0.00701  0  -0.084968  -0.158763  0  3.965866  0
C  C67  1  0.87948995  0.23927211  0.88984023  1  0  -0.120458  0  3.716462  0  0  -0.155867  0  3.97689  0  0  -0.156178  0  3.994437  0  -0.014446  0  -0.083703  -0.155551  0  3.965085  0
C  C68  1  0.30729611  0.71677566  0.55281305  1  0  0.05155  0  3.812548  0  0  0.067919  0  4.03975  0  0  0.068055  0  4.062664  0  -0.014468  0  -0.012367  0.067861  0  4.024154  0
C  C69  1  0.71820350  0.30717362  0.44700728  1  0  0.051684  0  3.814345  0  0  0.070276  0  4.039  0  0  0.070416  0  4.061904  0  -0.039795  0  -0.011411  0.070201  0  4.023424  0
C  C70  1  0.21820355  0.80716529  0.05299588  1  0  0.051494  0  3.814352  0  0  0.070197  0  4.038865  0  0  0.070336  0  4.061766  0  -0.040381  0  -0.011464  0.070119  0  4.023292  0
C  C71  1  0.80728719  0.21678756  0.94718785  1  0  0.051675  0  3.812284  0  0  0.067917  0  4.03968  0  0  0.068056  0  4.062589  0  -0.014615  0  -0.012388  0.067857  0  4.024083  0
C  C72  1  0.32421128  0.58264054  0.51679005  1  0  -0.117381  0  3.744588  0  0  -0.138015  0  3.994177  0  0  -0.140656  0  4.014904  0  -0.029422  0  -0.090616  -0.136124  0  3.979992  0
C  C73  1  0.58508259  0.32432184  0.48285916  1  0  -0.118374  0  3.748211  0  0  -0.140061  0  3.997189  0  0  -0.142699  0  4.017972  0  0.0157  0  -0.091796  -0.138174  0  3.982991  0
C  C74  1  0.08508163  0.82431470  0.01714489  1  0  -0.118309  0  3.747978  0  0  -0.140051  0  3.996926  0  0  -0.14268  0  4.0177  0  0.016553  0  -0.091837  -0.138171  0  3.982735  0
C  C75  1  0.82420470  0.08265243  0.98321175  1  0  -0.117402  0  3.74436  0  0  -0.138003  0  3.994002  0  0  -0.140642  0  4.014727  0  -0.029204  0  -0.090578  -0.136095  0  3.979802  0
C  C76  1  0.25792083  0.56538540  0.46007241  1  0  -0.067661  0  3.754875  0  0  -0.081437  0  4.006527  0  0  -0.08268  0  4.02683  0  -0.077581  0  -0.092031  -0.08046  0  3.992656  0
C  C77  1  0.56784345  0.25772828  0.53962634  1  0  -0.067585  0  3.753554  0  0  -0.08144  0  4.005555  0  0  -0.082723  0  4.025841  0  -0.134225  0  -0.092102  -0.080471  0  3.991681  0
C  C78  1  0.06784513  0.75772351  0.96037546  1  0  -0.067662  0  3.753452  0  0  -0.081505  0  4.00547  0  0  -0.082787  0  4.025752  0  -0.134342  0  -0.092097  -0.080533  0  3.991589  0
C  C79  1  0.75790888  0.06540085  0.03992849  1  0  -0.067622  0  3.754741  0  0  -0.08139  0  4.006361  0  0  -0.08263  0  4.026661  0  -0.077263  0  -0.092061  -0.080412  0  3.99249  0
C  C80  1  0.17060648  0.68220954  0.43721991  1  0  -0.056793  0  3.744572  0  0  -0.072537  0  3.99928  0  0  -0.072988  0  4.017667  0  -0.048244  0  -0.088332  -0.072099  0  3.986678  0
C  C81  1  0.68369652  0.17015175  0.56272650  1  0  -0.055744  0  3.740841  0  0  -0.071504  0  3.995316  0  0  -0.071918  0  4.013722  0  0.011763  0  -0.087227  -0.071087  0  3.982725  0
C  C82  1  0.18369866  0.67015055  0.93727530  1  0  -0.055699  0  3.740895  0  0  -0.071448  0  3.995341  0  0  -0.071862  0  4.013748  0  0.011715  0  -0.087169  -0.071022  0  3.982756  0
C  C83  1  0.67058434  0.18222738  0.06277784  1  0  -0.05705  0  3.74455  0  0  -0.072787  0  3.999263  0  0  -0.073241  0  4.017656  0  -0.048841  0  -0.088435  -0.072349  0  3.98666  0
C  C84  1  0.14985110  0.81299224  0.47187534  1  0  -0.113308  0  3.748402  0  0  -0.135604  0  4.002827  0  0  -0.138314  0  4.022937  0  -0.069545  0  -0.08956  -0.133671  0  3.989146  0
C  C85  1  0.81369151  0.14948478  0.52828632  1  0  -0.111418  0  3.745188  0  0  -0.133196  0  3.999373  0  0  -0.135934  0  4.019542  0  -0.080455  0  -0.088324  -0.13125  0  3.985633  0
C  C86  1  0.31369147  0.64948476  0.97171458  1  0  -0.111304  0  3.745114  0  0  -0.1331  0  3.999282  0  0  -0.135838  0  4.019452  0  -0.080443  0  -0.088301  -0.131153  0  3.985535  0
C  C87  1  0.64983433  0.31300651  0.02812106  1  0  -0.11304  0  3.748291  0  0  -0.135271  0  4.002629  0  0  -0.137981  0  4.02274  0  -0.069539  0  -0.089534  -0.133337  0  3.988948  0
C  C88  1  0.21704059  0.83450741  0.53015418  1  0  0.048684  0  3.799045  0  0  0.069425  0  4.020934  0  0  0.069246  0  4.044987  0  -0.042112  0  -0.008896  0.069525  0  4.004603  0
C  C89  1  0.83509869  0.21675311  0.46991291  1  0  0.048358  0  3.798506  0  0  0.068035  0  4.020841  0  0  0.06787  0  4.044892  0  -0.021036  0  -0.0098  0.068146  0  4.004478  0
C  C90  1  0.33509935  0.71674953  0.03008889  1  0  0.048378  0  3.798459  0  0  0.068072  0  4.020712  0  0  0.067909  0  4.044761  0  -0.021052  0  -0.009777  0.068185  0  4.004349  0
C  C91  1  0.71703533  0.33452049  0.96984266  1  0  0.048655  0  3.799179  0  0  0.069435  0  4.021038  0  0  0.069256  0  4.045094  0  -0.041405  0  -0.008836  0.069535  0  4.004708  0
C  C92  1  0.19860668  0.96666221  0.56738355  1  0  -0.120405  0  3.707985  0  0  -0.152964  0  3.958287  0  0  -0.153504  0  3.977655  0  -0.008012  0  -0.087013  -0.15245  0  3.945153  0
C  C93  1  0.96640045  0.19829337  0.43286772  1  0  -0.121514  0  3.706885  0  0  -0.154167  0  3.95789  0  0  -0.15481  0  3.977366  0  -0.01678  0  -0.086983  -0.153595  0  3.944672  0
C  C94  1  0.46640594  0.69829098  0.06713183  1  0  -0.121607  0  3.706765  0  0  -0.154286  0  3.957753  0  0  -0.154928  0  3.977226  0  -0.01679  0  -0.087015  -0.153713  0  3.944536  0
C  C95  1  0.69860461  0.46667291  0.93261330  1  0  -0.120434  0  3.708104  0  0  -0.152894  0  3.958427  0  0  -0.15343  0  3.977794  0  -0.008067  0  -0.086962  -0.152384  0  3.945293  0
C  C96  1  0.45809978  0.90233408  0.70063313  1  0  0.656902  0  3.898283  0  0  0.60375  0  4.195279  0  0  0.638102  0  4.187869  0  1.565874  0  0.208751  0.580342  0  4.199588  0
C  C97  1  0.90160769  0.45779884  0.29903140  1  0  0.653982  0  3.901026  0  0  0.600499  0  4.198151  0  0  0.634811  0  4.190828  0  1.56834  0  0.207016  0.577118  0  4.202399  0
C  C98  1  0.40161115  0.95779883  0.20096860  1  0  0.654018  0  3.901035  0  0  0.600583  0  4.198103  0  0  0.6349  0  4.190777  0  1.567625  0  0.207068  0.577202  0  4.202352  0
C  C99  1  0.95810200  0.40233291  0.79936642  1  0  0.657069  0  3.898151  0  0  0.603842  0  4.195248  0  0  0.638197  0  4.187831  0  1.565947  0  0.208739  0.580431  0  4.199562  0
C  C100  1  0.93277757  0.64527938  0.66575390  1  0  0.160245  0  3.650337  0  0  0.126745  0  3.902403  0  0  0.135218  0  3.919957  0  0.520576  0  0.05848  0.121205  0  3.890553  0
C  C101  1  0.64329785  0.93367014  0.33433616  1  0  0.162836  0  3.650715  0  0  0.129357  0  3.902929  0  0  0.137813  0  3.920469  0  0.477816  0  0.060297  0.123829  0  3.891081  0
C  C102  1  0.14330215  0.43367371  0.16566384  1  0  0.162826  0  3.650698  0  0  0.129303  0  3.902923  0  0  0.137757  0  3.920462  0  0.478147  0  0.060267  0.123774  0  3.891075  0
C  C103  1  0.43277395  0.14527583  0.83424610  1  0  0.160175  0  3.65044  0  0  0.126731  0  3.902414  0  0  0.135203  0  3.919971  0  0.520598  0  0.0585  0.121192  0  3.890566  0
C  C104  1  0.84160938  0.72443445  0.62709347  1  0  -0.15504  0  3.636135  0  0  -0.175705  0  3.884556  0  0  -0.184504  0  3.905836  0  -0.078215  0  -0.064541  -0.170081  0  3.870436  0
C  C105  1  0.72322072  0.84268772  0.37289032  1  0  -0.15776  0  3.637934  0  0  -0.178114  0  3.886563  0  0  -0.186983  0  3.907827  0  -0.037778  0  -0.065941  -0.172468  0  3.872425  0
C  C106  1  0.22322588  0.34268892  0.12711148  1  0  -0.157788  0  3.637923  0  0  -0.178104  0  3.886574  0  0  -0.186969  0  3.907836  0  -0.038106  0  -0.065904  -0.172459  0  3.872435  0
C  C107  1  0.34160530  0.22442734  0.87290744  1  0  -0.154897  0  3.636054  0  0  -0.175546  0  3.884468  0  0  -0.184355  0  3.905736  0  -0.078326  0  -0.064527  -0.169926  0  3.870353  0
C  C108  1  0.83236708  0.67965899  0.56632624  1  0  0.191655  0  3.788522  0  0  0.192677  0  4.041554  0  0  0.197014  0  4.063988  0  0.311318  0  0.104306  0.18998  0  4.026398  0
C  C109  1  0.67912982  0.83241660  0.43367421  1  0  0.19197  0  3.788585  0  0  0.193759  0  4.040449  0  0  0.198225  0  4.062725  0  0.316654  0  0.105043  0.191059  0  4.025269  0
C  C110  1  0.17913320  0.33241305  0.06632714  1  0  0.192216  0  3.788635  0  0  0.193896  0  4.040641  0  0  0.198359  0  4.062919  0  0.316687  0  0.105083  0.191197  0  4.025447  0
C  C111  1  0.33236751  0.17965069  0.93367466  1  0  0.19154  0  3.788525  0  0  0.192484  0  4.041644  0  0  0.196854  0  4.064025  0  0.311567  0  0.104262  0.189788  0  4.026487  0
C  C112  1  0.91162712  0.55513566  0.54673349  1  0  -0.162597  0  3.714784  0  0  -0.181526  0  3.95907  0  0  -0.19048  0  3.984929  0  0.062357  0  -0.072211  -0.175817  0  3.941876  0
C  C113  1  0.55451951  0.91042648  0.45339394  1  0  -0.16345  0  3.71739  0  0  -0.183328  0  3.960549  0  0  -0.192293  0  3.986429  0  0.062954  0  -0.072729  -0.177671  0  3.943416  0
C  C114  1  0.05452258  0.41042055  0.04660606  1  0  -0.163571  0  3.717595  0  0  -0.183416  0  3.960809  0  0  -0.192383  0  3.986692  0  0.062914  0  -0.072798  -0.177753  0  3.943668  0
C  C115  1  0.41162303  0.05512855  0.95326741  1  0  -0.162612  0  3.714771  0  0  -0.181555  0  3.959066  0  0  -0.190535  0  3.984949  0  0.06236  0  -0.072248  -0.175846  0  3.941871  0
C  C116  1  0.99824221  0.48141670  0.58814844  1  0  0.13578  0  3.69899  0  0  0.106787  0  3.945153  0  0  0.113016  0  3.965836  0  0.441013  0  0.049607  0.102812  0  3.931215  0
C  C117  1  0.48023719  0.99715481  0.41210373  1  0  0.135354  0  3.701381  0  0  0.106965  0  3.947208  0  0  0.113146  0  3.967963  0  0.411898  0  0.049218  0.103026  0  3.933193  0
C  C118  1  0.98023676  0.49715126  0.08789492  1  0  0.135353  0  3.701405  0  0  0.106926  0  3.947217  0  0  0.113104  0  3.967976  0  0.411415  0  0.049257  0.102983  0  3.933198  0
C  C119  1  0.49824389  0.98141194  0.91185156  1  0  0.135896  0  3.698784  0  0  0.106899  0  3.94497  0  0  0.113127  0  3.965648  0  0.440976  0  0.049653  0.102925  0  3.931034  0
N  N120  1  0.01023121  0.52631809  0.64656328  1  0  -0.338265  0  3.273385  0  0  -0.253526  0  3.548376  0  0  -0.274768  0  3.564165  0  -1.256819  0  -0.319493  -0.239257  0  3.53761  0
N  N121  1  0.52435740  0.01011193  0.35367358  1  0  -0.339913  0  3.275137  0  0  -0.256002  0  3.551007  0  0  -0.277189  0  3.566748  0  -1.259297  0  -0.321092  -0.241748  0  3.540234  0
N  N122  1  0.02436234  0.51011429  0.14632597  1  0  -0.339932  0  3.275026  0  0  -0.255933  0  3.55082  0  0  -0.277119  0  3.566564  0  -1.258772  0  -0.321066  -0.241677  0  3.540045  0
N  N123  1  0.51022962  0.02631454  0.85343627  1  0  -0.338225  0  3.27333  0  0  -0.253524  0  3.54832  0  0  -0.274766  0  3.564107  0  -1.256832  0  -0.319478  -0.239259  0  3.537559  0
N  N124  1  0.74295385  0.76623763  0.52769732  1  0  -0.12206  0  2.947673  0  0  -0.099104  0  3.229886  0  0  -0.098352  0  3.237257  0  -0.428378  0  -0.12215  -0.099583  0  3.224952  0
N  N125  1  0.76699820  0.74397999  0.47223963  1  0  -0.121947  0  2.94504  0  0  -0.099506  0  3.22684  0  0  -0.098795  0  3.23415  0  -0.479721  0  -0.122563  -0.100002  0  3.221921  0
N  N126  1  0.26699879  0.24397287  0.02776172  1  0  -0.122019  0  2.945113  0  0  -0.099586  0  3.226953  0  0  -0.098873  0  3.234266  0  -0.479862  0  -0.122561  -0.100083  0  3.222032  0
N  N127  1  0.24295591  0.26623290  0.97230358  1  0  -0.122053  0  2.947755  0  0  -0.099026  0  3.229943  0  0  -0.098281  0  3.237302  0  -0.42847  0  -0.12214  -0.099506  0  3.22501  0
O  O128  1  0.20349530  0.07819282  0.72076038  1  0  -0.61169  0  1.899796  0  0  -0.569644  0  2.115935  0  0  -0.592903  0  2.107454  0  -1.153582  0  -0.323851  -0.553055  0  2.121129  0
O  O129  1  0.07662453  0.20091045  0.27948728  1  0  -0.612769  0  1.90145  0  0  -0.57091  0  2.118178  0  0  -0.594191  0  2.109484  0  -1.156779  0  -0.32365  -0.554289  0  2.123511  0
O  O130  1  0.57663321  0.70090806  0.22051407  1  0  -0.612993  0  1.900909  0  0  -0.571125  0  2.117699  0  0  -0.594411  0  2.109007  0  -1.156535  0  -0.32376  -0.554498  0  2.123029  0
O  O131  1  0.70350933  0.57820469  0.77922881  1  0  -0.611877  0  1.898805  0  0  -0.569847  0  2.114892  0  0  -0.593119  0  2.106412  0  -1.153178  0  -0.323943  -0.553248  0  2.120086  0
O  O132  1  0.34515458  0.48759886  0.73651203  1  0  -0.831693  0  1.894305  0  0  -0.766388  0  2.115213  0  0  -0.787891  0  2.079751  0  -1.240528  0  -0.562003  -0.751325  0  2.139879  0
O  O133  1  0.48842230  0.34713071  0.26446963  1  0  -0.832339  0  1.895096  0  0  -0.766629  0  2.116104  0  0  -0.788166  0  2.080542  0  -1.243021  0  -0.561446  -0.751546  0  2.140853  0
O  O134  1  0.98842662  0.84713069  0.23552902  1  0  -0.832462  0  1.895021  0  0  -0.766762  0  2.116034  0  0  -0.788296  0  2.080472  0  -1.243088  0  -0.56149  -0.751681  0  2.140786  0
O  O135  1  0.84515237  0.98760241  0.76348707  1  0  -0.831679  0  1.894317  0  0  -0.766378  0  2.115227  0  0  -0.78788  0  2.079766  0  -1.240583  0  -0.561986  -0.751315  0  2.139893  0
O  O136  1  0.20393763  0.24571205  0.64166036  1  0  -0.679289  0  2.016183  0  0  -0.6067  0  2.28134  0  0  -0.636586  0  2.26581  0  -1.170466  0  -0.342894  -0.585493  0  2.291045  0
O  O137  1  0.24351113  0.20441731  0.35841259  1  0  -0.678848  0  2.013543  0  0  -0.605652  0  2.278114  0  0  -0.635656  0  2.262545  0  -1.176647  0  -0.341278  -0.584385  0  2.287903  0
O  O138  1  0.74352043  0.70441967  0.14158561  1  0  -0.678825  0  2.013825  0  0  -0.605576  0  2.278411  0  0  -0.635576  0  2.262835  0  -1.176263  0  -0.341247  -0.584307  0  2.288198  0
O  O139  1  0.70394250  0.74570728  0.85833784  1  0  -0.679173  0  2.0165  0  0  -0.606623  0  2.2816  0  0  -0.636506  0  2.266072  0  -1.170513  0  -0.342866  -0.585426  0  2.29132  0
O  O140  1  0.46244359  0.78848816  0.73969794  1  0  -0.664386  0  2.064583  0  0  -0.581709  0  2.311936  0  0  -0.612154  0  2.295944  0  -1.165955  0  -0.315206  -0.560352  0  2.322235  0
O  O141  1  0.78846697  0.46177732  0.26009537  1  0  -0.664876  0  2.063286  0  0  -0.581898  0  2.310864  0  0  -0.612364  0  2.294945  0  -1.167403  0  -0.315049  -0.560534  0  2.321125  0
O  O142  1  0.28847105  0.96178206  0.23990418  1  0  -0.664957  0  2.063322  0  0  -0.58196  0  2.310858  0  0  -0.612425  0  2.294934  0  -1.166984  0  -0.315083  -0.560596  0  2.321121  0
O  O143  1  0.96245032  0.28848579  0.76030432  1  0  -0.664419  0  2.064688  0  0  -0.581684  0  2.312042  0  0  -0.612135  0  2.296066  0  -1.165963  0  -0.315193  -0.560326  0  2.322344  0
O  O144  1  0.54236546  0.03359793  0.70687029  1  0  -0.600314  0  1.897784  0  0  -0.548124  0  2.115607  0  0  -0.573492  0  2.106359  0  -1.158976  0  -0.309653  -0.530246  0  2.121352  0
O  O145  1  0.03158917  0.54273453  0.29260105  1  0  -0.599015  0  1.899916  0  0  -0.54713  0  2.118109  0  0  -0.572491  0  2.108915  0  -1.161079  0  -0.309401  -0.52924  0  2.123797  0
O  O146  1  0.53159691  0.04273098  0.20739895  1  0  -0.598994  0  1.899951  0  0  -0.547155  0  2.11814  0  0  -0.572513  0  2.108939  0  -1.160837  0  -0.309414  -0.529269  0  2.123835  0
O  O147  1  0.04237218  0.53360505  0.79312655  1  0  -0.600469  0  1.897576  0  0  -0.548251  0  2.115437  0  0  -0.573622  0  2.106185  0  -1.159104  0  -0.309673  -0.530372  0  2.121187  0
