# generated using pymatgen
data_RbH5C6(NO3)2
_symmetry_space_group_name_H-M   'P 1'
_cell_length_a   5.36723784
_cell_length_b   7.73950013
_cell_length_c   21.94461434
_cell_angle_alpha   89.99957494
_cell_angle_beta   89.99966890
_cell_angle_gamma   87.77675445
_symmetry_Int_Tables_number   1
_chemical_formula_structural   RbH5C6(NO3)2
_chemical_formula_sum   'Rb4 H20 C24 N8 O24'
_cell_volume   910.88735110
_cell_formula_units_Z   4
loop_
 _symmetry_equiv_pos_site_id
 _symmetry_equiv_pos_as_xyz
  1  'x, y, z'
loop_
 _atom_site_type_symbol
 _atom_site_label
 _atom_site_symmetry_multiplicity
 _atom_site_fract_x
 _atom_site_fract_y
 _atom_site_fract_z
 _atom_site_occupancy
 _atom_site_hle17_bader_spin_density
 _atom_site_hle17_ddec_charge
 _atom_site_hle17_ddec_spin_density
 _atom_site_hle17_ddec_sum_bond_order
 _atom_site_hle17_magmom
 _atom_site_hse06_10hf_bader_spin_density
 _atom_site_hse06_10hf_ddec_charge
 _atom_site_hse06_10hf_ddec_spin_density
 _atom_site_hse06_10hf_ddec_sum_bond_order
 _atom_site_hse06_10hf_magmom
 _atom_site_hse06_bader_spin_density
 _atom_site_hse06_ddec_charge
 _atom_site_hse06_ddec_spin_density
 _atom_site_hse06_ddec_sum_bond_order
 _atom_site_hse06_magmom
 _atom_site_pbe_bader_spin_density
 _atom_site_pbe_cm5_charge
 _atom_site_pbe_ddec_charge
 _atom_site_pbe_ddec_spin_density
 _atom_site_pbe_ddec_sum_bond_order
 _atom_site_pbe_magmom
Rb  Rb0  1  0.81289519  0.76169295  0.98175479  1  0  0.944881  0  0.447378  0  0  0.897116  0  0.646037  0  0  0.91226  0  0.621809  0  0  0.773035  0.885874  0  0.663365  0
Rb  Rb1  1  0.18710982  0.73832025  0.48175702  1  0  0.944859  0  0.447399  0  0  0.897109  0  0.646027  0  0  0.912252  0  0.621801  0  0  0.773056  0.885876  0  0.663356  0
Rb  Rb2  1  0.18711208  0.23831285  0.01824770  1  0  0.944886  0  0.447372  0  0  0.897113  0  0.646028  0  0  0.912256  0  0.621802  0  0  0.773038  0.885871  0  0.663354  0
Rb  Rb3  1  0.81289195  0.26169220  0.51824273  1  0  0.944884  0  0.447336  0  0  0.89712  0  0.645968  0  0  0.912262  0  0.621744  0  0  0.773018  0.885889  0  0.663294  0
H  H4  1  0.56048192  0.09195328  0.91520164  1  0  0.398649  0  0.91103  0  0  0.368721  0  0.975304  0  0  0.379456  0  0.959097  0  0  0.28461  0.361129  0  0.986762  0
H  H5  1  0.43951843  0.40806296  0.41520386  1  0  0.398671  0  0.911015  0  0  0.368744  0  0.975277  0  0  0.379479  0  0.95907  0  0  0.284593  0.361155  0  0.986729  0
H  H6  1  0.43952535  0.90805252  0.08479173  1  0  0.398578  0  0.911087  0  0  0.368674  0  0.975317  0  0  0.379402  0  0.95912  0  0  0.284567  0.361086  0  0.986768  0
H  H7  1  0.56048525  0.59195201  0.58479908  1  0  0.39863  0  0.911065  0  0  0.368714  0  0.975319  0  0  0.379444  0  0.959118  0  0  0.284595  0.361124  0  0.986774  0
H  H8  1  0.74288971  0.23167765  0.93419273  1  0  0.405281  0  0.907417  0  0  0.37673  0  0.96946  0  0  0.38792  0  0.953097  0  0  0.279347  0.36881  0  0.981019  0
H  H9  1  0.25712121  0.26832239  0.43419066  1  0  0.405284  0  0.907429  0  0  0.376731  0  0.969475  0  0  0.38792  0  0.953112  0  0  0.279324  0.368812  0  0.981033  0
H  H10  1  0.25711004  0.76832453  0.06580657  1  0  0.405316  0  0.907379  0  0  0.376766  0  0.969422  0  0  0.387955  0  0.95306  0  0  0.279325  0.368845  0  0.980983  0
H  H11  1  0.74287489  0.73168509  0.56580636  1  0  0.40529  0  0.907425  0  0  0.376682  0  0.969577  0  0  0.387879  0  0.953202  0  0  0.279309  0.368763  0  0.981135  0
H  H12  1  0.53351384  0.40052661  0.23278090  1  0  0.128236  0  0.959501  0  0  0.131655  0  1.028968  0  0  0.135456  0  1.02507  0  0  0.120164  0.128926  0  1.031594  0
H  H13  1  0.46648397  0.09946194  0.73277471  1  0  0.128267  0  0.959502  0  0  0.131712  0  1.028942  0  0  0.135504  0  1.025081  0  0  0.120173  0.128984  0  1.031571  0
H  H14  1  0.46649520  0.59947267  0.76722705  1  0  0.128212  0  0.959487  0  0  0.131701  0  1.028912  0  0  0.135477  0  1.025091  0  0  0.120179  0.128974  0  1.031537  0
H  H15  1  0.53350993  0.90052365  0.26722367  1  0  0.128251  0  0.95962  0  0  0.131752  0  1.028988  0  0  0.135524  0  1.02514  0  0  0.120195  0.129026  0  1.031614  0
H  H16  1  0.16865041  0.68172145  0.29145029  1  0  0.124297  0  0.949686  0  0  0.129647  0  1.014749  0  0  0.133556  0  1.010851  0  0  0.114813  0.126753  0  1.017662  0
H  H17  1  0.83136355  0.81827284  0.79144831  1  0  0.124255  0  0.949796  0  0  0.129598  0  1.014866  0  0  0.133508  0  1.010962  0  0  0.114799  0.126703  0  1.017779  0
H  H18  1  0.83137925  0.31828487  0.70855311  1  0  0.124431  0  0.949606  0  0  0.129775  0  1.014638  0  0  0.133682  0  1.010741  0  0  0.114841  0.126883  0  1.017549  0
H  H19  1  0.16862301  0.18172074  0.20854688  1  0  0.124291  0  0.949719  0  0  0.129644  0  1.014778  0  0  0.133552  0  1.010882  0  0  0.114773  0.126747  0  1.017693  0
H  H20  1  0.28844779  0.72513215  0.18339719  1  0  0.125394  0  0.959703  0  0  0.133477  0  1.021704  0  0  0.13747  0  1.020504  0  0  0.106748  0.130619  0  1.022838  0
H  H21  1  0.71153837  0.77486113  0.68339645  1  0  0.125315  0  0.959627  0  0  0.133397  0  1.021668  0  0  0.137396  0  1.02046  0  0  0.106707  0.13054  0  1.022799  0
H  H22  1  0.71155553  0.27485957  0.81660529  1  0  0.125384  0  0.95968  0  0  0.133406  0  1.02177  0  0  0.137404  0  1.020563  0  0  0.106705  0.130548  0  1.022901  0
H  H23  1  0.28845018  0.22514014  0.31660239  1  0  0.1254  0  0.959513  0  0  0.13344  0  1.021599  0  0  0.137435  0  1.020399  0  0  0.106721  0.130584  0  1.022732  0
C  C24  1  0.98534336  0.58668412  0.14385867  1  0  0.391999  0  3.835297  0  0  0.370728  0  4.112529  0  0  0.394525  0  4.121237  0  0  0.12038  0.355076  0  4.10607  0
C  C25  1  0.01463988  0.91331255  0.64384814  1  0  0.392143  0  3.835332  0  0  0.371099  0  4.112218  0  0  0.394904  0  4.120914  0  0  0.120585  0.355447  0  4.105762  0
C  C26  1  0.01465822  0.41331542  0.85614883  1  0  0.392077  0  3.835036  0  0  0.370801  0  4.112238  0  0  0.394603  0  4.12094  0  0  0.120415  0.355149  0  4.105779  0
C  C27  1  0.98534097  0.08667348  0.35614249  1  0  0.391988  0  3.83535  0  0  0.370816  0  4.112453  0  0  0.394615  0  4.121156  0  0  0.120495  0.355166  0  4.105993  0
C  C28  1  0.76615667  0.49172886  0.16134073  1  0  -0.046538  0  3.604562  0  0  -0.063884  0  3.858702  0  0  -0.077919  0  3.879541  0  0  0.069138  -0.055124  0  3.844791  0
C  C29  1  0.23384076  0.00826742  0.66133838  1  0  -0.046759  0  3.604341  0  0  -0.064159  0  3.858511  0  0  -0.078201  0  3.879351  0  0  0.06907  -0.055391  0  3.844599  0
C  C30  1  0.23385990  0.50827533  0.83866358  1  0  -0.04673  0  3.604737  0  0  -0.063963  0  3.858854  0  0  -0.077997  0  3.879691  0  0  0.069135  -0.055202  0  3.844942  0
C  C31  1  0.76615493  0.99171293  0.33865955  1  0  -0.046655  0  3.60451  0  0  -0.063903  0  3.858606  0  0  -0.077939  0  3.879441  0  0  0.069133  -0.055137  0  3.84469  0
C  C32  1  0.69837691  0.47126908  0.22194156  1  0  -0.097913  0  3.74585  0  0  -0.13731  0  4.01828  0  0  -0.126995  0  4.034377  0  0  -0.068764  -0.143344  0  4.007026  0
C  C33  1  0.30164555  0.02873173  0.72193676  1  0  -0.097804  0  3.745694  0  0  -0.137218  0  4.018155  0  0  -0.126911  0  4.034246  0  0  -0.068789  -0.143253  0  4.006899  0
C  C34  1  0.30164337  0.52873369  0.77806640  1  0  -0.097678  0  3.745832  0  0  -0.137244  0  4.018373  0  0  -0.126947  0  4.034474  0  0  -0.068786  -0.143281  0  4.007121  0
C  C35  1  0.69834849  0.97126289  0.27805935  1  0  -0.097878  0  3.745982  0  0  -0.137399  0  4.018441  0  0  -0.127068  0  4.034557  0  0  -0.068831  -0.143426  0  4.007166  0
C  C36  1  0.84126794  0.53979589  0.26810984  1  0  0.045242  0  3.753468  0  0  0.030385  0  4.013949  0  0  0.017891  0  4.040828  0  0  0.06434  0.038116  0  3.995841  0
C  C37  1  0.15873540  0.96020693  0.76810578  1  0  0.045002  0  3.753207  0  0  0.030151  0  4.013741  0  0  0.017658  0  4.040609  0  0  0.064251  0.037882  0  3.995638  0
C  C38  1  0.15875998  0.46021824  0.73189447  1  0  0.044977  0  3.752972  0  0  0.030193  0  4.013499  0  0  0.0177  0  4.040366  0  0  0.064338  0.037923  0  3.995398  0
C  C39  1  0.84124362  0.03978174  0.23188714  1  0  0.045276  0  3.753407  0  0  0.030419  0  4.013931  0  0  0.017924  0  4.040803  0  0  0.064462  0.038148  0  3.995837  0
C  C40  1  0.05818910  0.63089695  0.25438122  1  0  -0.061125  0  3.735009  0  0  -0.084089  0  3.993696  0  0  -0.077868  0  4.012991  0  0  -0.077263  -0.087556  0  3.980315  0
C  C41  1  0.94181426  0.86908932  0.75438028  1  0  -0.060969  0  3.734996  0  0  -0.083994  0  3.993728  0  0  -0.077769  0  4.013014  0  0  -0.077248  -0.08746  0  3.980346  0
C  C42  1  0.94183493  0.36910699  0.74562035  1  0  -0.061353  0  3.735171  0  0  -0.084314  0  3.993855  0  0  -0.078086  0  4.013134  0  0  -0.077288  -0.087785  0  3.980473  0
C  C43  1  0.05815727  0.13089703  0.24561492  1  0  -0.061005  0  3.735209  0  0  -0.084006  0  3.993887  0  0  -0.077785  0  4.013182  0  0  -0.077103  -0.087473  0  3.980508  0
C  C44  1  0.12418376  0.65343234  0.19476970  1  0  -0.18719  0  3.665956  0  0  -0.210567  0  3.926861  0  0  -0.224159  0  3.948407  0  0  -0.104404  -0.201876  0  3.912365  0
C  C45  1  0.87581916  0.84657309  0.69476984  1  0  -0.187136  0  3.665784  0  0  -0.210506  0  3.926604  0  0  -0.224099  0  3.948142  0  0  -0.104329  -0.201812  0  3.912101  0
C  C46  1  0.87583272  0.34656539  0.80523142  1  0  -0.187065  0  3.665964  0  0  -0.21037  0  3.926827  0  0  -0.223958  0  3.94836  0  0  -0.104328  -0.201677  0  3.912325  0
C  C47  1  0.12417117  0.15342296  0.30522444  1  0  -0.18725  0  3.665924  0  0  -0.210607  0  3.926865  0  0  -0.224201  0  3.948412  0  0  -0.104509  -0.201916  0  3.912365  0
N  N48  1  0.61094353  0.41122742  0.11706360  1  0  0.491004  0  3.951691  0  0  0.548406  0  4.204117  0  0  0.571577  0  4.213001  0  0  0.023279  0.533018  0  4.198059  0
N  N49  1  0.38903790  0.08876503  0.61705391  1  0  0.49133  0  3.951585  0  0  0.548718  0  4.204142  0  0  0.571894  0  4.213021  0  0  0.023365  0.533327  0  4.198085  0
N  N50  1  0.38905057  0.58877108  0.88294390  1  0  0.490846  0  3.95195  0  0  0.548184  0  4.20452  0  0  0.571357  0  4.213402  0  0  0.023085  0.532796  0  4.198459  0
N  N51  1  0.61095043  0.91122204  0.38293991  1  0  0.491001  0  3.951836  0  0  0.548293  0  4.204459  0  0  0.571464  0  4.213344  0  0  0.023167  0.532905  0  4.198397  0
N  N52  1  0.77070095  0.51226666  0.32987270  1  0  0.470263  0  3.961305  0  0  0.511983  0  4.242363  0  0  0.533566  0  4.254973  0  0  0.040978  0.4977  0  4.233758  0
N  N53  1  0.22930870  0.98773744  0.82986662  1  0  0.470229  0  3.961567  0  0  0.511934  0  4.242604  0  0  0.533513  0  4.255216  0  0  0.040895  0.497652  0  4.234  0
N  N54  1  0.22931384  0.48774276  0.67013343  1  0  0.470511  0  3.960937  0  0  0.512229  0  4.241954  0  0  0.533806  0  4.254556  0  0  0.040929  0.497946  0  4.233357  0
N  N55  1  0.77068909  0.01225835  0.17013085  1  0  0.470118  0  3.96144  0  0  0.511793  0  4.242521  0  0  0.533364  0  4.255138  0  0  0.040728  0.497507  0  4.233928  0
O  O56  1  0.05601683  0.60970024  0.08940684  1  0  -0.591658  0  2.022164  0  0  -0.555622  0  2.255159  0  0  -0.580552  0  2.251281  0  0  -0.36756  -0.538243  0  2.257294  0
O  O57  1  0.94394713  0.89030968  0.58940583  1  0  -0.591759  0  2.02263  0  0  -0.555699  0  2.255518  0  0  -0.580628  0  2.25163  0  0  -0.367625  -0.538325  0  2.25766  0
O  O58  1  0.94398095  0.39029554  0.91059792  1  0  -0.59168  0  2.022321  0  0  -0.555627  0  2.25529  0  0  -0.580557  0  2.251411  0  0  -0.367563  -0.538246  0  2.257423  0
O  O59  1  0.05603027  0.10969456  0.41058937  1  0  -0.591768  0  2.022502  0  0  -0.555694  0  2.255461  0  0  -0.580618  0  2.251577  0  0  -0.367637  -0.538322  0  2.257602  0
O  O60  1  0.64928253  0.43323998  0.06149819  1  0  -0.403355  0  1.797716  0  0  -0.399432  0  2.00959  0  0  -0.409529  0  2.003851  0  0  -0.185491  -0.392488  0  2.013554  0
O  O61  1  0.35067954  0.06675928  0.56149365  1  0  -0.403308  0  1.798072  0  0  -0.399304  0  2.009935  0  0  -0.409403  0  2.004199  0  0  -0.185388  -0.392356  0  2.013898  0
O  O62  1  0.35070060  0.56677311  0.93850521  1  0  -0.403125  0  1.79822  0  0  -0.399149  0  2.010091  0  0  -0.409243  0  2.004356  0  0  -0.185347  -0.392205  0  2.014052  0
O  O63  1  0.64928851  0.93324399  0.43850246  1  0  -0.403279  0  1.798069  0  0  -0.399265  0  2.010007  0  0  -0.409361  0  2.004272  0  0  -0.185372  -0.392318  0  2.01397  0
O  O64  1  0.43983371  0.31852053  0.13587259  1  0  -0.418969  0  1.804463  0  0  -0.410449  0  2.020955  0  0  -0.425868  0  2.018547  0  0  -0.191983  -0.399938  0  2.0226  0
O  O65  1  0.56014386  0.18148722  0.63586144  1  0  -0.419369  0  1.804058  0  0  -0.410871  0  2.020588  0  0  -0.426287  0  2.018165  0  0  -0.192216  -0.400382  0  2.022293  0
O  O66  1  0.56017909  0.68148120  0.86413673  1  0  -0.419034  0  1.804094  0  0  -0.410565  0  2.020681  0  0  -0.425983  0  2.018269  0  0  -0.192044  -0.400057  0  2.022341  0
O  O67  1  0.43983715  0.81850915  0.36413467  1  0  -0.418989  0  1.804184  0  0  -0.410515  0  2.020793  0  0  -0.425932  0  2.018376  0  0  -0.192004  -0.400017  0  2.022476  0
O  O68  1  0.57915085  0.42753247  0.33995473  1  0  -0.412609  0  1.834184  0  0  -0.379111  0  2.042487  0  0  -0.393846  0  2.038564  0  0  -0.140004  -0.369389  0  2.045516  0
O  O69  1  0.42086188  0.07246787  0.83994550  1  0  -0.412451  0  1.834023  0  0  -0.379088  0  2.042488  0  0  -0.393819  0  2.038574  0  0  -0.139933  -0.369363  0  2.04551  0
O  O70  1  0.42086771  0.57247940  0.66005277  1  0  -0.412549  0  1.833812  0  0  -0.379153  0  2.04227  0  0  -0.393863  0  2.038345  0  0  -0.139895  -0.369427  0  2.045295  0
O  O71  1  0.57915251  0.92751572  0.16004513  1  0  -0.412507  0  1.833982  0  0  -0.379059  0  2.042315  0  0  -0.393753  0  2.038362  0  0  -0.139918  -0.369338  0  2.045342  0
O  O72  1  0.90043666  0.57116686  0.37172059  1  0  -0.39483  0  1.76592  0  0  -0.388293  0  1.984839  0  0  -0.398395  0  1.980675  0  0  -0.157357  -0.381434  0  1.987767  0
O  O73  1  0.09959643  0.92883699  0.87171398  1  0  -0.394694  0  1.766302  0  0  -0.388195  0  1.985211  0  0  -0.398297  0  1.981051  0  0  -0.157296  -0.381318  0  1.988091  0
O  O74  1  0.09958573  0.42885135  0.62828463  1  0  -0.394897  0  1.765901  0  0  -0.388352  0  1.984827  0  0  -0.398458  0  1.980666  0  0  -0.157369  -0.38147  0  1.987706  0
O  O75  1  0.90040143  0.07116396  0.12827984  1  0  -0.394678  0  1.766043  0  0  -0.388215  0  1.984999  0  0  -0.398327  0  1.980849  0  0  -0.157277  -0.381328  0  1.987868  0
O  O76  1  0.65056258  0.13348530  0.95111601  1  0  -0.911131  0  1.785901  0  0  -0.870126  0  1.945413  0  0  -0.888579  0  1.914482  0  0  -0.704015  -0.856687  0  1.966969  0
O  O77  1  0.34941269  0.36652212  0.45111622  1  0  -0.911088  0  1.785889  0  0  -0.870084  0  1.945397  0  0  -0.888538  0  1.914467  0  0  -0.703948  -0.856641  0  1.966946  0
O  O78  1  0.34941666  0.86651759  0.04887964  1  0  -0.911058  0  1.785944  0  0  -0.870071  0  1.94544  0  0  -0.888526  0  1.914519  0  0  -0.703944  -0.856633  0  1.966993  0
O  O79  1  0.65056840  0.63347941  0.54888535  1  0  -0.911117  0  1.78591  0  0  -0.870085  0  1.945413  0  0  -0.888545  0  1.914483  0  0  -0.703978  -0.856643  0  1.966965  0
