# generated using pymatgen
data_ErH5C6(NO3)2
_symmetry_space_group_name_H-M   'P 1'
_cell_length_a   5.99248070
_cell_length_b   11.81984000
_cell_length_c   12.40050560
_cell_angle_alpha   77.12538145
_cell_angle_beta   76.00263231
_cell_angle_gamma   75.28731838
_symmetry_Int_Tables_number   1
_chemical_formula_structural   ErH5C6(NO3)2
_chemical_formula_sum   'Er4 H20 C24 N8 O24'
_cell_volume   812.02582183
_cell_formula_units_Z   4
loop_
 _symmetry_equiv_pos_site_id
 _symmetry_equiv_pos_as_xyz
  1  'x, y, z'
loop_
 _atom_site_type_symbol
 _atom_site_label
 _atom_site_symmetry_multiplicity
 _atom_site_fract_x
 _atom_site_fract_y
 _atom_site_fract_z
 _atom_site_occupancy
 _atom_site_hle17_bader_spin_density
 _atom_site_hle17_ddec_charge
 _atom_site_hle17_ddec_spin_density
 _atom_site_hle17_ddec_sum_bond_order
 _atom_site_hle17_magmom
 _atom_site_hse06_10hf_bader_spin_density
 _atom_site_hse06_10hf_ddec_charge
 _atom_site_hse06_10hf_ddec_spin_density
 _atom_site_hse06_10hf_ddec_sum_bond_order
 _atom_site_hse06_10hf_magmom
 _atom_site_hse06_bader_spin_density
 _atom_site_hse06_ddec_charge
 _atom_site_hse06_ddec_spin_density
 _atom_site_hse06_ddec_sum_bond_order
 _atom_site_hse06_magmom
 _atom_site_pbe_bader_spin_density
 _atom_site_pbe_cm5_charge
 _atom_site_pbe_ddec_charge
 _atom_site_pbe_ddec_spin_density
 _atom_site_pbe_ddec_sum_bond_order
 _atom_site_pbe_magmom
Er  Er0  1  0.56565558  0.97231438  0.63925812  1  0  2.25745  0  1.723544  0  0  2.118748  0  2.197166  0  0  2.167799  0  2.151949  0  0  1.495266  2.081238  0  2.232865  0
Er  Er1  1  0.17748831  0.52753931  0.86074557  1  0  2.258634  0  1.723173  0  0  2.120424  0  2.196231  0  0  2.169478  0  2.150964  0  0  1.49546  2.08284  0  2.232047  0
Er  Er2  1  0.43433947  0.02768739  0.36074612  1  0  2.25747  0  1.72361  0  0  2.118759  0  2.19724  0  0  2.167814  0  2.15201  0  0  1.49528  2.081289  0  2.232872  0
Er  Er3  1  0.82251395  0.47245715  0.13925288  1  0  2.258624  0  1.723122  0  0  2.120387  0  2.196205  0  0  2.169457  0  2.150932  0  0  1.495468  2.082821  0  2.232015  0
H  H4  1  0.30518471  0.14097624  0.78898843  1  0  0.412191  0  0.890779  0  0  0.374959  0  0.971789  0  0  0.385909  0  0.955704  0  0  0.29745  0.367258  0  0.983089  0
H  H5  1  0.23519271  0.35904200  0.71089998  1  0  0.412142  0  0.891722  0  0  0.374844  0  0.972233  0  0  0.38579  0  0.95615  0  0  0.297319  0.367102  0  0.983599  0
H  H6  1  0.69481758  0.85902378  0.21100965  1  0  0.412201  0  0.890794  0  0  0.37495  0  0.971813  0  0  0.385905  0  0.955718  0  0  0.297438  0.367249  0  0.983112  0
H  H7  1  0.76481087  0.64095713  0.28909562  1  0  0.412186  0  0.891619  0  0  0.37489  0  0.972156  0  0  0.385837  0  0.956073  0  0  0.297358  0.367152  0  0.983517  0
H  H8  1  0.14522045  0.15706601  0.69533471  1  0  0.442661  0  0.858404  0  0  0.409458  0  0.92537  0  0  0.422293  0  0.906721  0  0  0.29634  0.400454  0  0.938415  0
H  H9  1  0.99782601  0.34290994  0.80474921  1  0  0.442692  0  0.858632  0  0  0.409545  0  0.925473  0  0  0.422392  0  0.906811  0  0  0.296421  0.400506  0  0.938569  0
H  H10  1  0.85478162  0.84293399  0.30466701  1  0  0.442687  0  0.858368  0  0  0.4094  0  0.925438  0  0  0.422233  0  0.906796  0  0  0.296314  0.400399  0  0.93848  0
H  H11  1  0.00217517  0.65708741  0.19524809  1  0  0.442647  0  0.858689  0  0  0.409529  0  0.925491  0  0  0.422374  0  0.906832  0  0  0.29644  0.40049  0  0.938588  0
H  H12  1  0.16620359  0.93671909  0.57190063  1  0  0.443626  0  0.847671  0  0  0.416709  0  0.904972  0  0  0.426035  0  0.891428  0  0  0.298771  0.410153  0  0.914461  0
H  H13  1  0.67478278  0.56336797  0.92807423  1  0  0.443693  0  0.848388  0  0  0.416404  0  0.906308  0  0  0.425775  0  0.89269  0  0  0.298077  0.409816  0  0.915845  0
H  H14  1  0.83379682  0.06328268  0.42810342  1  0  0.443653  0  0.847621  0  0  0.416747  0  0.904884  0  0  0.426079  0  0.891334  0  0  0.298813  0.410196  0  0.914367  0
H  H15  1  0.32521472  0.43663117  0.07192055  1  0  0.443734  0  0.848313  0  0  0.416442  0  0.906249  0  0  0.425816  0  0.892626  0  0  0.298119  0.409851  0  0.915789  0
H  H16  1  0.27873348  0.51340247  0.33401619  1  0  0.113925  0  0.935703  0  0  0.115312  0  1.006846  0  0  0.120119  0  1.002442  0  0  0.128811  0.111724  0  1.010228  0
H  H17  1  0.12684456  0.98675635  0.16610295  1  0  0.114471  0  0.934163  0  0  0.115785  0  1.005379  0  0  0.120694  0  1.000886  0  0  0.128739  0.112102  0  1.00886  0
H  H18  1  0.72127434  0.48659933  0.66597878  1  0  0.11396  0  0.935677  0  0  0.115366  0  1.006795  0  0  0.120182  0  1.002382  0  0  0.128842  0.111784  0  1.010174  0
H  H19  1  0.87315085  0.01324366  0.83389513  1  0  0.11444  0  0.934171  0  0  0.115795  0  1.005344  0  0  0.120705  0  1.00085  0  0  0.128738  0.112115  0  1.008824  0
H  H20  1  0.12209807  0.44615590  0.54350495  1  0  0.086096  0  0.956926  0  0  0.091863  0  1.026481  0  0  0.094758  0  1.02401  0  0  0.120814  0.089729  0  1.028408  0
H  H21  1  0.11284875  0.05366184  0.95663730  1  0  0.086943  0  0.955819  0  0  0.092819  0  1.024942  0  0  0.095733  0  1.022427  0  0  0.121573  0.090631  0  1.026973  0
H  H22  1  0.87789784  0.55384678  0.45649108  1  0  0.086053  0  0.957021  0  0  0.091852  0  1.026539  0  0  0.094747  0  1.024062  0  0  0.120826  0.089713  0  1.02847  0
H  H23  1  0.88715630  0.94633906  0.04335923  1  0  0.08698  0  0.955809  0  0  0.092869  0  1.024897  0  0  0.09578  0  1.022386  0  0  0.121581  0.090681  0  1.02693  0
C  C24  1  0.81280599  0.20753800  0.60303455  1  0  0.692023  0  3.879154  0  0  0.637618  0  4.180458  0  0  0.673721  0  4.167789  0  0  0.236222  0.613033  0  4.188279  0
C  C25  1  0.62404116  0.29234662  0.89690454  1  0  0.692876  0  3.877944  0  0  0.6395  0  4.178135  0  0  0.675638  0  4.165369  0  0  0.236228  0.614887  0  4.186017  0
C  C26  1  0.18718798  0.79246466  0.39696855  1  0  0.692108  0  3.878864  0  0  0.637415  0  4.180591  0  0  0.673511  0  4.167937  0  0  0.236163  0.612826  0  4.188421  0
C  C27  1  0.37596416  0.70765339  0.10309395  1  0  0.692935  0  3.877875  0  0  0.639577  0  4.178012  0  0  0.675703  0  4.165254  0  0  0.236294  0.614955  0  4.185896  0
C  C28  1  0.65814007  0.28762914  0.52306571  1  0  0.071511  0  3.653035  0  0  0.067349  0  3.904528  0  0  0.068951  0  3.918283  0  0  0.144907  0.065771  0  3.89589  0
C  C29  1  0.46952752  0.21231437  0.97691455  1  0  0.070338  0  3.653397  0  0  0.06437  0  3.906541  0  0  0.065929  0  3.920276  0  0  0.144544  0.062863  0  3.897871  0
C  C30  1  0.34185557  0.71237175  0.47693505  1  0  0.071444  0  3.653061  0  0  0.067368  0  3.904537  0  0  0.068971  0  3.918294  0  0  0.144907  0.065797  0  3.895898  0
C  C31  1  0.53047358  0.78768653  0.02308420  1  0  0.070241  0  3.65346  0  0  0.064322  0  3.90657  0  0  0.065893  0  3.920289  0  0  0.144522  0.062821  0  3.897882  0
C  C32  1  0.74050992  0.31923490  0.40633775  1  0  0.048006  0  3.693086  0  0  0.047986  0  3.936017  0  0  0.046304  0  3.95199  0  0  0.131331  0.048607  0  3.925861  0
C  C33  1  0.46678131  0.18076027  0.09365252  1  0  0.049349  0  3.691882  0  0  0.050475  0  3.93358  0  0  0.048857  0  3.949481  0  0  0.13196  0.050993  0  3.923579  0
C  C34  1  0.25949174  0.68076776  0.59366455  1  0  0.047932  0  3.69315  0  0  0.047954  0  3.936005  0  0  0.04627  0  3.951981  0  0  0.131305  0.04857  0  3.925852  0
C  C35  1  0.53321973  0.81923885  0.90634732  1  0  0.049409  0  3.691805  0  0  0.050477  0  3.933612  0  0  0.04885  0  3.949509  0  0  0.13195  0.050994  0  3.923603  0
C  C36  1  0.97795188  0.26423413  0.34319300  1  0  0.693261  0  3.881211  0  0  0.641506  0  4.180638  0  0  0.676904  0  4.168612  0  0  0.239376  0.617622  0  4.187843  0
C  C37  1  0.58601464  0.23577556  0.15672779  1  0  0.693363  0  3.881658  0  0  0.641756  0  4.180106  0  0  0.677174  0  4.168065  0  0  0.239245  0.617854  0  4.18742  0
C  C38  1  0.02204745  0.73576853  0.65680989  1  0  0.693437  0  3.880968  0  0  0.641645  0  4.180425  0  0  0.677045  0  4.168401  0  0  0.239457  0.617766  0  4.187632  0
C  C39  1  0.41398282  0.76422266  0.84327440  1  0  0.693387  0  3.881678  0  0  0.641696  0  4.180297  0  0  0.677118  0  4.16825  0  0  0.239186  0.617798  0  4.187607  0
C  C40  1  0.38542805  0.44740797  0.38832395  1  0  0.097668  0  3.647342  0  0  0.067616  0  3.913461  0  0  0.070628  0  3.927178  0  0  0.062166  0.065397  0  3.904369  0
C  C41  1  0.22189130  0.05269118  0.11177326  1  0  0.098766  0  3.646537  0  0  0.068767  0  3.912947  0  0  0.071659  0  3.92672  0  0  0.063177  0.066609  0  3.903861  0
C  C42  1  0.61457180  0.55259203  0.61167655  1  0  0.097666  0  3.647274  0  0  0.067593  0  3.913373  0  0  0.070589  0  3.927084  0  0  0.062146  0.065364  0  3.904285  0
C  C43  1  0.77810697  0.94730705  0.88822812  1  0  0.098852  0  3.646547  0  0  0.068795  0  3.912985  0  0  0.07169  0  3.92676  0  0  0.063213  0.066637  0  3.903894  0
C  C44  1  0.30153281  0.41183217  0.50286959  1  0  0.101478  0  3.65791  0  0  0.070469  0  3.921898  0  0  0.074222  0  3.93701  0  0  0.061928  0.067939  0  3.911928  0
C  C45  1  0.21714124  0.08812947  0.99720694  1  0  0.099519  0  3.658528  0  0  0.068393  0  3.922982  0  0  0.072122  0  3.938152  0  0  0.060891  0.065898  0  3.913009  0
C  C46  1  0.69846451  0.58817051  0.49712846  1  0  0.101417  0  3.657907  0  0  0.070409  0  3.921882  0  0  0.074171  0  3.936989  0  0  0.06189  0.067886  0  3.911912  0
C  C47  1  0.78286168  0.91186876  0.00279324  1  0  0.099415  0  3.658709  0  0  0.068309  0  3.923151  0  0  0.072031  0  3.93832  0  0  0.060881  0.065812  0  3.913178  0
N  N48  1  0.43726075  0.33593038  0.57040310  1  0  -0.266344  0  3.094751  0  0  -0.224177  0  3.349115  0  0  -0.23226  0  3.361891  0  0  -0.274865  -0.21872  0  3.340809  0
N  N49  1  0.34436357  0.16400898  0.92961781  1  0  -0.265448  0  3.094791  0  0  -0.223032  0  3.350294  0  0  -0.231075  0  3.363056  0  0  -0.275086  -0.217678  0  3.342005  0
N  N50  1  0.56273728  0.66407230  0.42959596  1  0  -0.266234  0  3.094681  0  0  -0.2241  0  3.349046  0  0  -0.232186  0  3.361824  0  0  -0.274819  -0.21865  0  3.340742  0
N  N51  1  0.65563871  0.83599103  0.07038027  1  0  -0.265351  0  3.094909  0  0  -0.222951  0  3.350389  0  0  -0.230987  0  3.363138  0  0  -0.275067  -0.217592  0  3.34209  0
N  N52  1  0.60690538  0.40211595  0.34151808  1  0  -0.350577  0  3.241239  0  0  -0.306796  0  3.507256  0  0  -0.315112  0  3.523506  0  0  -0.336773  -0.300774  0  3.49637  0
N  N53  1  0.35116077  0.09798409  0.15855436  1  0  -0.352072  0  3.241236  0  0  -0.308374  0  3.506858  0  0  -0.316743  0  3.523181  0  0  -0.337812  -0.302341  0  3.495967  0
N  N54  1  0.39309709  0.59788672  0.65848340  1  0  -0.350562  0  3.241233  0  0  -0.306806  0  3.507248  0  0  -0.315103  0  3.523485  0  0  -0.33678  -0.300768  0  3.496354  0
N  N55  1  0.64883875  0.90201503  0.84144527  1  0  -0.352111  0  3.241197  0  0  -0.308384  0  3.506859  0  0  -0.316752  0  3.523185  0  0  -0.337848  -0.30235  0  3.495969  0
O  O56  1  0.76578656  0.10707574  0.65139347  1  0  -0.734045  0  2.044463  0  0  -0.682007  0  2.307125  0  0  -0.708992  0  2.294417  0  0  -0.401759  -0.662439  0  2.315028  0
O  O57  1  0.52472979  0.39273879  0.84844673  1  0  -0.734522  0  2.043243  0  0  -0.682581  0  2.305083  0  0  -0.709665  0  2.292507  0  0  -0.401615  -0.662985  0  2.312945  0
O  O58  1  0.23420515  0.89292870  0.34860913  1  0  -0.733961  0  2.044304  0  0  -0.681839  0  2.307101  0  0  -0.708827  0  2.294404  0  0  -0.401698  -0.662277  0  2.315005  0
O  O59  1  0.47527927  0.60726121  0.15155318  1  0  -0.734545  0  2.043171  0  0  -0.682609  0  2.304976  0  0  -0.709692  0  2.292411  0  0  -0.401656  -0.66301  0  2.312843  0
O  O60  1  0.97106947  0.25078429  0.61845726  1  0  -0.583436  0  1.968494  0  0  -0.529408  0  2.189458  0  0  -0.55701  0  2.182253  0  0  -0.286284  -0.509964  0  2.193745  0
O  O61  1  0.84105676  0.24909090  0.88154391  1  0  -0.583778  0  1.969202  0  0  -0.529967  0  2.189756  0  0  -0.557611  0  2.182562  0  0  -0.286361  -0.510418  0  2.193992  0
O  O62  1  0.02892585  0.74921658  0.38154894  1  0  -0.583593  0  1.968464  0  0  -0.529362  0  2.189493  0  0  -0.556961  0  2.182299  0  0  -0.286274  -0.509919  0  2.193786  0
O  O63  1  0.15894863  0.75090557  0.11845312  1  0  -0.583802  0  1.969189  0  0  -0.530002  0  2.189727  0  0  -0.557647  0  2.18256  0  0  -0.286399  -0.510449  0  2.19396  0
O  O64  1  0.08578874  0.16583060  0.39090490  1  0  -0.717198  0  2.053954  0  0  -0.661626  0  2.30818  0  0  -0.686851  0  2.295875  0  0  -0.371665  -0.643725  0  2.315979  0
O  O65  1  0.64264145  0.33426173  0.10903699  1  0  -0.7179  0  2.05533  0  0  -0.66273  0  2.310018  0  0  -0.687875  0  2.297463  0  0  -0.371296  -0.644824  0  2.317861  0
O  O66  1  0.91420908  0.83417206  0.60909779  1  0  -0.717266  0  2.053863  0  0  -0.661701  0  2.308123  0  0  -0.686926  0  2.295813  0  0  -0.371715  -0.643793  0  2.315918  0
O  O67  1  0.35736833  0.66573295  0.89096357  1  0  -0.717936  0  2.055251  0  0  -0.662738  0  2.309978  0  0  -0.687874  0  2.297413  0  0  -0.371325  -0.644824  0  2.317794  0
O  O68  1  0.04990850  0.31909816  0.24634293  1  0  -0.689317  0  2.049772  0  0  -0.643324  0  2.304438  0  0  -0.66863  0  2.295401  0  0  -0.364902  -0.625377  0  2.309978  0
O  O69  1  0.61604987  0.18090317  0.25358160  1  0  -0.688945  0  2.048547  0  0  -0.642889  0  2.302925  0  0  -0.668258  0  2.293957  0  0  -0.364666  -0.624939  0  2.308315  0
O  O70  1  0.95008984  0.68090185  0.75365736  1  0  -0.689394  0  2.049741  0  0  -0.643387  0  2.304414  0  0  -0.668699  0  2.29538  0  0  -0.364923  -0.625444  0  2.309961  0
O  O71  1  0.38392710  0.81909948  0.74642470  1  0  -0.688905  0  2.048596  0  0  -0.642805  0  2.302995  0  0  -0.668174  0  2.294028  0  0  -0.364525  -0.624848  0  2.30838  0
O  O72  1  0.26855074  0.09982403  0.73591447  1  0  -0.942327  0  1.913859  0  0  -0.89637  0  2.137751  0  0  -0.915708  0  2.101911  0  0  -0.658856  -0.882151  0  2.162534  0
O  O73  1  0.10444033  0.40014886  0.76413340  1  0  -0.942934  0  1.915014  0  0  -0.89707  0  2.138372  0  0  -0.916493  0  2.102705  0  0  -0.659101  -0.882792  0  2.163247  0
O  O74  1  0.73145344  0.90017510  0.26408396  1  0  -0.942371  0  1.913795  0  0  -0.89634  0  2.13781  0  0  -0.915693  0  2.101985  0  0  -0.658811  -0.88213  0  2.162581  0
O  O75  1  0.89556085  0.59984850  0.23586390  1  0  -0.942895  0  1.914943  0  0  -0.897064  0  2.138294  0  0  -0.916488  0  2.102632  0  0  -0.659155  -0.882799  0  2.163168  0
O  O76  1  0.31153953  0.96539488  0.54232454  1  0  -1.176831  0  1.754794  0  0  -1.116216  0  2.003478  0  0  -1.143322  0  1.977198  0  0  -0.81837  -1.096088  0  2.021232  0
O  O77  1  0.81924835  0.53465852  0.95765256  1  0  -1.177044  0  1.75413  0  0  -1.116146  0  2.002903  0  0  -1.143326  0  1.976534  0  0  -0.817637  -1.095884  0  2.020762  0
O  O78  1  0.68845873  0.03460867  0.45767721  1  0  -1.176826  0  1.754734  0  0  -1.116217  0  2.003482  0  0  -1.143328  0  1.977194  0  0  -0.818413  -1.096097  0  2.021237  0
O  O79  1  0.18075266  0.46533973  0.04234096  1  0  -1.17709  0  1.754134  0  0  -1.1162  0  2.002904  0  0  -1.14339  0  1.976529  0  0  -0.81769  -1.095942  0  2.020766  0
