# generated using pymatgen
data_ZnH12C24NClO8
_symmetry_space_group_name_H-M   'P 1'
_cell_length_a   15.24780272
_cell_length_b   15.24625953
_cell_length_c   16.38350620
_cell_angle_alpha   92.50956347
_cell_angle_beta   92.57816377
_cell_angle_gamma   90.15025532
_symmetry_Int_Tables_number   1
_chemical_formula_structural   ZnH12C24NClO8
_chemical_formula_sum   'Zn2 H24 C48 N2 Cl2 O16'
_cell_volume   3801.16116650
_cell_formula_units_Z   2
loop_
 _symmetry_equiv_pos_site_id
 _symmetry_equiv_pos_as_xyz
  1  'x, y, z'
loop_
 _atom_site_type_symbol
 _atom_site_label
 _atom_site_symmetry_multiplicity
 _atom_site_fract_x
 _atom_site_fract_y
 _atom_site_fract_z
 _atom_site_occupancy
 _atom_site_pbe_bader_charge
 _atom_site_pbe_bader_spin_density
 _atom_site_pbe_cm5_charge
 _atom_site_pbe_ddec_charge
 _atom_site_pbe_ddec_spin_density
 _atom_site_pbe_ddec_sum_bond_order
 _atom_site_pbe_magmom
Zn  Zn0  1  0.50577593  0.50562923  0.08652835  1  1.290668  0  0.664699  0.841711  0  2.409121  0
Zn  Zn1  1  0.49432168  0.49437314  0.91347577  1  1.28615  0  0.664841  0.841739  0  2.40896  0
H  H2  1  0.57795508  0.57829855  0.78607153  1  0.148612  0  0.132675  0.112952  0  0.972686  0
H  H3  1  0.58165398  0.58199905  0.63455440  1  0.081219  0  0.116329  0.12416  0  0.989588  0
H  H4  1  0.38020719  0.37990043  0.62090311  1  0.090282  0  0.118383  0.139386  0  0.980323  0
H  H5  1  0.61973564  0.62019727  0.37912125  1  0.08955  0  0.118232  0.139258  0  0.980609  0
H  H6  1  0.41830378  0.41808673  0.36543408  1  0.081534  0  0.116275  0.124345  0  0.989545  0
H  H7  1  0.42201583  0.42180175  0.21392285  1  0.150049  0  0.132676  0.113071  0  0.972433  0
H  H8  1  0.42839496  0.42824296  0.49666342  1  0.081337  0  0.111667  0.109287  0  0.989719  0
H  H9  1  0.57154321  0.57184548  0.50334700  1  0.075664  0  0.111651  0.109296  0  0.98959  0
H  H10  1  0.22491047  0.49562252  0.87876309  1  0.060359  0  0.0949  0.086787  0  1.063989  0
H  H11  1  0.22692815  0.50540964  0.13741656  1  0.049474  0  0.097496  0.088125  0  1.049911  0
H  H12  1  0.77521640  0.50394532  0.12121825  1  0.060958  0  0.095086  0.086843  0  1.064581  0
H  H13  1  0.77321714  0.49421998  0.86256712  1  0.051535  0  0.098056  0.089418  0  1.049081  0
H  H14  1  0.49482379  0.77332309  0.86247745  1  0.045122  0  0.09771  0.088724  0  1.049113  0
H  H15  1  0.50422184  0.77485533  0.12112002  1  0.058989  0  0.094862  0.08723  0  1.064005  0
H  H16  1  0.50671547  0.22655974  0.13758834  1  0.052851  0  0.097855  0.089062  0  1.049024  0
H  H17  1  0.49733842  0.22508730  0.87894083  1  0.064675  0  0.095173  0.08684  0  1.064226  0
H  H18  1  0.84857914  0.48493016  0.77910549  1  0.605407  0  0.323222  0.347351  0  0.917454  0
H  H19  1  0.14874175  0.48805740  0.78991584  1  0.584735  0  0.320355  0.344838  0  0.925103  0
H  H20  1  0.85135938  0.51117424  0.21006194  1  0.587665  0  0.320347  0.344946  0  0.92487  0
H  H21  1  0.15153347  0.51441667  0.22093006  1  0.604592  0  0.323389  0.34766  0  0.9173  0
H  H22  1  0.49052374  0.14908768  0.79005028  1  0.581848  0  0.320653  0.345469  0  0.9237  0
H  H23  1  0.48693946  0.84891208  0.77896667  1  0.613259  0  0.322925  0.347212  0  0.917422  0
H  H24  1  0.51603399  0.15103534  0.22095729  1  0.611657  0  0.323054  0.347037  0  0.918079  0
H  H25  1  0.51247484  0.85087772  0.21004864  1  0.579765  0  0.320083  0.344524  0  0.925445  0
C  C26  1  0.67049389  0.49900433  0.98895054  1  1.598613  0  0.214349  0.601028  0  4.150275  0
C  C27  1  0.49878551  0.67039396  0.98882565  1  1.598086  0  0.214648  0.601402  0  4.150655  0
C  C28  1  0.32963293  0.50090270  0.01099442  1  1.595274  0  0.214305  0.601166  0  4.15058  0
C  C29  1  0.50184209  0.32957268  0.01124296  1  1.602523  0  0.214572  0.601997  0  4.149112  0
C  C30  1  0.53556519  0.53579943  0.74614993  1  0.484193  0  0.061698  0.122354  0  3.911158  0
C  C31  1  0.53688194  0.53711981  0.66185191  1  -0.032059  0  -0.07959  -0.186197  0  3.926791  0
C  C32  1  0.48042858  0.48047777  0.61341349  1  0.026053  0  0.013293  0.170143  0  4.027711  0
C  C33  1  0.42535314  0.42521506  0.65449747  1  0.115385  0  -0.081682  -0.241193  0  3.909738  0
C  C34  1  0.42841808  0.42829167  0.73976155  1  0.555027  0  0.155  0.293535  0  4.060536  0
C  C35  1  0.47582672  0.47583031  0.52433232  1  -0.121988  0  -0.070269  -0.108096  0  3.944845  0
C  C36  1  0.52411341  0.52425682  0.47567751  1  -0.020427  0  -0.07036  -0.108263  0  3.944834  0
C  C37  1  0.57460475  0.57487545  0.34551987  1  0.115263  0  -0.08147  -0.241399  0  3.909744  0
C  C38  1  0.51952467  0.51961268  0.38659329  1  0.025118  0  0.013071  0.170304  0  4.027355  0
C  C39  1  0.46307391  0.46297324  0.33814958  1  -0.03118  0  -0.079275  -0.186325  0  3.926168  0
C  C40  1  0.46440769  0.46429299  0.25384302  1  0.483623  0  0.061586  0.122266  0  3.910657  0
C  C41  1  0.57156147  0.57179498  0.26025524  1  0.556797  0  0.155  0.294172  0  4.060126  0
C  C42  1  0.18512103  0.49730865  0.93259076  1  0.019243  0  -0.097904  -0.159117  0  3.981718  0
C  C43  1  0.09307445  0.49658357  0.92765502  1  -0.020137  0  -0.016789  -0.016142  0  4.075306  0
C  C44  1  0.04430546  0.49249272  0.85053490  1  0.497067  0  0.064385  0.141292  0  4.074049  0
C  C45  1  0.18633224  0.50332396  0.08070727  1  -0.13099  0  -0.09729  -0.159402  0  3.98373  0
C  C46  1  0.09421196  0.50339994  0.07912475  1  0.047528  0  -0.016646  -0.01674  0  4.075514  0
C  C47  1  0.04641029  0.50723079  0.15272644  1  0.537105  0  0.064221  0.138922  0  4.076714  0
C  C48  1  0.81500649  0.50217126  0.06739653  1  0.022787  0  -0.097917  -0.159088  0  3.981986  0
C  C49  1  0.90705502  0.50275000  0.07233978  1  -0.007438  0  -0.017488  -0.017674  0  4.077131  0
C  C50  1  0.95581290  0.50680935  0.14947237  1  0.486185  0  0.064595  0.142279  0  4.074246  0
C  C51  1  0.81381110  0.49620660  0.91929040  1  -0.134872  0  -0.0979  -0.161241  0  3.984624  0
C  C52  1  0.90592283  0.49598030  0.92087990  1  0.045005  0  -0.016306  -0.016375  0  4.07624  0
C  C53  1  0.95372191  0.49210551  0.84728870  1  0.540694  0  0.064233  0.139442  0  4.078387  0
C  C54  1  0.23128451  0.50053380  0.00825143  1  -0.061035  0  -0.02216  -0.010738  0  3.999999  0
C  C55  1  0.04645053  0.49980054  0.00169207  1  0.126135  0  -0.007367  0.003396  0  3.980531  0
C  C56  1  0.76883779  0.49909376  0.99173070  1  -0.057657  0  -0.022118  -0.009887  0  3.998222  0
C  C57  1  0.95368420  0.49949500  0.99830764  1  -0.032211  0  -0.007745  0.003355  0  3.98131  0
C  C58  1  0.49703312  0.81382852  0.91920855  1  -0.051003  0  -0.097414  -0.159964  0  3.983506  0
C  C59  1  0.49732886  0.90595453  0.92083756  1  0.045251  0  -0.017284  -0.018314  0  4.075765  0
C  C60  1  0.49386184  0.95392015  0.84727448  1  0.547417  0  0.064132  0.139149  0  4.077193  0
C  C61  1  0.50277137  0.81474912  0.06732180  1  0.018018  0  -0.098081  -0.160084  0  3.981626  0
C  C62  1  0.50381488  0.90679912  0.07230896  1  -0.031911  0  -0.016722  -0.016346  0  4.074944  0
C  C63  1  0.50801200  0.95542470  0.14945766  1  0.493701  0  0.063925  0.140716  0  4.074952  0
C  C64  1  0.50478500  0.18609400  0.08083261  1  -0.135665  0  -0.097399  -0.15963  0  3.984183  0
C  C65  1  0.50493024  0.09397351  0.07918017  1  0.043319  0  -0.016788  -0.018398  0  4.07739  0
C  C66  1  0.50863882  0.04601147  0.15274641  1  0.547589  0  0.063559  0.139254  0  4.079718  0
C  C67  1  0.49901794  0.18518123  0.93273381  1  0.013862  0  -0.097378  -0.15813  0  3.980684  0
C  C68  1  0.49836886  0.09313663  0.92773550  1  -0.032247  0  -0.017686  -0.017505  0  4.076544  0
C  C69  1  0.49440674  0.04451329  0.85058966  1  0.498846  0  0.064219  0.141329  0  4.075545  0
C  C70  1  0.49949943  0.76873471  0.99162768  1  -0.133895  0  -0.021792  -0.009715  0  3.999521  0
C  C71  1  0.50088054  0.95358068  0.99829996  1  0.129446  0  -0.006954  0.005362  0  3.978274  0
C  C72  1  0.50197614  0.23121150  0.00842826  1  -0.054975  0  -0.022175  -0.010676  0  3.99826  0
C  C73  1  0.50142650  0.04634561  0.00172502  1  -0.029641  0  -0.006972  0.00411  0  3.978246  0
N  N74  1  0.48210603  0.48216148  0.78536539  1  -1.207938  0  -0.313039  -0.252883  0  3.456399  0
N  N75  1  0.51788988  0.51791797  0.21464260  1  -1.208832  0  -0.312916  -0.253116  0  3.456571  0
Cl  Cl76  1  0.36022974  0.35983651  0.78859235  1  -0.139264  0  0.050024  -0.030972  0  1.491743  0
Cl  Cl77  1  0.63976832  0.64025624  0.21144979  1  -0.139912  0  0.050179  -0.03103  0  1.492309  0
O  O78  1  0.63447149  0.49873540  0.05767445  1  -1.166369  0  -0.323443  -0.563147  0  2.378886  0
O  O79  1  0.63039411  0.49926019  0.91903294  1  -1.165104  0  -0.321514  -0.550161  0  2.308838  0
O  O80  1  0.49905065  0.63036504  0.91890714  1  -1.166086  0  -0.322198  -0.550581  0  2.309262  0
O  O81  1  0.49803015  0.63427485  0.05750915  1  -1.167059  0  -0.323154  -0.562987  0  2.379448  0
O  O82  1  0.36562529  0.50149121  0.94227683  1  -1.166287  0  -0.323254  -0.562807  0  2.378661  0
O  O83  1  0.36977003  0.50055305  0.08089777  1  -1.166128  0  -0.321734  -0.550385  0  2.309475  0
O  O84  1  0.50146149  0.36957170  0.08117920  1  -1.16709  0  -0.322188  -0.551181  0  2.307481  0
O  O85  1  0.50202837  0.36573226  0.94255714  1  -1.169717  0  -0.322976  -0.563028  0  2.379539  0
O  O86  1  0.91150205  0.48792009  0.77165341  1  -1.115343  0  -0.357937  -0.412251  0  2.270994  0
O  O87  1  0.08557779  0.48865469  0.77796687  1  -1.098621  0  -0.35744  -0.411812  0  2.27196  0
O  O88  1  0.91452469  0.51063540  0.22201616  1  -1.101983  0  -0.357266  -0.411832  0  2.272282  0
O  O89  1  0.08860188  0.51143116  0.22835267  1  -1.114322  0  -0.358027  -0.412275  0  2.270606  0
O  O90  1  0.49073009  0.08593848  0.77805417  1  -1.093914  0  -0.357555  -0.412231  0  2.271999  0
O  O91  1  0.48984887  0.91187087  0.77160781  1  -1.123088  0  -0.357638  -0.412036  0  2.27069  0
O  O92  1  0.51289651  0.08810686  0.22838800  1  -1.119683  0  -0.357399  -0.41152  0  2.271901  0
O  O93  1  0.51170837  0.91402257  0.22199597  1  -1.087035  0  -0.356994  -0.411371  0  2.272765  0
