# generated using pymatgen
data_AgH10C10S4(NO)3
_symmetry_space_group_name_H-M   'P 1'
_cell_length_a   10.88924782
_cell_length_b   10.88924373
_cell_length_c   12.83574880
_cell_angle_alpha   92.38073164
_cell_angle_beta   92.38075265
_cell_angle_gamma   100.58795842
_symmetry_Int_Tables_number   1
_chemical_formula_structural   AgH10C10S4(NO)3
_chemical_formula_sum   'Ag4 H40 C40 S16 N12 O12'
_cell_volume   1492.92775690
_cell_formula_units_Z   4
loop_
 _symmetry_equiv_pos_site_id
 _symmetry_equiv_pos_as_xyz
  1  'x, y, z'
loop_
 _atom_site_type_symbol
 _atom_site_label
 _atom_site_symmetry_multiplicity
 _atom_site_fract_x
 _atom_site_fract_y
 _atom_site_fract_z
 _atom_site_occupancy
 _atom_site_hle17_bader_spin_density
 _atom_site_hle17_ddec_charge
 _atom_site_hle17_ddec_spin_density
 _atom_site_hle17_ddec_sum_bond_order
 _atom_site_hle17_magmom
 _atom_site_hse06_10hf_bader_spin_density
 _atom_site_hse06_10hf_ddec_charge
 _atom_site_hse06_10hf_ddec_spin_density
 _atom_site_hse06_10hf_ddec_sum_bond_order
 _atom_site_hse06_10hf_magmom
 _atom_site_hse06_bader_spin_density
 _atom_site_hse06_ddec_charge
 _atom_site_hse06_ddec_spin_density
 _atom_site_hse06_ddec_sum_bond_order
 _atom_site_hse06_magmom
 _atom_site_pbe_bader_spin_density
 _atom_site_pbe_cm5_charge
 _atom_site_pbe_ddec_charge
 _atom_site_pbe_ddec_spin_density
 _atom_site_pbe_ddec_sum_bond_order
 _atom_site_pbe_magmom
Ag  Ag0  1  0.35285175  0.02096997  0.52650342  1  0  0.420983  0  1.69608  0  0  0.283889  0  2.185668  0  0  0.306624  0  2.139669  0  0  0.426307  0.267904  0  2.218285  0
Ag  Ag1  1  0.97902945  0.64714644  0.97349539  1  0  0.420972  0  1.696093  0  0  0.283877  0  2.185691  0  0  0.306611  0  2.139689  0  0  0.426293  0.267883  0  2.218322  0
Ag  Ag2  1  0.64714780  0.97903059  0.47349621  1  0  0.420974  0  1.696097  0  0  0.283887  0  2.185681  0  0  0.306618  0  2.139681  0  0  0.426288  0.26787  0  2.218307  0
Ag  Ag3  1  0.02096884  0.35285224  0.02650257  1  0  0.420981  0  1.696093  0  0  0.283902  0  2.185677  0  0  0.306635  0  2.139676  0  0  0.426286  0.267872  0  2.218324  0
H  H4  1  0.05386160  0.94070569  0.60522755  1  0  0.106608  0  0.939434  0  0  0.119454  0  0.996089  0  0  0.121156  0  0.995604  0  0  0.120143  0.118047  0  0.996949  0
H  H5  1  0.05929364  0.94613766  0.89477266  1  0  0.106599  0  0.939454  0  0  0.119447  0  0.996105  0  0  0.121149  0  0.995619  0  0  0.120144  0.118037  0  0.996967  0
H  H6  1  0.94613687  0.05929393  0.39477279  1  0  0.106557  0  0.939454  0  0  0.119401  0  0.996114  0  0  0.121103  0  0.995628  0  0  0.120131  0.11799  0  0.996978  0
H  H7  1  0.94070466  0.05386103  0.10522764  1  0  0.106577  0  0.939417  0  0  0.119424  0  0.996079  0  0  0.121125  0  0.995594  0  0  0.120134  0.118015  0  0.99694  0
H  H8  1  0.93853696  0.71766371  0.66886994  1  0  0.136296  0  0.969234  0  0  0.146074  0  1.028555  0  0  0.14819  0  1.02923  0  0  0.110188  0.14455  0  1.028297  0
H  H9  1  0.28233522  0.06146217  0.83113044  1  0  0.136292  0  0.969257  0  0  0.146065  0  1.02858  0  0  0.148187  0  1.029248  0  0  0.110184  0.144536  0  1.028325  0
H  H10  1  0.06146226  0.28233498  0.33113040  1  0  0.136304  0  0.969249  0  0  0.146079  0  1.028571  0  0  0.148201  0  1.029238  0  0  0.110192  0.14455  0  1.028315  0
H  H11  1  0.71766307  0.93853652  0.16886986  1  0  0.136311  0  0.969226  0  0  0.146097  0  1.028538  0  0  0.14821  0  1.029216  0  0  0.110193  0.144574  0  1.028276  0
H  H12  1  0.34574415  0.50514333  0.58282047  1  0  0.110326  0  0.970673  0  0  0.119461  0  1.039866  0  0  0.122015  0  1.037691  0  0  0.095924  0.117319  0  1.041851  0
H  H13  1  0.49485578  0.65425479  0.91717829  1  0  0.110326  0  0.970685  0  0  0.119458  0  1.03987  0  0  0.12201  0  1.037698  0  0  0.095933  0.117316  0  1.041857  0
H  H14  1  0.65425230  0.49485534  0.41717899  1  0  0.110279  0  0.97079  0  0  0.119474  0  1.039907  0  0  0.122028  0  1.03773  0  0  0.095939  0.117332  0  1.041892  0
H  H15  1  0.50514470  0.34574577  0.08282138  1  0  0.110268  0  0.970795  0  0  0.119466  0  1.039918  0  0  0.122019  0  1.037742  0  0  0.095941  0.117324  0  1.041904  0
H  H16  1  0.50500117  0.57553812  0.56155102  1  0  0.110045  0  0.94388  0  0  0.12937  0  0.999554  0  0  0.130576  0  0.998748  0  0  0.103217  0.128432  0  1.000209  0
H  H17  1  0.42446146  0.49499865  0.93844780  1  0  0.109998  0  0.943917  0  0  0.129318  0  0.999595  0  0  0.130523  0  0.998789  0  0  0.103183  0.128381  0  1.000249  0
H  H18  1  0.49499913  0.42446151  0.43844938  1  0  0.110074  0  0.943835  0  0  0.12937  0  0.999545  0  0  0.130577  0  0.998739  0  0  0.103217  0.12843  0  1.000202  0
H  H19  1  0.57554010  0.50500285  0.06155272  1  0  0.110041  0  0.94384  0  0  0.129345  0  0.99956  0  0  0.130555  0  0.998747  0  0  0.103217  0.128407  0  1.000213  0
H  H20  1  0.52196956  0.69652744  0.73566879  1  0  0.087531  0  0.965052  0  0  0.097525  0  1.031278  0  0  0.099713  0  1.031574  0  0  0.090729  0.095661  0  1.03184  0
H  H21  1  0.30347169  0.47802978  0.76433076  1  0  0.087541  0  0.965056  0  0  0.097531  0  1.031281  0  0  0.09972  0  1.031576  0  0  0.090736  0.095667  0  1.031842  0
H  H22  1  0.47802890  0.30347218  0.26433155  1  0  0.087534  0  0.965054  0  0  0.097524  0  1.031284  0  0  0.099714  0  1.031576  0  0  0.090735  0.09566  0  1.031845  0
H  H23  1  0.69652787  0.52197078  0.23567121  1  0  0.08756  0  0.965003  0  0  0.097546  0  1.031229  0  0  0.099736  0  1.031522  0  0  0.090734  0.095679  0  1.031794  0
H  H24  1  0.64322835  0.74375066  0.30565068  1  0  0.106131  0  0.940249  0  0  0.116829  0  0.998225  0  0  0.118399  0  0.998111  0  0  0.120447  0.115393  0  0.999084  0
H  H25  1  0.25624961  0.35677133  0.19434971  1  0  0.106147  0  0.940272  0  0  0.116834  0  0.998264  0  0  0.118404  0  0.998149  0  0  0.120448  0.115401  0  0.999119  0
H  H26  1  0.35677086  0.25624802  0.69434888  1  0  0.10616  0  0.940276  0  0  0.116847  0  0.998266  0  0  0.118417  0  0.998152  0  0  0.120461  0.115411  0  0.999125  0
H  H27  1  0.74375179  0.64322924  0.80565076  1  0  0.106143  0  0.940234  0  0  0.116835  0  0.998226  0  0  0.118405  0  0.998113  0  0  0.12045  0.1154  0  0.999084  0
H  H28  1  0.50141120  0.67424798  0.13050161  1  0  0.143215  0  0.97263  0  0  0.150419  0  1.035351  0  0  0.153657  0  1.033558  0  0  0.111967  0.148077  0  1.036754  0
H  H29  1  0.32575325  0.49858946  0.36949805  1  0  0.143227  0  0.972669  0  0  0.150431  0  1.035387  0  0  0.15367  0  1.033593  0  0  0.111977  0.148088  0  1.036789  0
H  H30  1  0.49858927  0.32575258  0.86949805  1  0  0.143218  0  0.972646  0  0  0.15042  0  1.035373  0  0  0.153658  0  1.033581  0  0  0.111977  0.148078  0  1.036775  0
H  H31  1  0.67424722  0.50141110  0.63050083  1  0  0.143245  0  0.97256  0  0  0.150419  0  1.035323  0  0  0.153657  0  1.03353  0  0  0.111968  0.148074  0  1.036727  0
H  H32  1  0.24866263  0.05862564  0.18626093  1  0  0.119582  0  0.960162  0  0  0.127113  0  1.029442  0  0  0.130273  0  1.02657  0  0  0.10006  0.124962  0  1.03133  0
H  H33  1  0.94137557  0.75133523  0.31373947  1  0  0.11958  0  0.960166  0  0  0.127097  0  1.029469  0  0  0.130257  0  1.026599  0  0  0.10005  0.124941  0  1.031361  0
H  H34  1  0.75133692  0.94137491  0.81373948  1  0  0.119572  0  0.960183  0  0  0.127094  0  1.029471  0  0  0.130254  0  1.026601  0  0  0.100052  0.124941  0  1.031362  0
H  H35  1  0.05862640  0.24866347  0.68626018  1  0  0.119574  0  0.960223  0  0  0.127134  0  1.029466  0  0  0.130295  0  1.026596  0  0  0.100074  0.124977  0  1.031359  0
H  H36  1  0.20827828  0.13277813  0.30241393  1  0  0.123339  0  0.914197  0  0  0.142253  0  0.96624  0  0  0.143462  0  0.966015  0  0  0.110037  0.141211  0  0.967016  0
H  H37  1  0.86722098  0.79172066  0.19758642  1  0  0.123355  0  0.914186  0  0  0.142268  0  0.966225  0  0  0.143475  0  0.966001  0  0  0.110041  0.141226  0  0.967002  0
H  H38  1  0.79172220  0.86722243  0.69758652  1  0  0.123357  0  0.914192  0  0  0.142267  0  0.966233  0  0  0.143477  0  0.966006  0  0  0.110045  0.141223  0  0.96701  0
H  H39  1  0.13277933  0.20827896  0.80241320  1  0  0.123347  0  0.914175  0  0  0.142271  0  0.966206  0  0  0.143466  0  0.965998  0  0  0.110037  0.141228  0  0.966986  0
H  H40  1  0.11505713  0.91749387  0.37020506  1  0  0.094601  0  0.948784  0  0  0.104921  0  1.014073  0  0  0.107851  0  1.012928  0  0  0.097346  0.102754  0  1.015076  0
H  H41  1  0.08250704  0.88494290  0.12979136  1  0  0.094583  0  0.948746  0  0  0.104879  0  1.014093  0  0  0.107808  0  1.012948  0  0  0.097326  0.102715  0  1.01509  0
H  H42  1  0.88494443  0.08250763  0.62979156  1  0  0.094568  0  0.94877  0  0  0.104876  0  1.014091  0  0  0.107804  0  1.012947  0  0  0.097327  0.102709  0  1.015091  0
H  H43  1  0.91749435  0.11505766  0.87020600  1  0  0.094587  0  0.948786  0  0  0.104902  0  1.014093  0  0  0.10783  0  1.012949  0  0  0.097338  0.102738  0  1.015089  0
C  C44  1  0.09041723  0.85432363  0.60563480  1  0  0.079932  0  3.746203  0  0  0.048636  0  4.005677  0  0  0.052691  0  4.025132  0  0  0.004028  0.045839  0  3.992964  0
C  C45  1  0.14567645  0.90958178  0.89436467  1  0  0.079949  0  3.746216  0  0  0.048652  0  4.005679  0  0  0.052707  0  4.025136  0  0  0.004026  0.045853  0  3.992966  0
C  C46  1  0.90958141  0.14567692  0.39436636  1  0  0.080094  0  3.746259  0  0  0.048802  0  4.005715  0  0  0.052859  0  4.025171  0  0  0.004099  0.046002  0  3.993003  0
C  C47  1  0.85432294  0.09041784  0.10563492  1  0  0.079969  0  3.746178  0  0  0.048675  0  4.00565  0  0  0.05273  0  4.025104  0  0  0.004037  0.045876  0  3.992936  0
C  C48  1  0.03065060  0.74167714  0.63784522  1  0  -0.202751  0  3.672566  0  0  -0.220213  0  3.949861  0  0  -0.223782  0  3.969823  0  0  -0.104873  -0.217943  0  3.936377  0
C  C49  1  0.25832157  0.96934871  0.86215656  1  0  -0.202753  0  3.672611  0  0  -0.220213  0  3.949909  0  0  -0.223788  0  3.969867  0  0  -0.104887  -0.21795  0  3.936431  0
C  C50  1  0.96934752  0.25832061  0.36215582  1  0  -0.202799  0  3.672662  0  0  -0.220267  0  3.949974  0  0  -0.223842  0  3.96993  0  0  -0.10492  -0.218002  0  3.936495  0
C  C51  1  0.74167781  0.03065091  0.13784459  1  0  -0.202765  0  3.672565  0  0  -0.220234  0  3.949861  0  0  -0.223802  0  3.969823  0  0  -0.104891  -0.217976  0  3.936379  0
C  C52  1  0.23993765  0.74219817  0.57799954  1  0  0.072756  0  3.808677  0  0  0.068376  0  4.106545  0  0  0.080359  0  4.122269  0  0  0.099121  0.060646  0  4.095175  0
C  C53  1  0.25780236  0.76006263  0.92200081  1  0  0.072777  0  3.808636  0  0  0.068407  0  4.106478  0  0  0.08039  0  4.122203  0  0  0.09914  0.060675  0  4.095104  0
C  C54  1  0.76006191  0.25780238  0.42200087  1  0  0.072733  0  3.808746  0  0  0.068392  0  4.106555  0  0  0.080375  0  4.122279  0  0  0.099141  0.060662  0  4.09518  0
C  C55  1  0.74219904  0.23993794  0.07799966  1  0  0.072749  0  3.808709  0  0  0.06837  0  4.106575  0  0  0.080352  0  4.122299  0  0  0.099116  0.060639  0  4.0952  0
C  C56  1  0.41928167  0.58820949  0.59975856  1  0  -0.15047  0  3.678147  0  0  -0.185182  0  3.92864  0  0  -0.183653  0  3.938471  0  0  -0.152753  -0.185718  0  3.92158  0
C  C57  1  0.41179024  0.58071764  0.90024022  1  0  -0.150452  0  3.678204  0  0  -0.185147  0  3.928671  0  0  -0.183617  0  3.938504  0  0  -0.152743  -0.185685  0  3.921614  0
C  C58  1  0.58071738  0.41178826  0.40024095  1  0  -0.150556  0  3.67835  0  0  -0.185257  0  3.928749  0  0  -0.183727  0  3.938579  0  0  -0.152809  -0.185793  0  3.921693  0
C  C59  1  0.58821116  0.41928293  0.09976025  1  0  -0.150485  0  3.678316  0  0  -0.185204  0  3.92871  0  0  -0.183673  0  3.938542  0  0  -0.152807  -0.185739  0  3.921645  0
C  C60  1  0.44568425  0.61844800  0.71328064  1  0  -0.075515  0  3.755387  0  0  -0.091928  0  4.016932  0  0  -0.095855  0  4.042167  0  0  -0.106849  -0.089254  0  4.000029  0
C  C61  1  0.38155139  0.55431474  0.78671735  1  0  -0.075467  0  3.755302  0  0  -0.091876  0  4.016851  0  0  -0.0958  0  4.04208  0  0  -0.106836  -0.089198  0  3.999947  0
C  C62  1  0.55431329  0.38155161  0.28671889  1  0  -0.075467  0  3.755268  0  0  -0.091889  0  4.01683  0  0  -0.095816  0  4.042065  0  0  -0.10684  -0.089215  0  3.999928  0
C  C63  1  0.61844834  0.44568676  0.21328310  1  0  -0.075481  0  3.755223  0  0  -0.091888  0  4.016783  0  0  -0.095814  0  4.042018  0  0  -0.106828  -0.089213  0  3.999882  0
C  C64  1  0.56499126  0.78448680  0.27744366  1  0  0.07067  0  3.745415  0  0  0.039662  0  4.007915  0  0  0.043508  0  4.026426  0  0  0.000585  0.036914  0  3.995964  0
C  C65  1  0.21551249  0.43500719  0.22255663  1  0  0.070719  0  3.745416  0  0  0.039726  0  4.007891  0  0  0.043573  0  4.026401  0  0  0.00065  0.036977  0  3.995941  0
C  C66  1  0.43500813  0.21551282  0.72255671  1  0  0.070709  0  3.745395  0  0  0.039709  0  4.007867  0  0  0.043556  0  4.026377  0  0  0.000614  0.036963  0  3.995918  0
C  C67  1  0.78448764  0.56499150  0.77744373  1  0  0.070639  0  3.745465  0  0  0.039632  0  4.007947  0  0  0.043479  0  4.026456  0  0  0.000576  0.036888  0  3.995988  0
C  C68  1  0.49278382  0.74714244  0.18814981  1  0  -0.202728  0  3.70258  0  0  -0.222809  0  3.986745  0  0  -0.225002  0  4.004339  0  0  -0.100836  -0.22141  0  3.975221  0
C  C69  1  0.25285910  0.50721648  0.31184984  1  0  -0.202746  0  3.702652  0  0  -0.222837  0  3.98682  0  0  -0.22503  0  4.00441  0  0  -0.100855  -0.221439  0  3.975297  0
C  C70  1  0.50721649  0.25285719  0.81184982  1  0  -0.202753  0  3.702653  0  0  -0.222835  0  3.986811  0  0  -0.225028  0  4.004405  0  0  -0.100855  -0.221435  0  3.975283  0
C  C71  1  0.74714321  0.49278409  0.68815144  1  0  -0.202725  0  3.702613  0  0  -0.222783  0  3.986782  0  0  -0.224973  0  4.004372  0  0  -0.100819  -0.221387  0  3.975262  0
C  C72  1  0.43580513  0.92128621  0.28752033  1  0  0.074837  0  3.774921  0  0  0.071093  0  4.070105  0  0  0.082337  0  4.086304  0  0  0.097852  0.06377  0  4.058385  0
C  C73  1  0.07871319  0.56419341  0.21247992  1  0  0.074934  0  3.774863  0  0  0.071179  0  4.070062  0  0  0.082414  0  4.086285  0  0  0.097875  0.063857  0  4.058341  0
C  C74  1  0.56419334  0.07871341  0.71248079  1  0  0.074904  0  3.774864  0  0  0.071155  0  4.070057  0  0  0.08239  0  4.08627  0  0  0.097858  0.063833  0  4.058338  0
C  C75  1  0.92128729  0.43580715  0.78751896  1  0  0.074795  0  3.77497  0  0  0.071054  0  4.070164  0  0  0.082286  0  4.08638  0  0  0.097836  0.063733  0  4.058442  0
C  C76  1  0.23207334  0.04562038  0.26935503  1  0  -0.148531  0  3.659842  0  0  -0.180422  0  3.90703  0  0  -0.17964  0  3.917327  0  0  -0.146596  -0.180967  0  3.900092  0
C  C77  1  0.95438017  0.76792667  0.23064543  1  0  -0.148554  0  3.659893  0  0  -0.180427  0  3.907042  0  0  -0.179645  0  3.917342  0  0  -0.146594  -0.180968  0  3.900102  0
C  C78  1  0.76792622  0.95438018  0.73064538  1  0  -0.148524  0  3.659839  0  0  -0.180418  0  3.907049  0  0  -0.179633  0  3.917341  0  0  -0.146582  -0.18096  0  3.90011  0
C  C79  1  0.04562140  0.23207483  0.76935430  1  0  -0.148528  0  3.659802  0  0  -0.180445  0  3.906999  0  0  -0.179653  0  3.91729  0  0  -0.146624  -0.180991  0  3.900068  0
C  C80  1  0.13345942  0.93621164  0.28863661  1  0  -0.070944  0  3.740797  0  0  -0.090479  0  4.006847  0  0  -0.093707  0  4.030235  0  0  -0.102906  -0.088139  0  3.990728  0
C  C81  1  0.06379150  0.86653972  0.21136063  1  0  -0.070898  0  3.740735  0  0  -0.090432  0  4.006774  0  0  -0.093661  0  4.030163  0  0  -0.102874  -0.088092  0  3.99065  0
C  C82  1  0.86654139  0.06379078  0.71136079  1  0  -0.070913  0  3.740781  0  0  -0.090439  0  4.006821  0  0  -0.093671  0  4.030214  0  0  -0.1029  -0.088101  0  3.9907  0
C  C83  1  0.93621122  0.13345804  0.78863668  1  0  -0.070921  0  3.740787  0  0  -0.090466  0  4.006834  0  0  -0.093695  0  4.030222  0  0  -0.102885  -0.088125  0  3.990712  0
S  S84  1  0.12351277  0.63093992  0.62463758  1  0  0.182965  0  2.611949  0  0  0.186852  0  2.950737  0  0  0.184776  0  2.958237  0  0  0.115644  0.18802  0  2.945988  0
S  S85  1  0.36905924  0.87648746  0.87536195  1  0  0.182983  0  2.611958  0  0  0.186869  0  2.950739  0  0  0.184792  0  2.958242  0  0  0.115651  0.188025  0  2.945995  0
S  S86  1  0.87648661  0.36905970  0.37536279  1  0  0.182979  0  2.611935  0  0  0.186863  0  2.950687  0  0  0.184787  0  2.95819  0  0  0.11564  0.188021  0  2.945942  0
S  S87  1  0.63094031  0.12351310  0.12463768  1  0  0.182983  0  2.61193  0  0  0.18686  0  2.950728  0  0  0.184785  0  2.958227  0  0  0.115651  0.188019  0  2.945985  0
S  S88  1  0.38020705  0.71920352  0.52860491  1  0  0.024709  0  2.508384  0  0  0.026771  0  2.874621  0  0  0.020729  0  2.873119  0  0  0.0311  0.031008  0  2.875355  0
S  S89  1  0.28079479  0.61979186  0.97139535  1  0  0.024716  0  2.508338  0  0  0.026767  0  2.874574  0  0  0.020725  0  2.873072  0  0  0.0311  0.030996  0  2.87531  0
S  S90  1  0.61979250  0.28079704  0.47139550  1  0  0.024772  0  2.508475  0  0  0.026813  0  2.874689  0  0  0.020771  0  2.873187  0  0  0.031102  0.031044  0  2.875424  0
S  S91  1  0.71920661  0.38020871  0.02860746  1  0  0.0248  0  2.508409  0  0  0.026848  0  2.874669  0  0  0.020807  0  2.873166  0  0  0.031151  0.031079  0  2.875401  0
S  S92  1  0.38040494  0.83743147  0.17261331  1  0  0.161926  0  2.692328  0  0  0.167749  0  3.035151  0  0  0.165062  0  3.044174  0  0  0.114658  0.169216  0  3.029285  0
S  S93  1  0.16256797  0.61959330  0.32738539  1  0  0.16189  0  2.692397  0  0  0.167724  0  3.035215  0  0  0.165039  0  3.044239  0  0  0.114613  0.169186  0  3.029359  0
S  S94  1  0.61959445  0.16256815  0.82738628  1  0  0.16192  0  2.692386  0  0  0.16775  0  3.035198  0  0  0.165065  0  3.044225  0  0  0.114663  0.169221  0  3.029331  0
S  S95  1  0.83743141  0.38040632  0.67261343  1  0  0.161961  0  2.69243  0  0  0.167787  0  3.035227  0  0  0.165105  0  3.044253  0  0  0.114669  0.169245  0  3.029364  0
S  S96  1  0.38347091  0.05197490  0.33873422  1  0  0.055399  0  2.845162  0  0  0.066171  0  3.280013  0  0  0.063411  0  3.266747  0  0  0.02901  0.068209  0  3.289517  0
S  S97  1  0.94802476  0.61652987  0.16126704  1  0  0.055363  0  2.845211  0  0  0.066136  0  3.28006  0  0  0.063378  0  3.266796  0  0  0.029021  0.068176  0  3.289561  0
S  S98  1  0.61652956  0.94802566  0.66126622  1  0  0.055388  0  2.845175  0  0  0.066156  0  3.280028  0  0  0.063399  0  3.266767  0  0  0.029011  0.068193  0  3.289533  0
S  S99  1  0.05197480  0.38347069  0.83873415  1  0  0.055396  0  2.845196  0  0  0.066154  0  3.280065  0  0  0.0634  0  3.266797  0  0  0.029007  0.068193  0  3.289569  0
N  N100  1  0.20898795  0.85421565  0.57286856  1  0  -0.330235  0  3.307071  0  0  -0.261969  0  3.596838  0  0  -0.27857  0  3.609725  0  0  -0.358396  -0.250469  0  3.588038  0
N  N101  1  0.14578393  0.79101092  0.92713092  1  0  -0.330273  0  3.307124  0  0  -0.261993  0  3.596865  0  0  -0.278594  0  3.609752  0  0  -0.358423  -0.250495  0  3.588063  0
N  N102  1  0.79101051  0.14578397  0.42713178  1  0  -0.330309  0  3.307182  0  0  -0.26205  0  3.596929  0  0  -0.278651  0  3.609814  0  0  -0.358435  -0.250547  0  3.588122  0
N  N103  1  0.85421638  0.20898870  0.07286871  1  0  -0.330276  0  3.307124  0  0  -0.262011  0  3.596893  0  0  -0.278611  0  3.609778  0  0  -0.358436  -0.250508  0  3.588085  0
N  N104  1  0.53232039  0.88293518  0.33375035  1  0  -0.329331  0  3.344735  0  0  -0.261135  0  3.639041  0  0  -0.277462  0  3.652015  0  0  -0.360413  -0.249562  0  3.629587  0
N  N105  1  0.11706395  0.46767803  0.16624991  1  0  -0.329433  0  3.344787  0  0  -0.261244  0  3.639121  0  0  -0.277571  0  3.652093  0  0  -0.360451  -0.249665  0  3.629659  0
N  N106  1  0.46767899  0.11706444  0.66625002  1  0  -0.329457  0  3.344771  0  0  -0.261256  0  3.639079  0  0  -0.27758  0  3.652055  0  0  -0.360468  -0.249688  0  3.62963  0
N  N107  1  0.88293618  0.53232067  0.83375123  1  0  -0.329346  0  3.34481  0  0  -0.261151  0  3.639125  0  0  -0.277476  0  3.652102  0  0  -0.360435  -0.249581  0  3.62967  0
N  N108  1  0.22121672  0.26344709  0.52023541  1  0  0.680793  0  4.167405  0  0  0.71437  0  4.464031  0  0  0.740065  0  4.471212  0  0  0.085977  0.695705  0  4.458619  0
N  N109  1  0.73655277  0.77878281  0.97976419  1  0  0.680748  0  4.167419  0  0  0.714312  0  4.46406  0  0  0.740011  0  4.471244  0  0  0.085904  0.695652  0  4.458645  0
N  N110  1  0.77878175  0.73655253  0.47976493  1  0  0.680784  0  4.167245  0  0  0.714372  0  4.46387  0  0  0.740065  0  4.471052  0  0  0.086019  0.695705  0  4.458458  0
N  N111  1  0.26344753  0.22121681  0.02023466  1  0  0.68068  0  4.167439  0  0  0.714258  0  4.46408  0  0  0.739954  0  4.471262  0  0  0.085905  0.695597  0  4.458662  0
O  O112  1  0.18179288  0.15253048  0.54854459  1  0  -0.487447  0  1.765037  0  0  -0.465321  0  1.999052  0  0  -0.481288  0  1.990972  0  0  -0.218289  -0.45348  0  2.004685  0
O  O113  1  0.84746900  0.81820676  0.95145502  1  0  -0.487382  0  1.764953  0  0  -0.46526  0  1.998967  0  0  -0.481227  0  1.990888  0  0  -0.218271  -0.453439  0  2.004621  0
O  O114  1  0.81820650  0.84746915  0.45145579  1  0  -0.487385  0  1.765006  0  0  -0.465301  0  1.998989  0  0  -0.481267  0  1.990909  0  0  -0.2183  -0.453459  0  2.00462  0
O  O115  1  0.15253039  0.18179286  0.04854458  1  0  -0.48743  0  1.765043  0  0  -0.46531  0  1.999042  0  0  -0.481278  0  1.990962  0  0  -0.2183  -0.453481  0  2.004682  0
O  O116  1  0.30100547  0.28151150  0.45023993  1  0  -0.493499  0  1.748097  0  0  -0.477902  0  1.967564  0  0  -0.493151  0  1.962748  0  0  -0.21011  -0.466478  0  1.970703  0
O  O117  1  0.71848859  0.69899417  0.04976047  1  0  -0.493506  0  1.748093  0  0  -0.477899  0  1.967561  0  0  -0.49315  0  1.962743  0  0  -0.210096  -0.466483  0  1.970704  0
O  O118  1  0.69899317  0.71848905  0.54976045  1  0  -0.49349  0  1.748044  0  0  -0.477882  0  1.967494  0  0  -0.493133  0  1.96268  0  0  -0.210117  -0.466457  0  1.970632  0
O  O119  1  0.28151188  0.30100639  0.95023919  1  0  -0.493478  0  1.748055  0  0  -0.477884  0  1.967541  0  0  -0.493127  0  1.962709  0  0  -0.210108  -0.466468  0  1.97068  0
O  O120  1  0.18119795  0.35429646  0.56242532  1  0  -0.471218  0  1.757931  0  0  -0.469644  0  1.984229  0  0  -0.482763  0  1.979325  0  0  -0.202278  -0.460171  0  1.988092  0
O  O121  1  0.64570334  0.81880136  0.93757425  1  0  -0.471215  0  1.757975  0  0  -0.469643  0  1.984302  0  0  -0.482763  0  1.979402  0  0  -0.202256  -0.460179  0  1.988171  0
O  O122  1  0.81880160  0.64570410  0.43757509  1  0  -0.471272  0  1.757878  0  0  -0.469687  0  1.984204  0  0  -0.482803  0  1.9793  0  0  -0.202307  -0.460216  0  1.988071  0
O  O123  1  0.35429604  0.18119826  0.06242534  1  0  -0.471122  0  1.757955  0  0  -0.469558  0  1.984263  0  0  -0.482677  0  1.979361  0  0  -0.202224  -0.4601  0  1.988133  0
