# generated using pymatgen
data_CdH14C18(N2Cl)2
_symmetry_space_group_name_H-M   'P 1'
_cell_length_a   6.73830598
_cell_length_b   9.74160694
_cell_length_c   12.86464169
_cell_angle_alpha   101.44135180
_cell_angle_beta   93.52431545
_cell_angle_gamma   98.36759091
_symmetry_Int_Tables_number   1
_chemical_formula_structural   CdH14C18(N2Cl)2
_chemical_formula_sum   'Cd2 H28 C36 N8 Cl4'
_cell_volume   815.30690099
_cell_formula_units_Z   2
loop_
 _symmetry_equiv_pos_site_id
 _symmetry_equiv_pos_as_xyz
  1  'x, y, z'
loop_
 _atom_site_type_symbol
 _atom_site_label
 _atom_site_symmetry_multiplicity
 _atom_site_fract_x
 _atom_site_fract_y
 _atom_site_fract_z
 _atom_site_occupancy
 _atom_site_hle17_bader_spin_density
 _atom_site_hle17_ddec_charge
 _atom_site_hle17_ddec_spin_density
 _atom_site_hle17_ddec_sum_bond_order
 _atom_site_hle17_magmom
 _atom_site_hse06_10hf_bader_spin_density
 _atom_site_hse06_10hf_ddec_charge
 _atom_site_hse06_10hf_ddec_spin_density
 _atom_site_hse06_10hf_ddec_sum_bond_order
 _atom_site_hse06_10hf_magmom
 _atom_site_hse06_bader_spin_density
 _atom_site_hse06_ddec_charge
 _atom_site_hse06_ddec_spin_density
 _atom_site_hse06_ddec_sum_bond_order
 _atom_site_hse06_magmom
 _atom_site_pbe_bader_spin_density
 _atom_site_pbe_cm5_charge
 _atom_site_pbe_ddec_charge
 _atom_site_pbe_ddec_spin_density
 _atom_site_pbe_ddec_sum_bond_order
 _atom_site_pbe_magmom
Cd  Cd0  1  0.26060259  0.01847061  0.57414028  1  0  0.934557  0  1.96777  0  0  0.762509  0  2.43226  0  0  0.810623  0  2.391241  0  0  0.588675  0.728611  0  2.45987  0
Cd  Cd1  1  0.73938587  0.98152858  0.42586030  1  0  0.934482  0  1.967839  0  0  0.762412  0  2.432341  0  0  0.810527  0  2.391322  0  0  0.588657  0.728512  0  2.459958  0
H  H2  1  0.90999716  0.21405322  0.66754292  1  0  0.080476  0  0.988123  0  0  0.082441  0  1.064684  0  0  0.085522  0  1.061199  0  0  0.099607  0.080118  0  1.067093  0
H  H3  1  0.09000910  0.78594599  0.33246218  1  0  0.080449  0  0.988108  0  0  0.082421  0  1.064684  0  0  0.0855  0  1.0612  0  0  0.099568  0.080096  0  1.06709  0
H  H4  1  0.84651821  0.23630638  0.29237742  1  0  0.091161  0  0.947429  0  0  0.104711  0  1.017777  0  0  0.105162  0  1.017911  0  0  0.09111  0.104297  0  1.017708  0
H  H5  1  0.15346875  0.76369279  0.70762388  1  0  0.091097  0  0.947466  0  0  0.104659  0  1.017812  0  0  0.105119  0  1.017947  0  0  0.091102  0.104243  0  1.017746  0
H  H6  1  0.01243565  0.35082604  0.23647135  1  0  0.084461  0  0.933068  0  0  0.102025  0  0.995869  0  0  0.103164  0  0.99473  0  0  0.096117  0.100977  0  0.997068  0
H  H7  1  0.98756034  0.64916681  0.76353003  1  0  0.084395  0  0.933053  0  0  0.101976  0  0.995849  0  0  0.103126  0  0.994715  0  0  0.096041  0.100935  0  0.997037  0
H  H8  1  0.86429238  0.85370763  0.80112314  1  0  0.110346  0  0.949942  0  0  0.119181  0  1.012169  0  0  0.122575  0  1.010668  0  0  0.108432  0.116764  0  1.01334  0
H  H9  1  0.13570583  0.14628847  0.19887574  1  0  0.110337  0  0.949816  0  0  0.119117  0  1.012102  0  0  0.12251  0  1.010602  0  0  0.108421  0.116701  0  1.013273  0
H  H10  1  0.09697873  0.42311058  0.99582671  1  0  0.098808  0  0.958613  0  0  0.10746  0  1.025894  0  0  0.110791  0  1.022584  0  0  0.108347  0.105071  0  1.02825  0
H  H11  1  0.90302739  0.57688118  0.00417874  1  0  0.098825  0  0.958589  0  0  0.107553  0  1.025791  0  0  0.110893  0  1.022464  0  0  0.108392  0.105163  0  1.02815  0
H  H12  1  0.85109004  0.38544911  0.83154855  1  0  0.109989  0  0.940253  0  0  0.116112  0  1.00639  0  0  0.120121  0  1.004418  0  0  0.108176  0.113283  0  1.007982  0
H  H13  1  0.14890760  0.61454470  0.16845771  1  0  0.109983  0  0.940388  0  0  0.116118  0  1.006503  0  0  0.120127  0  1.004528  0  0  0.108163  0.113287  0  1.008096  0
H  H14  1  0.60470178  0.83798979  0.64919749  1  0  0.079229  0  0.983658  0  0  0.0837  0  1.05475  0  0  0.086419  0  1.051954  0  0  0.101426  0.081617  0  1.056926  0
H  H15  1  0.39529645  0.16200633  0.35080060  1  0  0.079286  0  0.98358  0  0  0.083754  0  1.054715  0  0  0.086477  0  1.051908  0  0  0.101457  0.081667  0  1.056895  0
H  H16  1  0.85284141  0.03313637  0.97180617  1  0  0.100513  0  0.947908  0  0  0.108466  0  1.014655  0  0  0.112182  0  1.01101  0  0  0.10774  0.105902  0  1.017054  0
H  H17  1  0.14716278  0.96685980  0.02819137  1  0  0.100516  0  0.947904  0  0  0.108489  0  1.014626  0  0  0.112206  0  1.010979  0  0  0.107744  0.105927  0  1.017022  0
H  H18  1  0.57420235  0.61162143  0.27604735  1  0  0.085574  0  0.950422  0  0  0.100886  0  1.016687  0  0  0.10063  0  1.018921  0  0  0.09149  0.101134  0  1.015081  0
H  H19  1  0.42579944  0.38839073  0.72394724  1  0  0.085641  0  0.950426  0  0  0.100994  0  1.016661  0  0  0.100738  0  1.0189  0  0  0.091522  0.101244  0  1.015056  0
H  H20  1  0.35889591  0.49996010  0.29618887  1  0  0.090893  0  0.924038  0  0  0.111336  0  0.978487  0  0  0.112565  0  0.977873  0  0  0.097943  0.110453  0  0.979058  0
H  H21  1  0.64111309  0.50005105  0.70380581  1  0  0.090843  0  0.924069  0  0  0.111318  0  0.978528  0  0  0.11255  0  0.977915  0  0  0.09792  0.110433  0  0.979103  0
H  H22  1  0.63494329  0.56407181  0.45051358  1  0  0.080446  0  0.947514  0  0  0.095624  0  1.012262  0  0  0.096688  0  1.012588  0  0  0.086403  0.094685  0  1.012218  0
H  H23  1  0.36506143  0.43594032  0.54948344  1  0  0.080388  0  0.947529  0  0  0.09564  0  1.012266  0  0  0.096706  0  1.01259  0  0  0.086389  0.094693  0  1.012229  0
H  H24  1  0.55903527  0.37947334  0.40638677  1  0  0.062865  0  0.960402  0  0  0.080614  0  1.02458  0  0  0.081225  0  1.024895  0  0  0.080097  0.080006  0  1.024584  0
H  H25  1  0.44095804  0.62054090  0.59360785  1  0  0.062737  0  0.960298  0  0  0.080508  0  1.024534  0  0  0.081116  0  1.024852  0  0  0.080036  0.079891  0  1.024537  0
H  H26  1  0.92881273  0.43239488  0.43325286  1  0  0.07891  0  0.953379  0  0  0.097013  0  1.012182  0  0  0.098042  0  1.012416  0  0  0.089213  0.096129  0  1.01213  0
H  H27  1  0.07118089  0.56760752  0.56674842  1  0  0.07893  0  0.953466  0  0  0.097054  0  1.012209  0  0  0.098096  0  1.012429  0  0  0.089201  0.096169  0  1.012156  0
H  H28  1  0.93493960  0.55879072  0.35235491  1  0  0.057061  0  0.967028  0  0  0.073734  0  1.034076  0  0  0.073802  0  1.035405  0  0  0.080034  0.073592  0  1.033051  0
H  H29  1  0.06507000  0.44120974  0.64764273  1  0  0.05715  0  0.966953  0  0  0.073769  0  1.034039  0  0  0.073836  0  1.03537  0  0  0.080054  0.073629  0  1.033015  0
C  C30  1  0.45249349  0.08941642  0.82054473  1  0  0.146202  0  3.746919  0  0  0.135291  0  3.991095  0  0  0.140788  0  4.011268  0  0  0.119309  0.131872  0  3.977338  0
C  C31  1  0.54750594  0.91057858  0.17945634  1  0  0.146336  0  3.746822  0  0  0.135348  0  3.99107  0  0  0.140844  0  4.011243  0  0  0.119303  0.13193  0  3.977311  0
C  C32  1  0.29243791  0.17563864  0.82517613  1  0  0.142774  0  3.749512  0  0  0.132688  0  3.994009  0  0  0.138446  0  4.013997  0  0  0.1201  0.128692  0  3.980679  0
C  C33  1  0.70756152  0.82435634  0.17482571  1  0  0.142558  0  3.749434  0  0  0.132517  0  3.993895  0  0  0.138277  0  4.01389  0  0  0.12002  0.128523  0  3.980564  0
C  C34  1  0.58209131  0.21300557  0.00500143  1  0  0.121977  0  3.816984  0  0  0.115757  0  4.069259  0  0  0.11813  0  4.091652  0  0  0.112203  0.114079  0  4.054193  0
C  C35  1  0.41791055  0.78699370  0.99499963  1  0  0.121951  0  3.817277  0  0  0.115762  0  4.069545  0  0  0.118136  0  4.091937  0  0  0.112201  0.114083  0  4.054478  0
C  C36  1  0.59444442  0.10746319  0.90964147  1  0  -0.039333  0  3.763375  0  0  -0.026548  0  3.996384  0  0  -0.031259  0  4.021059  0  0  -0.000733  -0.023245  0  3.979686  0
C  C37  1  0.40555229  0.89253289  0.09035812  1  0  -0.039338  0  3.76334  0  0  -0.026547  0  3.996375  0  0  -0.031258  0  4.021049  0  0  -0.000672  -0.023245  0  3.979677  0
C  C38  1  0.27499801  0.27352214  0.92028802  1  0  -0.035583  0  3.743736  0  0  -0.022933  0  3.976744  0  0  -0.027517  0  4.000594  0  0  0.000822  -0.019663  0  3.96123  0
C  C39  1  0.72500764  0.72647399  0.07971190  1  0  -0.035353  0  3.743608  0  0  -0.022699  0  3.97659  0  0  -0.027289  0  4.000457  0  0  0.000887  -0.019433  0  3.96108  0
C  C40  1  0.01073791  0.23211515  0.74047124  1  0  0.150286  0  3.683338  0  0  0.117756  0  3.939924  0  0  0.126143  0  3.95619  0  0  0.056669  0.112577  0  3.928764  0
C  C41  1  0.98926758  0.76788727  0.25953279  1  0  0.1502  0  3.683215  0  0  0.117603  0  3.939868  0  0  0.125989  0  3.956142  0  0  0.056699  0.112426  0  3.928705  0
C  C42  1  0.86331128  0.33899754  0.26734488  1  0  -0.182011  0  3.715299  0  0  -0.226359  0  3.967276  0  0  -0.22744  0  3.979744  0  0  -0.163158  -0.225319  0  3.958496  0
C  C43  1  0.13668084  0.66100484  0.73265712  1  0  -0.181772  0  3.715114  0  0  -0.226136  0  3.967005  0  0  -0.227259  0  3.979529  0  0  -0.163084  -0.225098  0  3.958214  0
C  C44  1  0.74923246  0.92181260  0.80988570  1  0  -0.096752  0  3.698394  0  0  -0.110862  0  3.954937  0  0  -0.117143  0  3.975548  0  0  -0.078298  -0.106462  0  3.940896  0
C  C45  1  0.25076802  0.07818030  0.19011429  1  0  -0.096658  0  3.698347  0  0  -0.110676  0  3.954899  0  0  -0.116957  0  3.975512  0  0  -0.078227  -0.10628  0  3.94086  0
C  C46  1  0.11247308  0.34949740  0.92234317  1  0  -0.021747  0  3.677845  0  0  -0.052031  0  3.931122  0  0  -0.04843  0  3.948008  0  0  -0.061574  -0.054273  0  3.920052  0
C  C47  1  0.88752275  0.65050174  0.07766233  1  0  -0.021886  0  3.678235  0  0  -0.052219  0  3.931503  0  0  -0.048623  0  3.948401  0  0  -0.06159  -0.054457  0  3.920431  0
C  C48  1  0.97851294  0.32810099  0.83256704  1  0  -0.110644  0  3.7008  0  0  -0.121095  0  3.956106  0  0  -0.128243  0  3.976758  0  0  -0.079447  -0.117101  0  3.942682  0
C  C49  1  0.02148783  0.67188657  0.16743443  1  0  -0.110543  0  3.700736  0  0  -0.121  0  3.956056  0  0  -0.128147  0  3.97671  0  0  -0.079472  -0.117009  0  3.942635  0
C  C50  1  0.54206219  0.40191687  0.18410860  1  0  0.188542  0  3.676542  0  0  0.190479  0  3.930815  0  0  0.194532  0  3.95027  0  0  0.131507  0.187856  0  3.918256  0
C  C51  1  0.45794266  0.59808895  0.81588585  1  0  0.188631  0  3.676501  0  0  0.190485  0  3.930928  0  0  0.194543  0  3.95038  0  0  0.131599  0.187861  0  3.918369  0
C  C52  1  0.70664644  0.32408817  0.17610371  1  0  0.189188  0  3.675787  0  0  0.194218  0  3.925805  0  0  0.198082  0  3.945348  0  0  0.13128  0.19148  0  3.912325  0
C  C53  1  0.29335784  0.67591537  0.82389736  1  0  0.18906  0  3.675738  0  0  0.194132  0  3.92577  0  0  0.198001  0  3.945323  0  0  0.131306  0.191395  0  3.912288  0
C  C54  1  0.60330902  0.91173518  0.72475149  1  0  0.150836  0  3.68552  0  0  0.116617  0  3.943814  0  0  0.124554  0  3.960611  0  0  0.055956  0.111487  0  3.932324  0
C  C55  1  0.39668668  0.08826303  0.27524764  1  0  0.150828  0  3.685555  0  0  0.11653  0  3.943929  0  0  0.124469  0  3.960727  0  0  0.055892  0.111404  0  3.93244  0
C  C56  1  0.74416945  0.02002945  0.90290435  1  0  -0.03251  0  3.693865  0  0  -0.062197  0  3.950427  0  0  -0.059206  0  3.967758  0  0  -0.064817  -0.064053  0  3.938498  0
C  C57  1  0.25583172  0.97996663  0.09709618  1  0  -0.032578  0  3.693932  0  0  -0.06228  0  3.95048  0  0  -0.059289  0  3.967809  0  0  -0.064868  -0.064135  0  3.938551  0
C  C58  1  0.42284717  0.29331351  0.01140161  1  0  0.12665  0  3.802901  0  0  0.120555  0  4.055729  0  0  0.123298  0  4.077296  0  0  0.112513  0.117987  0  4.041922  0
C  C59  1  0.57715817  0.70668797  0.98859683  1  0  0.126552  0  3.802787  0  0  0.120405  0  4.055674  0  0  0.12315  0  4.077244  0  0  0.112442  0.117838  0  4.041867  0
C  C60  1  0.52005245  0.50287257  0.28563293  1  0  -0.176833  0  3.710907  0  0  -0.220541  0  3.963141  0  0  -0.22196  0  3.975839  0  0  -0.1628  -0.219583  0  3.954381  0
C  C61  1  0.47995061  0.49713856  0.71436076  1  0  -0.176979  0  3.711007  0  0  -0.220772  0  3.963525  0  0  -0.222197  0  3.976219  0  0  -0.162892  -0.219815  0  3.954756  0
C  C62  1  0.63574859  0.47506041  0.38333813  1  0  -0.103497  0  3.675384  0  0  -0.141659  0  3.930012  0  0  -0.142792  0  3.944114  0  0  -0.171155  -0.140471  0  3.920031  0
C  C63  1  0.36425145  0.52495066  0.61665778  1  0  -0.103151  0  3.675085  0  0  -0.141461  0  3.929858  0  0  -0.142593  0  3.943962  0  0  -0.171073  -0.140267  0  3.919881  0
C  C64  1  0.85235030  0.45753729  0.36330088  1  0  -0.101984  0  3.686043  0  0  -0.13929  0  3.939035  0  0  -0.140229  0  3.952947  0  0  -0.171981  -0.138575  0  3.929227  0
C  C65  1  0.14764827  0.54246729  0.63669937  1  0  -0.102256  0  3.686039  0  0  -0.139454  0  3.938969  0  0  -0.14039  0  3.952887  0  0  -0.171991  -0.138742  0  3.929155  0
N  N66  1  0.45957954  0.99256898  0.73008392  1  0  -0.339201  0  3.252898  0  0  -0.272375  0  3.515436  0  0  -0.290804  0  3.534376  0  0  -0.322436  -0.2597  0  3.502076  0
N  N67  1  0.54041842  0.00742603  0.26991632  1  0  -0.339334  0  3.25302  0  0  -0.272427  0  3.515571  0  0  -0.290858  0  3.534514  0  0  -0.322421  -0.259751  0  3.502209  0
N  N68  1  0.16332939  0.15878574  0.73705377  1  0  -0.340693  0  3.232636  0  0  -0.276113  0  3.498  0  0  -0.294356  0  3.516378  0  0  -0.319582  -0.263898  0  3.485242  0
N  N69  1  0.83667507  0.84120504  0.26294758  1  0  -0.340569  0  3.232677  0  0  -0.27593  0  3.497953  0  0  -0.294165  0  3.516318  0  0  -0.319542  -0.263711  0  3.485184  0
N  N70  1  0.72364488  0.23099043  0.08741010  1  0  -0.341836  0  3.050894  0  0  -0.318656  0  3.319934  0  0  -0.327449  0  3.335055  0  0  -0.305538  -0.312337  0  3.309548  0
N  N71  1  0.27635797  0.76900668  0.91259299  1  0  -0.341787  0  3.05104  0  0  -0.318621  0  3.320075  0  0  -0.327413  0  3.335191  0  0  -0.305556  -0.312304  0  3.309686  0
N  N72  1  0.40486898  0.38700630  0.10164624  1  0  -0.348153  0  3.043338  0  0  -0.326017  0  3.316887  0  0  -0.334758  0  3.33102  0  0  -0.304079  -0.320042  0  3.308222  0
N  N73  1  0.59513988  0.61299741  0.89834801  1  0  -0.348063  0  3.043114  0  0  -0.325882  0  3.316711  0  0  -0.334621  0  3.330843  0  0  -0.304078  -0.319905  0  3.308043  0
Cl  Cl74  1  0.92712670  0.83856914  0.54463758  1  0  -0.544065  0  1.028308  0  0  -0.473588  0  1.314623  0  0  -0.493579  0  1.294721  0  0  -0.282587  -0.459212  0  1.327945  0
Cl  Cl75  1  0.07286256  0.16142688  0.45536252  1  0  -0.544039  0  1.028284  0  0  -0.473567  0  1.314596  0  0  -0.493558  0  1.294693  0  0  -0.282586  -0.459186  0  1.327918  0
Cl  Cl76  1  0.40873284  0.81346431  0.45058779  1  0  -0.546878  0  1.008994  0  0  -0.478907  0  1.288788  0  0  -0.498325  0  1.269253  0  0  -0.28698  -0.46473  0  1.301895  0
Cl  Cl77  1  0.59125902  0.18653697  0.54941559  1  0  -0.546893  0  1.00903  0  0  -0.478895  0  1.288795  0  0  -0.498314  0  1.26926  0  0  -0.286973  -0.464714  0  1.301903  0
