# generated using pymatgen
data_AgH9C8N2O5
_symmetry_space_group_name_H-M   'P 1'
_cell_length_a   5.18681442
_cell_length_b   13.89635153
_cell_length_c   14.86334169
_cell_angle_alpha   106.98298178
_cell_angle_beta   100.06216321
_cell_angle_gamma   89.97815503
_symmetry_Int_Tables_number   1
_chemical_formula_structural   AgH9C8N2O5
_chemical_formula_sum   'Ag4 H36 C32 N8 O20'
_cell_volume   1007.37844653
_cell_formula_units_Z   4
loop_
 _symmetry_equiv_pos_site_id
 _symmetry_equiv_pos_as_xyz
  1  'x, y, z'
loop_
 _atom_site_type_symbol
 _atom_site_label
 _atom_site_symmetry_multiplicity
 _atom_site_fract_x
 _atom_site_fract_y
 _atom_site_fract_z
 _atom_site_occupancy
 _atom_site_pbe_bader_spin_density
 _atom_site_pbe_cm5_charge
 _atom_site_pbe_ddec_charge
 _atom_site_pbe_ddec_spin_density
 _atom_site_pbe_ddec_sum_bond_order
 _atom_site_pbe_magmom
Ag  Ag0  1  0.26178681  0.46839298  0.43706447  1  0  0.40018  0.426582  0  1.91955  0
Ag  Ag1  1  0.82474347  0.03163990  0.56281950  1  0  0.400201  0.426526  0  1.921988  0
Ag  Ag2  1  0.73818738  0.53162135  0.56293638  1  0  0.400215  0.426624  0  1.919731  0
Ag  Ag3  1  0.17534225  0.96835863  0.43717120  1  0  0.400152  0.426533  0  1.921991  0
H  H4  1  0.85897512  0.18720328  0.45585254  1  0  0.107957  0.134921  0  1.019602  0
H  H5  1  0.40200438  0.31290474  0.54383588  1  0  0.108274  0.135349  0  1.02023  0
H  H6  1  0.14106347  0.81282385  0.54415922  1  0  0.107937  0.134836  0  1.019701  0
H  H7  1  0.59800070  0.68710657  0.45616675  1  0  0.108264  0.135378  0  1.020242  0
H  H8  1  0.98408599  0.21688076  0.36391834  1  0  0.107041  0.135972  0  0.981943  0
H  H9  1  0.61964043  0.28333141  0.63575101  1  0  0.107081  0.136498  0  0.982126  0
H  H10  1  0.01591724  0.78314488  0.63608475  1  0  0.10701  0.135894  0  0.982097  0
H  H11  1  0.38036975  0.71670250  0.36426084  1  0  0.107083  0.136504  0  0.982072  0
H  H12  1  0.41779274  0.13509494  0.34689150  1  0  0.115891  0.106034  0  1.010674  0
H  H13  1  0.07031307  0.36511930  0.65281036  1  0  0.116377  0.106384  0  1.011127  0
H  H14  1  0.58223117  0.86491183  0.65311980  1  0  0.115899  0.106007  0  1.01064  0
H  H15  1  0.92963830  0.63487168  0.34717995  1  0  0.116333  0.106337  0  1.011194  0
H  H16  1  0.67813860  0.05613739  0.31775968  1  0  0.117972  0.103032  0  0.985581  0
H  H17  1  0.35975615  0.44404378  0.68203144  1  0  0.117763  0.102458  0  0.985938  0
H  H18  1  0.32190557  0.94387464  0.68225837  1  0  0.117984  0.102981  0  0.98567  0
H  H19  1  0.64016455  0.55596677  0.31797175  1  0  0.117837  0.102551  0  0.98594  0
H  H20  1  0.23523871  0.22705878  0.24778499  1  0  0.131146  0.112987  0  1.035266  0
H  H21  1  0.98688582  0.27302821  0.75177928  1  0  0.130845  0.11273  0  1.035183  0
H  H22  1  0.76479799  0.77294048  0.75221496  1  0  0.131117  0.112941  0  1.035283  0
H  H23  1  0.01307424  0.72696954  0.24822016  1  0  0.130855  0.112802  0  1.035058  0
H  H24  1  0.13376535  0.23673378  0.08030852  1  0  0.115255  0.125175  0  1.016926  0
H  H25  1  0.05291655  0.26302319  0.91911916  1  0  0.11481  0.125489  0  1.01625  0
H  H26  1  0.86627082  0.76324814  0.91969066  1  0  0.115197  0.125114  0  1.016922  0
H  H27  1  0.94706811  0.73696779  0.08087256  1  0  0.114862  0.125615  0  1.016146  0
H  H28  1  0.42934764  0.15008544  0.96426518  1  0  0.112992  0.111461  0  1.005051  0
H  H29  1  0.46462358  0.34954072  0.03531922  1  0  0.112996  0.111784  0  1.003834  0
H  H30  1  0.57069268  0.84989799  0.03573266  1  0  0.113008  0.111483  0  1.004807  0
H  H31  1  0.53534545  0.65045101  0.96467644  1  0  0.112958  0.11169  0  1.003842  0
H  H32  1  0.80601603  0.06041381  0.02286155  1  0  0.114856  0.129817  0  1.00561  0
H  H33  1  0.78246568  0.43940906  0.97685352  1  0  0.11436  0.128237  0  1.006038  0
H  H34  1  0.19400896  0.93957335  0.97714981  1  0  0.114809  0.129747  0  1.00549  0
H  H35  1  0.21747470  0.56058720  0.02313620  1  0  0.114324  0.128184  0  1.006108  0
H  H36  1  0.87288217  0.05181551  0.19269839  1  0  0.123591  0.10298  0  1.077562  0
H  H37  1  0.67952392  0.44821670  0.80713991  1  0  0.123411  0.102417  0  1.077915  0
H  H38  1  0.12715206  0.94818145  0.80731423  1  0  0.123612  0.103066  0  1.077535  0
H  H39  1  0.32041975  0.55178935  0.19285541  1  0  0.123366  0.102487  0  1.077913  0
C  C40  1  0.69994252  0.31575815  0.42462194  1  0  0.207758  0.627934  0  4.13823  0
C  C41  1  0.27490624  0.18433129  0.57516486  1  0  0.208136  0.629888  0  4.13348  0
C  C42  1  0.30004892  0.68425317  0.57537580  1  0  0.207969  0.628408  0  4.137722  0
C  C43  1  0.72513900  0.81567323  0.42483909  1  0  0.208394  0.630205  0  4.132988  0
C  C44  1  0.80277043  0.21141120  0.39123971  1  0  -0.161154  -0.30943  0  3.868634  0
C  C45  1  0.41087416  0.28871598  0.60847507  1  0  -0.161616  -0.311772  0  3.869983  0
C  C46  1  0.19724700  0.78860463  0.60876763  1  0  -0.161204  -0.30956  0  3.868996  0
C  C47  1  0.58912939  0.71129835  0.39152828  1  0  -0.161597  -0.311832  0  3.870094  0
C  C48  1  0.60525680  0.13117903  0.32240849  1  0  -0.055067  -0.06648  0  3.849823  0
C  C49  1  0.28224386  0.36899353  0.67731754  1  0  -0.054686  -0.064868  0  3.849269  0
C  C50  1  0.39477509  0.86882923  0.67760843  1  0  -0.054938  -0.066161  0  3.849682  0
C  C51  1  0.71770744  0.63101101  0.32267717  1  0  -0.054793  -0.06498  0  3.849634  0
C  C52  1  0.35079636  0.19004953  0.19440326  1  0  0.072004  0.058269  0  3.806728  0
C  C53  1  0.15577688  0.30998514  0.80520325  1  0  0.072322  0.057566  0  3.805026  0
C  C54  1  0.64923680  0.80993916  0.80560096  1  0  0.071955  0.058195  0  3.806616  0
C  C55  1  0.84418578  0.69001639  0.19478932  1  0  0.072217  0.057487  0  3.804762  0
C  C56  1  0.30057828  0.19531238  0.10127171  1  0  -0.070673  -0.113425  0  3.940222  0
C  C57  1  0.19874158  0.30452339  0.89827226  1  0  -0.069892  -0.112728  0  3.93809  0
C  C58  1  0.69945197  0.80466953  0.89872979  1  0  -0.070601  -0.11323  0  3.939916  0
C  C59  1  0.80122064  0.69547513  0.10172012  1  0  -0.069914  -0.112775  0  3.937723  0
C  C60  1  0.46381907  0.14828619  0.03814286  1  0  -0.0471  -0.005491  0  3.914376  0
C  C61  1  0.42510025  0.35146681  0.96146976  1  0  -0.047004  -0.006259  0  3.912588  0
C  C62  1  0.53620328  0.85169498  0.96185591  1  0  -0.047127  -0.005572  0  3.914069  0
C  C63  1  0.57485387  0.64853019  0.03852574  1  0  -0.046889  -0.006083  0  3.912226  0
C  C64  1  0.67509948  0.09750581  0.07039612  1  0  -0.070556  -0.112278  0  3.971518  0
C  C65  1  0.60400997  0.40233484  0.92930440  1  0  -0.069479  -0.109939  0  3.969167  0
C  C66  1  0.32492359  0.90248135  0.92961310  1  0  -0.070404  -0.111972  0  3.971571  0
C  C67  1  0.39592709  0.59766593  0.07068905  1  0  -0.069499  -0.109869  0  3.969291  0
C  C68  1  0.71601975  0.09283436  0.16337759  1  0  0.06446  0.04256  0  3.813737  0
C  C69  1  0.55192312  0.40715961  0.83636604  1  0  0.06433  0.042181  0  3.81123  0
C  C70  1  0.28400807  0.90715884  0.83663426  1  0  0.06428  0.042069  0  3.813932  0
C  C71  1  0.44801871  0.59284719  0.16362870  1  0  0.064343  0.042085  0  3.811583  0
N  N72  1  0.00156423  0.40922665  0.20851986  1  0  0.093392  0.710025  0  4.433617  0
N  N73  1  0.79285295  0.09069035  0.79124303  1  0  0.093772  0.706351  0  4.438477  0
N  N74  1  0.99840299  0.59076584  0.79147320  1  0  0.093523  0.710154  0  4.433692  0
N  N75  1  0.20717730  0.90929082  0.20875086  1  0  0.093897  0.708439  0  4.438216  0
N  N76  1  0.55408199  0.13865205  0.22336392  1  0  -0.201436  0.118238  0  3.696272  0
N  N77  1  0.33004066  0.36142600  0.77632590  1  0  -0.202419  0.118593  0  3.692862  0
N  N78  1  0.44595203  0.86134340  0.77664827  1  0  -0.201404  0.118357  0  3.696024  0
N  N79  1  0.66991056  0.63857779  0.22366658  1  0  -0.202309  0.118668  0  3.692885  0
O  O80  1  0.14766888  0.48173367  0.27074067  1  0  -0.213659  -0.466645  0  2.080918  0
O  O81  1  0.87746854  0.01834360  0.72906187  1  0  -0.213757  -0.464333  0  2.081243  0
O  O82  1  0.85228172  0.51826561  0.72924985  1  0  -0.213664  -0.46657  0  2.080787  0
O  O83  1  0.12259252  0.98164739  0.27093194  1  0  -0.21383  -0.465132  0  2.081219  0
O  O84  1  0.89363472  0.34379886  0.23508369  1  0  -0.199319  -0.448277  0  1.937604  0
O  O85  1  0.65838634  0.15616637  0.76468922  1  0  -0.19937  -0.446949  0  1.938558  0
O  O86  1  0.10635408  0.65619436  0.76491630  1  0  -0.19942  -0.448388  0  1.93778  0
O  O87  1  0.34164617  0.84381706  0.23530678  1  0  -0.199444  -0.447836  0  1.938542  0
O  O88  1  0.97054294  0.40553022  0.12099823  1  0  -0.213788  -0.474124  0  1.921944  0
O  O89  1  0.84866437  0.09418905  0.87873406  1  0  -0.213769  -0.473968  0  1.92577  0
O  O90  1  0.02940982  0.59445699  0.87899315  1  0  -0.213793  -0.474175  0  1.921998  0
O  O91  1  0.15134098  0.90578233  0.12125761  1  0  -0.213737  -0.474804  0  1.925885  0
O  O92  1  0.45880892  0.32598089  0.39609932  1  0  -0.319434  -0.518549  0  2.386788  0
O  O93  1  0.06215666  0.17412898  0.60357876  1  0  -0.319336  -0.519485  0  2.385651  0
O  O94  1  0.54118414  0.67402817  0.60389857  1  0  -0.31957  -0.518728  0  2.386666  0
O  O95  1  0.93790319  0.82586874  0.39643163  1  0  -0.319562  -0.519761  0  2.385354  0
O  O96  1  0.13629418  0.61651095  0.51676453  1  0  -0.332576  -0.531637  0  2.419194  0
O  O97  1  0.61973825  0.88345952  0.48334386  1  0  -0.333129  -0.531874  0  2.41687  0
O  O98  1  0.86367124  0.38351018  0.48323226  1  0  -0.332565  -0.531432  0  2.419263  0
O  O99  1  0.38030806  0.11655181  0.51665395  1  0  -0.333093  -0.531907  0  2.416968  0
