# generated using pymatgen
data_HgH20C26S2(IN3)2
_symmetry_space_group_name_H-M   'P 1'
_cell_length_a   8.53270201
_cell_length_b   12.41055213
_cell_length_c   13.90325678
_cell_angle_alpha   110.16995548
_cell_angle_beta   93.00139540
_cell_angle_gamma   97.75152515
_symmetry_Int_Tables_number   1
_chemical_formula_structural   HgH20C26S2(IN3)2
_chemical_formula_sum   'Hg2 H40 C52 S4 I4 N12'
_cell_volume   1361.61637036
_cell_formula_units_Z   2
loop_
 _symmetry_equiv_pos_site_id
 _symmetry_equiv_pos_as_xyz
  1  'x, y, z'
loop_
 _atom_site_type_symbol
 _atom_site_label
 _atom_site_symmetry_multiplicity
 _atom_site_fract_x
 _atom_site_fract_y
 _atom_site_fract_z
 _atom_site_occupancy
 _atom_site_hle17_bader_spin_density
 _atom_site_hle17_ddec_charge
 _atom_site_hle17_ddec_spin_density
 _atom_site_hle17_ddec_sum_bond_order
 _atom_site_hle17_magmom
 _atom_site_hse06_10hf_bader_spin_density
 _atom_site_hse06_10hf_ddec_charge
 _atom_site_hse06_10hf_ddec_spin_density
 _atom_site_hse06_10hf_ddec_sum_bond_order
 _atom_site_hse06_10hf_magmom
 _atom_site_hse06_bader_spin_density
 _atom_site_hse06_ddec_charge
 _atom_site_hse06_ddec_spin_density
 _atom_site_hse06_ddec_sum_bond_order
 _atom_site_hse06_magmom
 _atom_site_pbe_bader_spin_density
 _atom_site_pbe_cm5_charge
 _atom_site_pbe_ddec_charge
 _atom_site_pbe_ddec_spin_density
 _atom_site_pbe_ddec_sum_bond_order
 _atom_site_pbe_magmom
Hg  Hg0  1  0.05555872  0.24452051  0.36316471  1  0  0.52185  0  2.191856  0  0  0.383028  0  2.683614  0  0  0.427872  0  2.658188  0  0  0.397436  0.353054  0  2.700079  0
Hg  Hg1  1  0.94444129  0.75547672  0.63683176  1  0  0.521809  0  2.19185  0  0  0.382986  0  2.683614  0  0  0.42783  0  2.658187  0  0  0.397434  0.353013  0  2.700077  0
H  H2  1  0.56628130  0.92144774  0.63560084  1  0  0.121911  0  0.96095  0  0  0.129441  0  1.025323  0  0  0.133625  0  1.023522  0  0  0.10277  0.126404  0  1.026905  0
H  H3  1  0.43372278  0.07855210  0.36440016  1  0  0.12198  0  0.960931  0  0  0.129525  0  1.025266  0  0  0.13371  0  1.023462  0  0  0.10279  0.126478  0  1.026858  0
H  H4  1  0.86695647  0.02627318  0.39797275  1  0  0.069183  0  1.012915  0  0  0.067789  0  1.097746  0  0  0.07187  0  1.093286  0  0  0.093683  0.06482  0  1.10093  0
H  H5  1  0.13303387  0.97372831  0.60202691  1  0  0.069158  0  1.012961  0  0  0.06779  0  1.097777  0  0  0.071873  0  1.093314  0  0  0.093705  0.06482  0  1.100959  0
H  H6  1  0.98020536  0.35793762  0.61836778  1  0  0.067445  0  0.958645  0  0  0.07347  0  1.03073  0  0  0.076528  0  1.026954  0  0  0.102469  0.071228  0  1.033439  0
H  H7  1  0.01979637  0.64206223  0.38163028  1  0  0.067431  0  0.958658  0  0  0.073466  0  1.030746  0  0  0.076523  0  1.02697  0  0  0.102478  0.071223  0  1.033457  0
H  H8  1  0.79831971  0.30452491  0.73696063  1  0  0.104206  0  0.952392  0  0  0.113813  0  1.015171  0  0  0.116887  0  1.014825  0  0  0.105588  0.111582  0  1.015599  0
H  H9  1  0.20168302  0.69547407  0.26303791  1  0  0.10423  0  0.952389  0  0  0.113794  0  1.015229  0  0  0.116874  0  1.014878  0  0  0.105605  0.111566  0  1.015645  0
H  H10  1  0.64650159  0.10401052  0.68169493  1  0  0.101708  0  0.941251  0  0  0.110625  0  1.00627  0  0  0.113861  0  1.003034  0  0  0.105289  0.10827  0  1.008615  0
H  H11  1  0.35349581  0.89599103  0.31830425  1  0  0.101674  0  0.941272  0  0  0.110589  0  1.006299  0  0  0.113826  0  1.003061  0  0  0.105271  0.108234  0  1.008645  0
H  H12  1  0.45924238  0.70765214  0.55578674  1  0  0.072185  0  0.94603  0  0  0.081562  0  1.009296  0  0  0.083281  0  1.008571  0  0  0.104936  0.080272  0  1.009838  0
H  H13  1  0.54076468  0.29234509  0.44421714  1  0  0.072291  0  0.945944  0  0  0.081583  0  1.009289  0  0  0.083301  0  1.008565  0  0  0.104932  0.080296  0  1.009833  0
H  H14  1  0.66733962  0.81181866  0.17127137  1  0  0.102868  0  0.934916  0  0  0.114198  0  1.003723  0  0  0.115703  0  1.002379  0  0  0.093821  0.113095  0  1.004778  0
H  H15  1  0.33265759  0.18818201  0.82872825  1  0  0.102933  0  0.93492  0  0  0.114246  0  1.003736  0  0  0.115749  0  1.002393  0  0  0.093835  0.113149  0  1.004789  0
H  H16  1  0.84991028  0.81060927  0.23776305  1  0  0.099158  0  0.972825  0  0  0.108599  0  1.044264  0  0  0.110702  0  1.042655  0  0  0.088201  0.107078  0  1.04553  0
H  H17  1  0.15008351  0.18939748  0.76223621  1  0  0.099194  0  0.972833  0  0  0.108664  0  1.044235  0  0  0.110764  0  1.042628  0  0  0.088241  0.107146  0  1.045502  0
H  H18  1  0.57394289  0.59549093  0.00703248  1  0  0.08306  0  0.982489  0  0  0.091035  0  1.053508  0  0  0.093895  0  1.052376  0  0  0.087962  0.08897  0  1.054421  0
H  H19  1  0.42606020  0.40450979  0.99296661  1  0  0.083034  0  0.982555  0  0  0.09105  0  1.053519  0  0  0.09391  0  1.052388  0  0  0.087961  0.088987  0  1.054431  0
H  H20  1  0.67332087  0.48989865  0.84110641  1  0  0.077905  0  0.980209  0  0  0.081809  0  1.055037  0  0  0.08487  0  1.053591  0  0  0.087167  0.079617  0  1.056128  0
H  H21  1  0.32668773  0.51010035  0.15889519  1  0  0.077849  0  0.980216  0  0  0.081756  0  1.055048  0  0  0.084815  0  1.053605  0  0  0.087151  0.079563  0  1.05614  0
H  H22  1  0.96098906  0.52473738  0.81962884  1  0  0.087534  0  0.955059  0  0  0.098455  0  1.01843  0  0  0.101279  0  1.017419  0  0  0.092352  0.096409  0  1.01924  0
H  H23  1  0.03902145  0.47526510  0.18037464  1  0  0.087461  0  0.95508  0  0  0.098409  0  1.018436  0  0  0.101233  0  1.017424  0  0  0.092348  0.096363  0  1.019247  0
H  H24  1  0.05309910  0.76318015  0.13284735  1  0  0.082736  0  1.011186  0  0  0.088923  0  1.085971  0  0  0.091822  0  1.085058  0  0  0.081763  0.08685  0  1.086716  0
H  H25  1  0.94690200  0.23682226  0.86715581  1  0  0.082737  0  1.011188  0  0  0.088953  0  1.085944  0  0  0.091851  0  1.085032  0  0  0.081786  0.08688  0  1.086689  0
H  H26  1  0.21194127  0.69926130  0.89541136  1  0  0.106801  0  0.964852  0  0  0.118545  0  1.032895  0  0  0.118894  0  1.034403  0  0  0.101618  0.118356  0  1.031789  0
H  H27  1  0.78806498  0.30073767  0.10459231  1  0  0.106887  0  0.964693  0  0  0.118552  0  1.032825  0  0  0.118904  0  1.03435  0  0  0.101611  0.118362  0  1.031718  0
H  H28  1  0.24432841  0.58073903  0.93339662  1  0  0.099757  0  0.937901  0  0  0.116061  0  1.000261  0  0  0.116736  0  1.000905  0  0  0.097278  0.115562  0  0.999911  0
H  H29  1  0.75567450  0.41926078  0.06660794  1  0  0.099782  0  0.937853  0  0  0.116058  0  1.000216  0  0  0.116743  0  1.000863  0  0  0.097295  0.115559  0  0.999866  0
H  H30  1  0.11847510  0.02091941  0.93728769  1  0  0.064434  0  0.983527  0  0  0.072391  0  1.050839  0  0  0.075594  0  1.04749  0  0  0.094206  0.070005  0  1.053324  0
H  H31  1  0.88152744  0.97907870  0.06270985  1  0  0.064445  0  0.98349  0  0  0.072392  0  1.050804  0  0  0.075592  0  1.047463  0  0  0.094195  0.070006  0  1.053288  0
H  H32  1  0.30320390  0.19630997  0.05618359  1  0  0.117187  0  0.970469  0  0  0.126759  0  1.032533  0  0  0.12955  0  1.033505  0  0  0.10465  0.124755  0  1.032063  0
H  H33  1  0.69679060  0.80368895  0.94381467  1  0  0.117192  0  0.970438  0  0  0.126767  0  1.032495  0  0  0.129557  0  1.033466  0  0  0.10466  0.124759  0  1.032035  0
H  H34  1  0.38297733  0.32024817  0.20737329  1  0  0.093552  0  0.969491  0  0  0.103936  0  1.033545  0  0  0.106693  0  1.031589  0  0  0.100043  0.101942  0  1.034914  0
H  H35  1  0.61701908  0.67975422  0.79262827  1  0  0.093532  0  0.969572  0  0  0.103942  0  1.03358  0  0  0.106699  0  1.031624  0  0  0.100051  0.101945  0  1.03496  0
H  H36  1  0.58339872  0.48525714  0.32452308  1  0  0.107122  0  0.99196  0  0  0.107823  0  1.067902  0  0  0.112361  0  1.064827  0  0  0.093513  0.104529  0  1.070348  0
H  H37  1  0.41660220  0.51474443  0.67547765  1  0  0.107145  0  0.991937  0  0  0.107845  0  1.06788  0  0  0.112383  0  1.064803  0  0  0.093529  0.104552  0  1.070325  0
H  H38  1  0.85224625  0.44368442  0.37093568  1  0  0.056497  0  0.999936  0  0  0.060026  0  1.078632  0  0  0.063264  0  1.074811  0  0  0.088426  0.057645  0  1.081386  0
H  H39  1  0.14775276  0.55631368  0.62906103  1  0  0.056461  0  0.999969  0  0  0.059975  0  1.07867  0  0  0.063225  0  1.074842  0  0  0.088417  0.057595  0  1.081425  0
H  H40  1  0.71447699  0.08898473  0.21756880  1  0  0.081084  0  0.954653  0  0  0.083015  0  1.032833  0  0  0.086531  0  1.028809  0  0  0.108002  0.080514  0  1.035609  0
H  H41  1  0.28551633  0.91101418  0.78243014  1  0  0.081106  0  0.954644  0  0  0.083035  0  1.032828  0  0  0.086552  0  1.028801  0  0  0.107992  0.080533  0  1.035605  0
C  C42  1  0.58333167  0.87259627  0.55633151  1  0  -0.242374  0  3.717947  0  0  -0.261903  0  3.973817  0  0  -0.273871  0  3.994686  0  0  -0.100953  -0.25439  0  3.960031  0
C  C43  1  0.41666870  0.12740269  0.44366838  1  0  -0.242579  0  3.717987  0  0  -0.262092  0  3.973844  0  0  -0.274061  0  3.994709  0  0  -0.101012  -0.254572  0  3.960066  0
C  C44  1  0.84871655  0.08599957  0.47366969  1  0  0.105988  0  3.662396  0  0  0.069529  0  3.906417  0  0  0.076587  0  3.924151  0  0  0.044734  0.065154  0  3.894252  0
C  C45  1  0.15128184  0.91400110  0.52633068  1  0  0.10605  0  3.662323  0  0  0.069556  0  3.906341  0  0  0.076621  0  3.924078  0  0  0.044747  0.065185  0  3.894175  0
C  C46  1  0.91213348  0.27070604  0.59689919  1  0  0.130373  0  3.703132  0  0  0.098983  0  3.954348  0  0  0.107487  0  3.971509  0  0  0.042427  0.09355  0  3.942652  0
C  C47  1  0.08786255  0.72929464  0.40309895  1  0  0.130307  0  3.703077  0  0  0.098899  0  3.954263  0  0  0.107401  0  3.971432  0  0  0.042395  0.093464  0  3.942568  0
C  C48  1  0.81077923  0.24051679  0.66221377  1  0  -0.113304  0  3.728102  0  0  -0.124019  0  3.979383  0  0  -0.131655  0  4.000366  0  0  -0.084905  -0.119251  0  3.965468  0
C  C49  1  0.18921798  0.75948391  0.33778297  1  0  -0.113229  0  3.728199  0  0  -0.123909  0  3.979477  0  0  -0.131552  0  4.000456  0  0  -0.084918  -0.11914  0  3.965563  0
C  C50  1  0.72645334  0.12776934  0.63101391  1  0  -0.029102  0  3.694886  0  0  -0.058378  0  3.945559  0  0  -0.053315  0  3.96217  0  0  -0.065138  -0.061293  0  3.934138  0
C  C51  1  0.27354016  0.87223045  0.36898387  1  0  -0.029178  0  3.695068  0  0  -0.058446  0  3.945743  0  0  -0.053377  0  3.962356  0  0  -0.065148  -0.061359  0  3.93432  0
C  C52  1  0.74576334  0.04713820  0.53440732  1  0  -0.04049  0  3.75099  0  0  -0.01584  0  3.976942  0  0  -0.023325  0  4.000012  0  0  -0.006328  -0.011226  0  3.961368  0
C  C53  1  0.25423233  0.95286073  0.46559170  1  0  -0.040462  0  3.750929  0  0  -0.015813  0  3.976939  0  0  -0.023316  0  4.000025  0  0  -0.00636  -0.011204  0  3.961367  0
C  C54  1  0.66848954  0.92379479  0.49534679  1  0  0.265961  0  3.761539  0  0  0.257581  0  4.01009  0  0  0.269611  0  4.02819  0  0  0.129734  0.249852  0  3.99773  0
C  C55  1  0.33150749  0.07620501  0.50465255  1  0  0.266062  0  3.761468  0  0  0.257627  0  4.010101  0  0  0.269661  0  4.028198  0  0  0.129761  0.249901  0  3.997739  0
C  C56  1  0.52442771  0.75373468  0.51215508  1  0  0.181598  0  3.730975  0  0  0.153309  0  3.992458  0  0  0.163828  0  4.007595  0  0  0.052231  0.146617  0  3.982067  0
C  C57  1  0.47557601  0.24626340  0.48784752  1  0  0.181587  0  3.730912  0  0  0.153371  0  3.992341  0  0  0.16389  0  4.007479  0  0  0.052287  0.146674  0  3.981955  0
C  C58  1  0.62619947  0.74735999  0.36285240  1  0  0.339986  0  3.830309  0  0  0.326966  0  4.113746  0  0  0.343984  0  4.125707  0  0  0.235891  0.315454  0  4.105561  0
C  C59  1  0.37380406  0.25263724  0.63714777  1  0  0.33999  0  3.830175  0  0  0.32693  0  4.113676  0  0  0.343949  0  4.125636  0  0  0.235903  0.315419  0  4.105489  0
C  C60  1  0.75031142  0.75533095  0.18207066  1  0  -0.183118  0  3.681195  0  0  -0.222231  0  3.928224  0  0  -0.22127  0  3.937994  0  0  -0.149789  -0.222853  0  3.921472  0
C  C61  1  0.24968715  0.24467060  0.81792927  1  0  -0.183346  0  3.681423  0  0  -0.222445  0  3.928427  0  0  -0.221484  0  3.938199  0  0  -0.149897  -0.223085  0  3.921699  0
C  C62  1  0.80692584  0.68697398  0.08145105  1  0  0.105463  0  3.756157  0  0  0.132612  0  3.986134  0  0  0.132963  0  4.010501  0  0  -0.018319  0.132403  0  3.969554  0
C  C63  1  0.19307545  0.31302933  0.91854951  1  0  0.105567  0  3.75608  0  0  0.132672  0  3.986131  0  0  0.133024  0  4.010496  0  0  -0.018263  0.132465  0  3.969556  0
C  C64  1  0.70074445  0.60891866  0.99867518  1  0  -0.146464  0  3.76057  0  0  -0.167559  0  4.007427  0  0  -0.170921  0  4.028393  0  0  -0.106645  -0.165245  0  3.993258  0
C  C65  1  0.29925963  0.39108119  0.00132439  1  0  -0.146473  0  3.760495  0  0  -0.167583  0  4.007366  0  0  -0.170944  0  4.028329  0  0  -0.10663  -0.165271  0  3.993195  0
C  C66  1  0.75684703  0.55002760  0.90528864  1  0  -0.070624  0  3.811976  0  0  -0.080057  0  4.063091  0  0  -0.081689  0  4.085147  0  0  -0.100138  -0.078821  0  4.04803  0
C  C67  1  0.24315804  0.44997137  0.09471285  1  0  -0.07052  0  3.811911  0  0  -0.079957  0  4.063055  0  0  -0.081588  0  4.085112  0  0  -0.100113  -0.078722  0  4.047997  0
C  C68  1  0.91851056  0.56890705  0.89355558  1  0  -0.122283  0  3.730679  0  0  -0.142112  0  3.973166  0  0  -0.146172  0  3.996054  0  0  -0.096731  -0.139281  0  3.957609  0
C  C69  1  0.08149642  0.43109542  0.10644562  1  0  -0.122205  0  3.730774  0  0  -0.142049  0  3.973261  0  0  -0.146107  0  3.996146  0  0  -0.096744  -0.139219  0  3.957705  0
C  C70  1  0.02653652  0.64593909  0.97565699  1  0  0.122988  0  3.739686  0  0  0.145546  0  3.972765  0  0  0.146351  0  3.997388  0  0  -0.009344  0.145039  0  3.956059  0
C  C71  1  0.97346694  0.35406333  0.02434768  1  0  0.122984  0  3.739682  0  0  0.145537  0  3.972744  0  0  0.146352  0  3.997373  0  0  -0.009391  0.145029  0  3.956038  0
C  C72  1  0.96925794  0.70328056  0.06882206  1  0  -0.172332  0  3.709779  0  0  -0.198034  0  3.947407  0  0  -0.202797  0  3.96992  0  0  -0.100277  -0.194719  0  3.932113  0
C  C73  1  0.03074353  0.29672361  0.93118022  1  0  -0.172316  0  3.709687  0  0  -0.198037  0  3.947338  0  0  -0.202799  0  3.96985  0  0  -0.10028  -0.19472  0  3.932043  0
C  C74  1  0.19992202  0.66428693  0.95769818  1  0  -0.182778  0  3.670799  0  0  -0.221672  0  3.918961  0  0  -0.220495  0  3.928724  0  0  -0.142915  -0.222553  0  3.912359  0
C  C75  1  0.80008262  0.33571550  0.04230653  1  0  -0.182957  0  3.670805  0  0  -0.221729  0  3.91893  0  0  -0.220595  0  3.928748  0  0  -0.142952  -0.222604  0  3.912321  0
C  C76  1  0.32566007  0.89734982  0.05925180  1  0  0.338776  0  3.837943  0  0  0.323799  0  4.126967  0  0  0.340986  0  4.138148  0  0  0.231731  0.312197  0  4.119307  0
C  C77  1  0.67433931  0.10265000  0.94074762  1  0  0.338969  0  3.837897  0  0  0.324001  0  4.126896  0  0  0.341188  0  4.138077  0  0  0.231801  0.312398  0  4.119237  0
C  C78  1  0.20859148  0.01322228  0.99233936  1  0  0.187483  0  3.717036  0  0  0.159374  0  3.976546  0  0  0.169763  0  3.989111  0  0  0.053179  0.152772  0  3.967922  0
C  C79  1  0.79140691  0.98677840  0.00766030  1  0  0.187509  0  3.716947  0  0  0.159408  0  3.976455  0  0  0.169799  0  3.989017  0  0  0.053263  0.152806  0  3.967829  0
C  C80  1  0.31021461  0.11038078  0.05855096  1  0  -0.222681  0  3.691084  0  0  -0.242286  0  3.940878  0  0  -0.253109  0  3.96069  0  0  -0.095809  -0.235522  0  3.927785  0
C  C81  1  0.68978143  0.88961988  0.94144933  1  0  -0.222648  0  3.691151  0  0  -0.24226  0  3.940936  0  0  -0.253074  0  3.960751  0  0  -0.095842  -0.235497  0  3.927839  0
C  C82  1  0.42206574  0.09212176  0.12661465  1  0  0.265165  0  3.786696  0  0  0.259766  0  4.03263  0  0  0.27186  0  4.049955  0  0  0.127898  0.251987  0  4.02073  0
C  C83  1  0.57793499  0.90787893  0.87338651  1  0  0.265116  0  3.786697  0  0  0.259745  0  4.03259  0  0  0.271815  0  4.049946  0  0  0.127867  0.251968  0  4.020688  0
C  C84  1  0.53466077  0.19113494  0.19919023  1  0  -0.034665  0  3.739128  0  0  -0.012734  0  3.967943  0  0  -0.020005  0  3.991188  0  0  -0.003845  -0.008598  0  3.952957  0
C  C85  1  0.46533780  0.80886663  0.80080755  1  0  -0.034681  0  3.739005  0  0  -0.012772  0  3.967828  0  0  -0.020041  0  3.9911  0  0  -0.003876  -0.008635  0  3.95284  0
C  C86  1  0.49900541  0.30455648  0.23076116  1  0  -0.039825  0  3.69171  0  0  -0.063378  0  3.93107  0  0  -0.059565  0  3.948642  0  0  -0.06642  -0.065455  0  3.919007  0
C  C87  1  0.50099063  0.69544419  0.76923841  1  0  -0.039803  0  3.691689  0  0  -0.063362  0  3.931063  0  0  -0.059551  0  3.94863  0  0  -0.066419  -0.065442  0  3.918997  0
C  C88  1  0.61085574  0.39716115  0.29486513  1  0  -0.120197  0  3.753597  0  0  -0.130016  0  4.002628  0  0  -0.137137  0  4.022684  0  0  -0.090545  -0.125555  0  3.989319  0
C  C89  1  0.38914264  0.60283953  0.70513524  1  0  -0.120195  0  3.753533  0  0  -0.130028  0  4.002589  0  0  -0.137149  0  4.022645  0  0  -0.090551  -0.125566  0  3.989278  0
C  C90  1  0.75800341  0.37433340  0.32341732  1  0  0.113464  0  3.730726  0  0  0.08392  0  3.978395  0  0  0.091546  0  3.995403  0  0  0.033129  0.079006  0  3.966899  0
C  C91  1  0.24199561  0.62566469  0.67658082  1  0  0.113477  0  3.730803  0  0  0.08396  0  3.978489  0  0  0.091577  0  3.995492  0  0  0.033123  0.079047  0  3.966993  0
C  C92  1  0.68234688  0.17569913  0.23710478  1  0  0.108864  0  3.656386  0  0  0.069087  0  3.91063  0  0  0.077346  0  3.926377  0  0  0.05076  0.063883  0  3.899802  0
C  C93  1  0.31764879  0.82429981  0.76289208  1  0  0.108769  0  3.656311  0  0  0.069009  0  3.910573  0  0  0.077264  0  3.926319  0  0  0.050764  0.063805  0  3.899744  0
S  S94  1  0.64814071  0.65575631  0.23725700  1  0  -0.031132  0  2.358663  0  0  -0.027268  0  2.691767  0  0  -0.035759  0  2.692996  0  0  0.027905  -0.020855  0  2.690626  0
S  S95  1  0.35186102  0.34424352  0.76274393  1  0  -0.031122  0  2.358691  0  0  -0.027254  0  2.691815  0  0  -0.035746  0  2.693045  0  0  0.027896  -0.020836  0  2.690682  0
S  S96  1  0.34132498  0.75922009  0.06453608  1  0  -0.009502  0  2.358654  0  0  -0.010189  0  2.703917  0  0  -0.017001  0  2.703738  0  0  0.038347  -0.004956  0  2.703851  0
S  S97  1  0.65867866  0.24078321  0.93546815  1  0  -0.009522  0  2.358732  0  0  -0.010227  0  2.703949  0  0  -0.017025  0  2.703788  0  0  0.038357  -0.004996  0  2.703883  0
I  I98  1  0.22296322  0.45722267  0.40741724  1  0  -0.315463  0  1.214806  0  0  -0.273865  0  1.573123  0  0  -0.292859  0  1.555176  0  0  -0.131763  -0.260713  0  1.585179  0
I  I99  1  0.77703462  0.54277544  0.59257728  1  0  -0.315469  0  1.214802  0  0  -0.27387  0  1.573112  0  0  -0.292864  0  1.555164  0  0  -0.131777  -0.260717  0  1.585168  0
I  I100  1  0.06253832  0.02159551  0.24459195  1  0  -0.318509  0  1.341682  0  0  -0.273815  0  1.710238  0  0  -0.294003  0  1.694537  0  0  -0.115917  -0.259797  0  1.720774  0
I  I101  1  0.93746150  0.97840083  0.75540711  1  0  -0.31848  0  1.341646  0  0  -0.273779  0  1.710191  0  0  -0.293968  0  1.694488  0  0  -0.115898  -0.259764  0  1.720731  0
N  N102  1  0.92909374  0.19454158  0.50356189  1  0  -0.278451  0  3.233616  0  0  -0.20234  0  3.496874  0  0  -0.222605  0  3.518236  0  0  -0.311995  -0.188703  0  3.481981  0
N  N103  1  0.07090347  0.80545911  0.49643629  1  0  -0.27845  0  3.233526  0  0  -0.202314  0  3.496789  0  0  -0.222578  0  3.518139  0  0  -0.311976  -0.188677  0  3.481893  0
N  N104  1  0.68819132  0.86016105  0.39714503  1  0  -0.411472  0  3.020303  0  0  -0.371789  0  3.276502  0  0  -0.388116  0  3.289516  0  0  -0.313698  -0.360965  0  3.267679  0
N  N105  1  0.31180887  0.13983704  0.60285387  1  0  -0.41151  0  3.02029  0  0  -0.371795  0  3.276528  0  0  -0.388118  0  3.289538  0  0  -0.313726  -0.360969  0  3.267703  0
N  N106  1  0.21459690  0.90538974  0.99150207  1  0  -0.384777  0  3.05107  0  0  -0.346763  0  3.318602  0  0  -0.362295  0  3.332082  0  0  -0.32205  -0.336448  0  3.309408  0
N  N107  1  0.78540365  0.09461010  0.00849523  1  0  -0.384907  0  3.051159  0  0  -0.346902  0  3.318705  0  0  -0.362433  0  3.332182  0  0  -0.322128  -0.336587  0  3.309513  0
N  N108  1  0.43099852  0.98464071  0.12674242  1  0  -0.438905  0  3.025057  0  0  -0.407307  0  3.296448  0  0  -0.423  0  3.307081  0  0  -0.324577  -0.396825  0  3.289226  0
N  N109  1  0.56899887  0.01536083  0.87325747  1  0  -0.438927  0  3.024962  0  0  -0.407336  0  3.296335  0  0  -0.42302  0  3.306971  0  0  -0.324543  -0.396853  0  3.289113  0
N  N110  1  0.79128407  0.26556072  0.29640123  1  0  -0.287363  0  3.26479  0  0  -0.210233  0  3.528507  0  0  -0.229794  0  3.54891  0  0  -0.318068  -0.197031  0  3.514297  0
N  N111  1  0.20871123  0.73443646  0.70359795  1  0  -0.287245  0  3.264745  0  0  -0.210159  0  3.528504  0  0  -0.22972  0  3.548914  0  0  -0.318038  -0.196957  0  3.514291  0
N  N112  1  0.54514763  0.68943174  0.41582405  1  0  -0.388494  0  3.051951  0  0  -0.347996  0  3.31898  0  0  -0.363373  0  3.330621  0  0  -0.32297  -0.337823  0  3.311242  0
N  N113  1  0.45485925  0.31056463  0.58417811  1  0  -0.388478  0  3.051792  0  0  -0.347964  0  3.318803  0  0  -0.363342  0  3.330444  0  0  -0.322967  -0.337793  0  3.311069  0
