# generated using pymatgen
data_GdCuH16C16(NO)8
_symmetry_space_group_name_H-M   'P 1'
_cell_length_a   9.25034655
_cell_length_b   10.88649413
_cell_length_c   10.88647618
_cell_angle_alpha   87.96103719
_cell_angle_beta   72.65585493
_cell_angle_gamma   72.65591890
_symmetry_Int_Tables_number   1
_chemical_formula_structural   GdCuH16C16(NO)8
_chemical_formula_sum   'Gd2 Cu2 H32 C32 N16 O16'
_cell_volume   997.17148881
_cell_formula_units_Z   2
loop_
 _symmetry_equiv_pos_site_id
 _symmetry_equiv_pos_as_xyz
  1  'x, y, z'
loop_
 _atom_site_type_symbol
 _atom_site_label
 _atom_site_symmetry_multiplicity
 _atom_site_fract_x
 _atom_site_fract_y
 _atom_site_fract_z
 _atom_site_occupancy
 _atom_site_pbe_bader_spin_density
 _atom_site_pbe_cm5_charge
 _atom_site_pbe_ddec_charge
 _atom_site_pbe_ddec_spin_density
 _atom_site_pbe_ddec_sum_bond_order
 _atom_site_pbe_magmom
Gd  Gd0  1  0.24999960  0.53287078  0.46713150  1  0  1.444368  2.148241  0  2.099166  0
Gd  Gd1  1  0.74999902  0.46712948  0.53287004  1  0  1.444348  2.148218  0  2.099216  0
Cu  Cu2  1  0.00000072  0.00000003  0.49999958  1  0  0.574655  0.350498  0  1.990046  0
Cu  Cu3  1  0.50000151  0.49999774  0.99999871  1  0  0.574611  0.350478  0  1.98999  0
H  H4  1  0.38454715  0.19700697  0.56894017  1  0  0.114296  0.121064  0  1.006917  0
H  H5  1  0.11545277  0.43105480  0.80299881  1  0  0.114336  0.121057  0  1.007025  0
H  H6  1  0.61545299  0.80299520  0.43105722  1  0  0.114314  0.121044  0  1.006954  0
H  H7  1  0.88454470  0.56894259  0.19700684  1  0  0.114307  0.121051  0  1.006921  0
H  H8  1  0.35620078  0.88591346  0.82337772  1  0  0.103635  0.096159  0  1.030534  0
H  H9  1  0.14380440  0.17661790  0.11408876  1  0  0.103622  0.096123  0  1.030571  0
H  H10  1  0.64380126  0.11408971  0.17662097  1  0  0.103625  0.096136  0  1.030531  0
H  H11  1  0.85620094  0.82337659  0.88590949  1  0  0.103627  0.096125  0  1.030517  0
H  H12  1  0.06622710  0.94751220  0.86204620  1  0  0.098531  0.097686  0  1.019435  0
H  H13  1  0.43377633  0.13795280  0.05249123  1  0  0.098498  0.097632  0  1.019441  0
H  H14  1  0.93377383  0.05249100  0.13795737  1  0  0.098492  0.09763  0  1.019446  0
H  H15  1  0.56622714  0.86204361  0.94750832  1  0  0.098512  0.097664  0  1.019395  0
H  H16  1  0.93412894  0.13582660  0.75243205  1  0  0.104676  0.109392  0  1.013342  0
H  H17  1  0.56587194  0.24756714  0.86417371  1  0  0.104674  0.109389  0  1.013382  0
H  H18  1  0.06587158  0.86417465  0.24756988  1  0  0.104666  0.109403  0  1.013345  0
H  H19  1  0.43412818  0.75243216  0.13582657  1  0  0.104674  0.109387  0  1.013347  0
H  H20  1  0.38923317  0.71000841  0.57186004  1  0  0.295001  0.394654  0  0.943376  0
H  H21  1  0.11076574  0.42814138  0.28999347  1  0  0.295003  0.394675  0  0.943347  0
H  H22  1  0.61076585  0.28999377  0.42814039  1  0  0.29501  0.39467  0  0.943357  0
H  H23  1  0.88923215  0.57186080  0.71000725  1  0  0.295001  0.394645  0  0.943387  0
H  H24  1  0.31552908  0.79394244  0.47223732  1  0  0.28968  0.358548  0  0.996151  0
H  H25  1  0.18447006  0.52776241  0.20605954  1  0  0.289666  0.358525  0  0.996179  0
H  H26  1  0.68447066  0.20605780  0.52776118  1  0  0.289674  0.358561  0  0.996142  0
H  H27  1  0.81553082  0.47223787  0.79394142  1  0  0.289673  0.358537  0  0.99616  0
H  H28  1  0.41745357  0.26351986  0.33446628  1  0  0.296578  0.360348  0  0.992177  0
H  H29  1  0.08254381  0.66553595  0.73648226  1  0  0.296591  0.360369  0  0.992148  0
H  H30  1  0.58254544  0.73648231  0.66553232  1  0  0.296593  0.360378  0  0.992144  0
H  H31  1  0.91745445  0.33446527  0.26351934  1  0  0.296589  0.360362  0  0.99216  0
H  H32  1  0.53592402  0.34431702  0.27266045  1  0  0.299379  0.347528  0  1.012964  0
H  H33  1  0.96407304  0.72734269  0.65568487  1  0  0.299396  0.347514  0  1.012985  0
H  H34  1  0.46407500  0.65568517  0.72733998  1  0  0.299363  0.347496  0  1.013003  0
H  H35  1  0.03592598  0.27265949  0.34431557  1  0  0.299374  0.347494  0  1.013011  0
C  C36  1  0.15207494  0.17629161  0.65438348  1  0  -0.020769  -0.052205  0  3.987806  0
C  C37  1  0.34792491  0.34561375  0.82370968  1  0  -0.020769  -0.052194  0  3.987884  0
C  C38  1  0.84792332  0.82370960  0.34561628  1  0  -0.020777  -0.052232  0  3.987904  0
C  C39  1  0.65207595  0.65438363  0.17629234  1  0  -0.020821  -0.052366  0  3.987875  0
C  C40  1  0.31599193  0.14154859  0.63273705  1  0  -0.071998  -0.105123  0  3.894934  0
C  C41  1  0.18400933  0.36726051  0.85845581  1  0  -0.071979  -0.104968  0  3.894995  0
C  C42  1  0.68400672  0.85845454  0.36726068  1  0  -0.071962  -0.104966  0  3.894953  0
C  C43  1  0.81599266  0.63273689  0.14154683  1  0  -0.071968  -0.104988  0  3.894902  0
C  C44  1  0.39108777  0.03549012  0.69190961  1  0  -0.006074  0.020452  0  4.007981  0
C  C45  1  0.10891434  0.30808608  0.96451353  1  0  -0.006145  0.020311  0  4.008086  0
C  C46  1  0.60891313  0.96451300  0.30808571  1  0  -0.006106  0.020363  0  4.008062  0
C  C47  1  0.89108765  0.69191133  0.03549003  1  0  -0.006045  0.020437  0  4.008002  0
C  C48  1  0.29895841  0.96722092  0.77572355  1  0  -0.077974  -0.087896  0  3.929717  0
C  C49  1  0.20104621  0.22427121  0.03278112  1  0  -0.07793  -0.087803  0  3.929803  0
C  C50  1  0.70104286  0.03278125  0.22427355  1  0  -0.077965  -0.087907  0  3.929713  0
C  C51  1  0.79895876  0.77572426  0.96721992  1  0  -0.077976  -0.087845  0  3.929625  0
C  C52  1  0.13538150  0.00240456  0.79786774  1  0  -0.092977  -0.076813  0  4.014616  0
C  C53  1  0.36462202  0.20212852  0.99759654  1  0  -0.092905  -0.076723  0  4.014714  0
C  C54  1  0.86461865  0.99759763  0.20213149  1  0  -0.092897  -0.076636  0  4.014557  0
C  C55  1  0.63538110  0.79786888  0.00240490  1  0  -0.092969  -0.076808  0  4.014517  0
C  C56  1  0.06189753  0.10581038  0.73645893  1  0  -0.088287  -0.108913  0  4.009292  0
C  C57  1  0.43810527  0.26353826  0.89419018  1  0  -0.088358  -0.108997  0  4.009508  0
C  C58  1  0.93810262  0.89419182  0.26354121  1  0  -0.088313  -0.109011  0  4.009435  0
C  C59  1  0.56189784  0.73645913  0.10581034  1  0  -0.088268  -0.10887  0  4.009283  0
C  C60  1  0.56342283  0.99267653  0.66569570  1  0  0.220044  0.234108  0  4.050765  0
C  C61  1  0.93657869  0.33429752  0.00732584  1  0  0.220077  0.234067  0  4.050669  0
C  C62  1  0.43657731  0.00732563  0.33430077  1  0  0.220099  0.234123  0  4.050718  0
C  C63  1  0.06342403  0.66569794  0.99267579  1  0  0.22012  0.234156  0  4.050733  0
C  C64  1  0.06898336  0.28621301  0.58956242  1  0  0.226132  0.630271  0  4.1905  0
C  C65  1  0.43101432  0.41043614  0.71378772  1  0  0.226066  0.630087  0  4.190514  0
C  C66  1  0.93101336  0.71378625  0.41043783  1  0  0.226074  0.63009  0  4.190539  0
C  C67  1  0.56898277  0.58956216  0.28621247  1  0  0.226217  0.630376  0  4.190279  0
N  N68  1  0.66452209  0.05990132  0.60981272  1  0  -0.199843  -0.239608  0  3.211628  0
N  N69  1  0.83548038  0.39018184  0.94010031  1  0  -0.199836  -0.239551  0  3.211607  0
N  N70  1  0.33547805  0.94010085  0.39018467  1  0  -0.199872  -0.239608  0  3.21163  0
N  N71  1  0.16452233  0.60981362  0.05990040  1  0  -0.199875  -0.239643  0  3.211699  0
N  N72  1  0.80879451  0.97920522  0.60252439  1  0  -0.174428  -0.033914  0  3.729835  0
N  N73  1  0.69120710  0.39747319  0.02079520  1  0  -0.1744  -0.033964  0  3.729797  0
N  N74  1  0.19120600  0.02079599  0.39747387  1  0  -0.174409  -0.033938  0  3.729797  0
N  N75  1  0.30879376  0.60252419  0.97920590  1  0  -0.17443  -0.033932  0  3.729786  0
N  N76  1  0.79711354  0.86827352  0.65308187  1  0  -0.079059  -0.046347  0  3.295264  0
N  N77  1  0.70288532  0.34691627  0.13172763  1  0  -0.079056  -0.046323  0  3.29516  0
N  N78  1  0.20288584  0.13172768  0.34691668  1  0  -0.079076  -0.046376  0  3.29524  0
N  N79  1  0.29711367  0.65308303  0.86827386  1  0  -0.079035  -0.046338  0  3.295176  0
N  N80  1  0.64446482  0.87407181  0.69250176  1  0  -0.197229  -0.24951  0  3.263475  0
N  N81  1  0.85553362  0.30749328  0.12593101  1  0  -0.197265  -0.249482  0  3.263354  0
N  N82  1  0.35553532  0.12593035  0.30749563  1  0  -0.197232  -0.249436  0  3.263466  0
N  N83  1  0.14446497  0.69250408  0.87407068  1  0  -0.197263  -0.249493  0  3.263412  0
O  O84  1  0.13696407  0.36955607  0.53874967  1  0  -0.404734  -0.696321  0  2.349333  0
O  O85  1  0.36303192  0.46125107  0.63044547  1  0  -0.404702  -0.696154  0  2.349286  0
O  O86  1  0.86303116  0.63044415  0.46125000  1  0  -0.404672  -0.696173  0  2.349388  0
O  O87  1  0.63696327  0.53874624  0.36955433  1  0  -0.404829  -0.696375  0  2.349215  0
O  O88  1  0.93069467  0.28957224  0.58841011  1  0  -0.394566  -0.654329  0  2.334149  0
O  O89  1  0.56930184  0.41158908  0.71042988  1  0  -0.394549  -0.6543  0  2.33397  0
O  O90  1  0.06930246  0.71042896  0.41158994  1  0  -0.394583  -0.654297  0  2.334001  0
O  O91  1  0.43069303  0.58841212  0.28957167  1  0  -0.394576  -0.654349  0  2.334075  0
O  O92  1  0.30289226  0.72354218  0.53136496  1  0  -0.647838  -0.853561  0  2.13942  0
O  O93  1  0.19710740  0.46863526  0.27645904  1  0  -0.647831  -0.853559  0  2.139436  0
O  O94  1  0.69710748  0.27645806  0.46863354  1  0  -0.647834  -0.853568  0  2.139358  0
O  O95  1  0.80289235  0.53136501  0.72354221  1  0  -0.647832  -0.85354  0  2.139455  0
O  O96  1  0.46322478  0.32926351  0.35647907  1  0  -0.601683  -0.815075  0  2.254481  0
O  O97  1  0.03677198  0.64352323  0.67073826  1  0  -0.601722  -0.815073  0  2.254431  0
O  O98  1  0.53677461  0.67073770  0.64352040  1  0  -0.60169  -0.815074  0  2.25448  0
O  O99  1  0.96322591  0.35647896  0.32926339  1  0  -0.601689  -0.815044  0  2.2545  0
