# generated using pymatgen
data_AgH10C11N3O2
_symmetry_space_group_name_H-M   'P 1'
_cell_length_a   6.44803236
_cell_length_b   6.87445785
_cell_length_c   25.55837022
_cell_angle_alpha   90.00038594
_cell_angle_beta   89.99940512
_cell_angle_gamma   106.79606543
_symmetry_Int_Tables_number   1
_chemical_formula_structural   AgH10C11N3O2
_chemical_formula_sum   'Ag4 H40 C44 N12 O8'
_cell_volume   1084.58782670
_cell_formula_units_Z   4
loop_
 _symmetry_equiv_pos_site_id
 _symmetry_equiv_pos_as_xyz
  1  'x, y, z'
loop_
 _atom_site_type_symbol
 _atom_site_label
 _atom_site_symmetry_multiplicity
 _atom_site_fract_x
 _atom_site_fract_y
 _atom_site_fract_z
 _atom_site_occupancy
 _atom_site_hle17_bader_spin_density
 _atom_site_hle17_ddec_charge
 _atom_site_hle17_ddec_spin_density
 _atom_site_hle17_ddec_sum_bond_order
 _atom_site_hle17_magmom
 _atom_site_hse06_10hf_bader_spin_density
 _atom_site_hse06_10hf_ddec_charge
 _atom_site_hse06_10hf_ddec_spin_density
 _atom_site_hse06_10hf_ddec_sum_bond_order
 _atom_site_hse06_10hf_magmom
 _atom_site_hse06_bader_spin_density
 _atom_site_hse06_ddec_charge
 _atom_site_hse06_ddec_spin_density
 _atom_site_hse06_ddec_sum_bond_order
 _atom_site_hse06_magmom
 _atom_site_pbe_bader_spin_density
 _atom_site_pbe_cm5_charge
 _atom_site_pbe_ddec_charge
 _atom_site_pbe_ddec_spin_density
 _atom_site_pbe_ddec_sum_bond_order
 _atom_site_pbe_magmom
Ag  Ag0  1  0.47838189  0.78289812  0.98157948  1  0  0.537789  0  1.416009  0  0  0.391846  0  1.87332  0  0  0.426505  0  1.821595  0  0  0.449271  0.366772  0  1.909886  0
Ag  Ag1  1  0.97839047  0.28290233  0.51842170  1  0  0.537761  0  1.416056  0  0  0.391821  0  1.873353  0  0  0.426484  0  1.821622  0  0  0.44927  0.366745  0  1.909921  0
Ag  Ag2  1  0.52161473  0.21710675  0.01842048  1  0  0.537786  0  1.415999  0  0  0.391804  0  1.873352  0  0  0.426488  0  1.821588  0  0  0.449255  0.366731  0  1.909928  0
Ag  Ag3  1  0.02161545  0.71710252  0.48157865  1  0  0.537803  0  1.415971  0  0  0.391836  0  1.873321  0  0  0.426508  0  1.821562  0  0  0.449258  0.366758  0  1.909896  0
H  H4  1  0.81469572  0.67711411  0.03255560  1  0  0.348853  0  0.927086  0  0  0.327341  0  0.994197  0  0  0.336018  0  0.986659  0  0  0.297849  0.321198  0  0.999534  0
H  H5  1  0.31469382  0.17710990  0.46744504  1  0  0.348821  0  0.927095  0  0  0.327312  0  0.994212  0  0  0.335989  0  0.986675  0  0  0.297832  0.321168  0  0.999553  0
H  H6  1  0.18530387  0.32289531  0.96744592  1  0  0.348845  0  0.92708  0  0  0.327338  0  0.994172  0  0  0.336015  0  0.986635  0  0  0.297852  0.321188  0  0.999521  0
H  H7  1  0.68530543  0.82289344  0.53255726  1  0  0.348795  0  0.927161  0  0  0.327284  0  0.994252  0  0  0.33596  0  0.986716  0  0  0.297832  0.321141  0  0.999583  0
H  H8  1  0.09601128  0.70769539  0.03775369  1  0  0.339366  0  0.932631  0  0  0.317677  0  1.003623  0  0  0.326965  0  0.994777  0  0  0.289552  0.311113  0  1.00978  0
H  H9  1  0.59601077  0.20769443  0.46224602  1  0  0.339372  0  0.932566  0  0  0.317686  0  1.003551  0  0  0.326972  0  0.994712  0  0  0.289565  0.311124  0  1.009705  0
H  H10  1  0.90399464  0.29230946  0.96224510  1  0  0.339381  0  0.932618  0  0  0.317684  0  1.003616  0  0  0.326973  0  0.994768  0  0  0.289567  0.311119  0  1.009763  0
H  H11  1  0.40399421  0.79230738  0.53775551  1  0  0.339416  0  0.932588  0  0  0.317712  0  1.003581  0  0  0.326999  0  0.994737  0  0  0.289594  0.31115  0  1.009721  0
H  H12  1  0.15871347  0.53737958  0.17763131  1  0  0.092379  0  0.973048  0  0  0.101496  0  1.038655  0  0  0.105068  0  1.035828  0  0  0.09864  0.09896  0  1.040616  0
H  H13  1  0.65869764  0.03738557  0.32237223  1  0  0.092279  0  0.97313  0  0  0.101389  0  1.03875  0  0  0.104963  0  1.035918  0  0  0.098573  0.098855  0  1.0407  0
H  H14  1  0.84130444  0.46263893  0.82237100  1  0  0.092329  0  0.973093  0  0  0.101461  0  1.038692  0  0  0.105034  0  1.035865  0  0  0.098627  0.098927  0  1.040646  0
H  H15  1  0.34129750  0.96263451  0.67763321  1  0  0.092342  0  0.973077  0  0  0.101484  0  1.038677  0  0  0.10505  0  1.035858  0  0  0.098681  0.098951  0  1.040626  0
H  H16  1  0.19489049  0.34751661  0.25958116  1  0  0.086098  0  0.951005  0  0  0.099101  0  1.007525  0  0  0.101432  0  1.007739  0  0  0.098289  0.097447  0  1.00747  0
H  H17  1  0.69485772  0.84753176  0.24041971  1  0  0.086223  0  0.95086  0  0  0.099185  0  1.007404  0  0  0.101519  0  1.007615  0  0  0.098314  0.097529  0  1.007357  0
H  H18  1  0.80513665  0.65248667  0.74041959  1  0  0.086144  0  0.950828  0  0  0.099115  0  1.007376  0  0  0.101445  0  1.007589  0  0  0.098291  0.097459  0  1.007326  0
H  H19  1  0.30511153  0.15248989  0.75958221  1  0  0.086192  0  0.950904  0  0  0.099092  0  1.00753  0  0  0.101423  0  1.007744  0  0  0.098301  0.09744  0  1.007477  0
H  H20  1  0.52088221  0.22661740  0.27149610  1  0  0.082219  0  0.972018  0  0  0.094138  0  1.032492  0  0  0.096587  0  1.031316  0  0  0.097271  0.092379  0  1.033369  0
H  H21  1  0.02084228  0.72661840  0.22849875  1  0  0.082256  0  0.97182  0  0  0.094222  0  1.032269  0  0  0.096671  0  1.03109  0  0  0.097298  0.092463  0  1.033148  0
H  H22  1  0.47913665  0.77336918  0.72849956  1  0  0.082267  0  0.971892  0  0  0.094191  0  1.032383  0  0  0.096642  0  1.031203  0  0  0.097285  0.092431  0  1.033262  0
H  H23  1  0.97910966  0.27337743  0.77149886  1  0  0.082208  0  0.972001  0  0  0.094102  0  1.03251  0  0  0.09655  0  1.031334  0  0  0.097274  0.092344  0  1.03339  0
H  H24  1  0.80647707  0.29475642  0.20309158  1  0  0.083939  0  0.967025  0  0  0.094568  0  1.029412  0  0  0.096826  0  1.029875  0  0  0.096593  0.092958  0  1.02914  0
H  H25  1  0.30644099  0.79475392  0.29690186  1  0  0.084044  0  0.966867  0  0  0.094679  0  1.029214  0  0  0.096938  0  1.029678  0  0  0.096644  0.0931  0  1.02891  0
H  H26  1  0.19354024  0.70523017  0.79690291  1  0  0.084042  0  0.96701  0  0  0.094706  0  1.0293  0  0  0.096965  0  1.029763  0  0  0.096646  0.093104  0  1.029021  0
H  H27  1  0.69352349  0.20523733  0.70309301  1  0  0.08402  0  0.966896  0  0  0.094642  0  1.029282  0  0  0.096901  0  1.029745  0  0  0.09662  0.093034  0  1.02901  0
H  H28  1  0.76501296  0.48114363  0.12166759  1  0  0.105208  0  0.948696  0  0  0.115222  0  1.009971  0  0  0.119076  0  1.007482  0  0  0.103157  0.11241  0  1.011868  0
H  H29  1  0.26499278  0.98113326  0.37832707  1  0  0.105338  0  0.9487  0  0  0.115363  0  1.009931  0  0  0.11923  0  1.007399  0  0  0.103224  0.112525  0  1.011863  0
H  H30  1  0.23499572  0.51885513  0.87832689  1  0  0.1053  0  0.948783  0  0  0.115294  0  1.01007  0  0  0.119153  0  1.007561  0  0  0.103188  0.112455  0  1.012  0
H  H31  1  0.73499650  0.01885794  0.62167015  1  0  0.10525  0  0.948828  0  0  0.115302  0  1.010052  0  0  0.119161  0  1.007551  0  0  0.103173  0.11247  0  1.011971  0
H  H32  1  0.70577777  0.93450432  0.87593408  1  0  0.067971  0  0.937614  0  0  0.080404  0  0.999265  0  0  0.081849  0  0.996746  0  0  0.11547  0.079235  0  1.001284  0
H  H33  1  0.20578023  0.43450840  0.62406651  1  0  0.067978  0  0.937525  0  0  0.080382  0  0.999212  0  0  0.081827  0  0.996689  0  0  0.115485  0.079215  0  1.001228  0
H  H34  1  0.29421555  0.06548991  0.12406588  1  0  0.067874  0  0.937487  0  0  0.080322  0  0.999163  0  0  0.081765  0  0.99665  0  0  0.115449  0.079153  0  1.001182  0
H  H35  1  0.79423203  0.56549188  0.37593658  1  0  0.067861  0  0.937626  0  0  0.080385  0  0.999204  0  0  0.081831  0  0.996684  0  0  0.115468  0.079214  0  1.001225  0
H  H36  1  0.07287148  0.05036614  0.83365678  1  0  0.109552  0  0.983986  0  0  0.11958  0  1.047359  0  0  0.122035  0  1.048895  0  0  0.103783  0.11785  0  1.04646  0
H  H37  1  0.57286783  0.55036029  0.66634426  1  0  0.109547  0  0.984043  0  0  0.119566  0  1.047427  0  0  0.122021  0  1.048963  0  0  0.103769  0.117836  0  1.046528  0
H  H38  1  0.92711436  0.94961899  0.16634044  1  0  0.109574  0  0.984034  0  0  0.119631  0  1.047373  0  0  0.122086  0  1.048908  0  0  0.103805  0.117902  0  1.046472  0
H  H39  1  0.42713493  0.44962936  0.33365883  1  0  0.109592  0  0.983851  0  0  0.119618  0  1.047234  0  0  0.122072  0  1.04877  0  0  0.103799  0.117887  0  1.046337  0
H  H40  1  0.38601925  0.99238798  0.88429815  1  0  0.067899  0  0.946834  0  0  0.080892  0  1.00897  0  0  0.082174  0  1.006571  0  0  0.11574  0.079795  0  1.010974  0
H  H41  1  0.88602382  0.49239221  0.61570090  1  0  0.067897  0  0.946754  0  0  0.080856  0  1.008936  0  0  0.082138  0  1.006539  0  0  0.115724  0.079759  0  1.010939  0
H  H42  1  0.61396706  0.00759866  0.11569907  1  0  0.067939  0  0.946853  0  0  0.080917  0  1.009  0  0  0.082198  0  1.006605  0  0  0.115731  0.079823  0  1.011004  0
H  H43  1  0.11398688  0.50760807  0.38430102  1  0  0.067919  0  0.946754  0  0  0.080927  0  1.008875  0  0  0.08221  0  1.006475  0  0  0.115755  0.079822  0  1.010873  0
C  C44  1  0.41846305  0.61909282  0.09495402  1  0  0.63355  0  3.950515  0  0  0.578096  0  4.24805  0  0  0.611365  0  4.243254  0  0  0.194644  0.555576  0  4.250375  0
C  C45  1  0.91846247  0.11909400  0.40504703  1  0  0.633798  0  3.950051  0  0  0.578325  0  4.247612  0  0  0.611591  0  4.242817  0  0  0.194763  0.555805  0  4.249943  0
C  C46  1  0.58154907  0.38091202  0.90504438  1  0  0.633803  0  3.95037  0  0  0.578347  0  4.247899  0  0  0.611616  0  4.243104  0  0  0.194784  0.555824  0  4.250227  0
C  C47  1  0.08154655  0.88091085  0.59495567  1  0  0.633677  0  3.950447  0  0  0.578273  0  4.247925  0  0  0.611542  0  4.243127  0  0  0.194759  0.555748  0  4.250252  0
C  C48  1  0.45826338  0.52038838  0.14513588  1  0  -0.073752  0  3.768264  0  0  -0.046969  0  3.997169  0  0  -0.054995  0  4.021556  0  0  -0.023787  -0.041849  0  3.980778  0
C  C49  1  0.95825020  0.02038727  0.35486412  1  0  -0.073726  0  3.768403  0  0  -0.046941  0  3.997279  0  0  -0.05497  0  4.021671  0  0  -0.023832  -0.041821  0  3.980883  0
C  C50  1  0.54174268  0.47961191  0.85486369  1  0  -0.073738  0  3.768389  0  0  -0.046924  0  3.997248  0  0  -0.054951  0  4.021632  0  0  -0.023722  -0.041806  0  3.980858  0
C  C51  1  0.04174116  0.97962065  0.64513467  1  0  -0.073629  0  3.768325  0  0  -0.046855  0  3.997222  0  0  -0.054883  0  4.02161  0  0  -0.023745  -0.041735  0  3.980826  0
C  C52  1  0.30032713  0.48473147  0.18451298  1  0  -0.084212  0  3.761751  0  0  -0.107166  0  4.005142  0  0  -0.107431  0  4.025946  0  0  -0.090343  -0.106705  0  3.990937  0
C  C53  1  0.80030909  0.98473408  0.31548943  1  0  -0.084188  0  3.761941  0  0  -0.107149  0  4.005296  0  0  -0.107416  0  4.026102  0  0  -0.0903  -0.106688  0  3.991097  0
C  C54  1  0.69968640  0.51527793  0.81548738  1  0  -0.08425  0  3.761886  0  0  -0.107247  0  4.005295  0  0  -0.107513  0  4.026099  0  0  -0.090394  -0.106786  0  3.991096  0
C  C55  1  0.19967425  0.01528298  0.68451445  1  0  -0.084211  0  3.761911  0  0  -0.107184  0  4.005282  0  0  -0.107447  0  4.026086  0  0  -0.090363  -0.106722  0  3.991082  0
C  C56  1  0.32177617  0.37936168  0.22980995  1  0  -0.084041  0  3.791498  0  0  -0.094618  0  4.040667  0  0  -0.098034  0  4.0631  0  0  -0.095998  -0.092342  0  4.025368  0
C  C57  1  0.82174010  0.87936514  0.27018947  1  0  -0.084058  0  3.791443  0  0  -0.094583  0  4.040596  0  0  -0.098001  0  4.06303  0  0  -0.095951  -0.09231  0  4.025303  0
C  C58  1  0.67824801  0.62063705  0.77018884  1  0  -0.083976  0  3.791468  0  0  -0.094496  0  4.040594  0  0  -0.097912  0  4.063027  0  0  -0.095943  -0.092221  0  4.025297  0
C  C59  1  0.17823361  0.12064586  0.72981128  1  0  -0.084089  0  3.791518  0  0  -0.094569  0  4.040653  0  0  -0.097984  0  4.063083  0  0  -0.096014  -0.092298  0  4.025365  0
C  C60  1  0.50421188  0.31074349  0.23637658  1  0  -0.068443  0  3.775965  0  0  -0.082097  0  4.018981  0  0  -0.082617  0  4.040517  0  0  -0.092497  -0.081477  0  4.004175  0
C  C61  1  0.00418124  0.81075415  0.26361963  1  0  -0.068429  0  3.775803  0  0  -0.082162  0  4.018863  0  0  -0.082684  0  4.040401  0  0  -0.092511  -0.081545  0  4.004073  0
C  C62  1  0.49581009  0.68924308  0.76362025  1  0  -0.068444  0  3.776158  0  0  -0.08215  0  4.019197  0  0  -0.082671  0  4.040735  0  0  -0.092512  -0.08153  0  4.004395  0
C  C63  1  0.99578411  0.18925990  0.73637798  1  0  -0.068553  0  3.776098  0  0  -0.082201  0  4.019101  0  0  -0.08272  0  4.040635  0  0  -0.092567  -0.081585  0  4.004306  0
C  C64  1  0.66482291  0.34922912  0.19784148  1  0  -0.091063  0  3.792213  0  0  -0.099905  0  4.038861  0  0  -0.104014  0  4.061917  0  0  -0.097433  -0.097124  0  4.023099  0
C  C65  1  0.16479283  0.84922670  0.30215400  1  0  -0.09123  0  3.79198  0  0  -0.10004  0  4.03862  0  0  -0.104153  0  4.061682  0  0  -0.097507  -0.097284  0  4.022846  0
C  C66  1  0.33519413  0.65076658  0.80215262  1  0  -0.091249  0  3.79213  0  0  -0.100055  0  4.038721  0  0  -0.104167  0  4.061781  0  0  -0.09748  -0.097278  0  4.022951  0
C  C67  1  0.83518533  0.15077364  0.69784518  1  0  -0.090975  0  3.792146  0  0  -0.09979  0  4.038769  0  0  -0.1039  0  4.061827  0  0  -0.097352  -0.09701  0  4.023003  0
C  C68  1  0.64216785  0.45339563  0.15226084  1  0  -0.082005  0  3.736366  0  0  -0.10682  0  3.987032  0  0  -0.10662  0  4.006606  0  0  -0.089126  -0.106741  0  3.973828  0
C  C69  1  0.14215302  0.95339845  0.34773566  1  0  -0.082249  0  3.736489  0  0  -0.107063  0  3.987097  0  0  -0.106855  0  4.006671  0  0  -0.089236  -0.106972  0  3.973929  0
C  C70  1  0.35783646  0.54659402  0.84773600  1  0  -0.082107  0  3.736372  0  0  -0.106934  0  3.987024  0  0  -0.106728  0  4.006593  0  0  -0.089208  -0.106836  0  3.973844  0
C  C71  1  0.85784050  0.04660642  0.65226156  1  0  -0.08224  0  3.736591  0  0  -0.107098  0  3.987241  0  0  -0.106894  0  4.006809  0  0  -0.089247  -0.107001  0  3.974042  0
C  C72  1  0.99265102  0.79998652  0.96817421  1  0  0.638362  0  3.783442  0  0  0.592785  0  4.042494  0  0  0.620318  0  4.052008  0  0  0.345349  0.574148  0  4.035756  0
C  C73  1  0.49265077  0.29998459  0.53182696  1  0  0.638382  0  3.783419  0  0  0.592687  0  4.042631  0  0  0.620233  0  4.052127  0  0  0.345355  0.574049  0  4.035895  0
C  C74  1  0.00734884  0.20001378  0.03182614  1  0  0.638247  0  3.783608  0  0  0.592717  0  4.042544  0  0  0.620187  0  4.052154  0  0  0.345313  0.574078  0  4.035802  0
C  C75  1  0.50735387  0.70001114  0.46817535  1  0  0.638605  0  3.783653  0  0  0.592899  0  4.042771  0  0  0.620442  0  4.052266  0  0  0.34538  0.574259  0  4.036044  0
C  C76  1  0.84807918  0.91468085  0.89556933  1  0  0.22782  0  3.725185  0  0  0.189252  0  3.978634  0  0  0.205802  0  3.992659  0  0  0.068146  0.178382  0  3.969093  0
C  C77  1  0.34808283  0.41468613  0.60443047  1  0  0.227851  0  3.725137  0  0  0.189293  0  3.978605  0  0  0.205846  0  3.992626  0  0  0.068129  0.178421  0  3.969068  0
C  C78  1  0.15190652  0.08530884  0.10443024  1  0  0.227947  0  3.724925  0  0  0.189335  0  3.97841  0  0  0.205883  0  3.992439  0  0  0.068146  0.178463  0  3.968859  0
C  C79  1  0.65192585  0.58531263  0.39557262  1  0  0.227957  0  3.724864  0  0  0.189278  0  3.978303  0  0  0.205818  0  3.992333  0  0  0.068133  0.178408  0  3.968767  0
C  C80  1  0.05064732  0.97875925  0.87186782  1  0  -0.229749  0  3.749997  0  0  -0.241902  0  4.00574  0  0  -0.257634  0  4.028124  0  0  -0.113005  -0.231833  0  3.990882  0
C  C81  1  0.55064429  0.47876065  0.62813248  1  0  -0.229805  0  3.750059  0  0  -0.241942  0  4.005781  0  0  -0.257674  0  4.028162  0  0  -0.113016  -0.231874  0  3.990924  0
C  C82  1  0.94934459  0.02123042  0.12813058  1  0  -0.229834  0  3.750092  0  0  -0.242003  0  4.005827  0  0  -0.257734  0  4.02821  0  0  -0.113056  -0.231931  0  3.990964  0
C  C83  1  0.44935071  0.52122902  0.37187179  1  0  -0.229681  0  3.749762  0  0  -0.241854  0  4.005527  0  0  -0.257586  0  4.027916  0  0  -0.112962  -0.231788  0  3.990671  0
C  C84  1  0.22150201  0.94559175  0.89969719  1  0  0.201014  0  3.752803  0  0  0.16168  0  4.006215  0  0  0.177121  0  4.022413  0  0  0.057838  0.151561  0  3.995179  0
C  C85  1  0.72149656  0.44558664  0.60030416  1  0  0.201027  0  3.75268  0  0  0.161714  0  4.006089  0  0  0.177153  0  4.022289  0  0  0.057861  0.151598  0  3.995048  0
C  C86  1  0.77849475  0.05440855  0.10030238  1  0  0.201008  0  3.753035  0  0  0.161665  0  4.006459  0  0  0.177111  0  4.022658  0  0  0.057863  0.151544  0  3.995423  0
C  C87  1  0.27850404  0.55440606  0.39969971  1  0  0.200939  0  3.752995  0  0  0.161607  0  4.006365  0  0  0.177041  0  4.022575  0  0  0.057769  0.151504  0  3.995314  0
N  N88  1  0.96516854  0.71601550  0.01538768  1  0  -0.685014  0  3.110495  0  0  -0.646711  0  3.348586  0  0  -0.670856  0  3.344897  0  0  -0.568988  -0.629813  0  3.350743  0
N  N89  1  0.46516662  0.21600852  0.48461382  1  0  -0.685008  0  3.110419  0  0  -0.646669  0  3.348551  0  0  -0.67082  0  3.34486  0  0  -0.568991  -0.629773  0  3.35071  0
N  N90  1  0.03483617  0.28399543  0.98461307  1  0  -0.684982  0  3.110416  0  0  -0.646675  0  3.348461  0  0  -0.6708  0  3.344797  0  0  -0.569001  -0.629762  0  3.350628  0
N  N91  1  0.53483869  0.78399937  0.51538927  1  0  -0.685148  0  3.110483  0  0  -0.646744  0  3.348543  0  0  -0.670898  0  3.344851  0  0  -0.569059  -0.629838  0  3.350697  0
N  N92  1  0.81682870  0.82939333  0.94294751  1  0  -0.457248  0  3.147109  0  0  -0.377088  0  3.423843  0  0  -0.403617  0  3.43484  0  0  -0.343613  -0.358888  0  3.416339  0
N  N93  1  0.31682504  0.32938876  0.55705300  1  0  -0.457264  0  3.147253  0  0  -0.377038  0  3.423963  0  0  -0.403567  0  3.434947  0  0  -0.343619  -0.358839  0  3.416458  0
N  N94  1  0.18316421  0.17061458  0.05705128  1  0  -0.457254  0  3.1472  0  0  -0.377079  0  3.423891  0  0  -0.40357  0  3.434867  0  0  -0.343595  -0.358904  0  3.416457  0
N  N95  1  0.68317528  0.67061305  0.44295165  1  0  -0.457363  0  3.147298  0  0  -0.377112  0  3.424074  0  0  -0.403612  0  3.435015  0  0  -0.343608  -0.358914  0  3.416573  0
N  N96  1  0.19626840  0.85450243  0.94667276  1  0  -0.475486  0  3.239211  0  0  -0.385121  0  3.524743  0  0  -0.413128  0  3.535047  0  0  -0.358594  -0.365994  0  3.517511  0
N  N97  1  0.69626918  0.35450112  0.55332733  1  0  -0.475499  0  3.239142  0  0  -0.385069  0  3.524658  0  0  -0.413079  0  3.534955  0  0  -0.358587  -0.365943  0  3.517424  0
N  N98  1  0.80373051  0.14549483  0.05332721  1  0  -0.475466  0  3.239379  0  0  -0.385085  0  3.524845  0  0  -0.41308  0  3.535178  0  0  -0.358559  -0.365959  0  3.517616  0
N  N99  1  0.30374261  0.64549763  0.44667341  1  0  -0.475602  0  3.239528  0  0  -0.385224  0  3.525115  0  0  -0.413238  0  3.535417  0  0  -0.35856  -0.3661  0  3.517884  0
O  O100  1  0.54775940  0.61962295  0.05661338  1  0  -0.66018  0  2.133818  0  0  -0.577736  0  2.405283  0  0  -0.607763  0  2.392648  0  0  -0.334157  -0.556287  0  2.412718  0
O  O101  1  0.04775198  0.11960773  0.44338669  1  0  -0.660222  0  2.133619  0  0  -0.577813  0  2.405123  0  0  -0.607839  0  2.392487  0  0  -0.334185  -0.556358  0  2.412536  0
O  O102  1  0.45225332  0.38037885  0.94338384  1  0  -0.660325  0  2.133991  0  0  -0.577934  0  2.405517  0  0  -0.607959  0  2.392876  0  0  -0.334292  -0.556492  0  2.412972  0
O  O103  1  0.95224781  0.88037737  0.55661640  1  0  -0.660258  0  2.133781  0  0  -0.577914  0  2.405308  0  0  -0.607939  0  2.39267  0  0  -0.334294  -0.556492  0  2.412806  0
O  O104  1  0.26073654  0.69265924  0.09325191  1  0  -0.630825  0  1.964539  0  0  -0.577932  0  2.198904  0  0  -0.602439  0  2.190343  0  0  -0.324042  -0.560698  0  2.204059  0
O  O105  1  0.76073778  0.19266652  0.40675086  1  0  -0.6309  0  1.964399  0  0  -0.577988  0  2.198751  0  0  -0.602496  0  2.190194  0  0  -0.324068  -0.560756  0  2.203905  0
O  O106  1  0.73927989  0.30733951  0.90674687  1  0  -0.630877  0  1.964181  0  0  -0.57796  0  2.198514  0  0  -0.60247  0  2.189956  0  0  -0.32404  -0.560723  0  2.203663  0
O  O107  1  0.23927016  0.80733984  0.59325458  1  0  -0.63081  0  1.964412  0  0  -0.577918  0  2.198739  0  0  -0.602424  0  2.190179  0  0  -0.324035  -0.560684  0  2.203892  0
