# generated using pymatgen
data_NiH13C18N3O7
_symmetry_space_group_name_H-M   'P 1'
_cell_length_a   8.33304736
_cell_length_b   10.23261315
_cell_length_c   11.74331349
_cell_angle_alpha   73.49455674
_cell_angle_beta   69.84169590
_cell_angle_gamma   66.18951882
_symmetry_Int_Tables_number   1
_chemical_formula_structural   NiH13C18N3O7
_chemical_formula_sum   'Ni2 H26 C36 N6 O14'
_cell_volume   847.65146672
_cell_formula_units_Z   2
loop_
 _symmetry_equiv_pos_site_id
 _symmetry_equiv_pos_as_xyz
  1  'x, y, z'
loop_
 _atom_site_type_symbol
 _atom_site_label
 _atom_site_symmetry_multiplicity
 _atom_site_fract_x
 _atom_site_fract_y
 _atom_site_fract_z
 _atom_site_occupancy
 _atom_site_hle17_ddec_charge
 _atom_site_hle17_ddec_spin_density
 _atom_site_hle17_ddec_sum_bond_order
 _atom_site_hle17_magmom
 _atom_site_hse06_10hf_ddec_charge
 _atom_site_hse06_10hf_ddec_spin_density
 _atom_site_hse06_10hf_ddec_sum_bond_order
 _atom_site_hse06_10hf_magmom
 _atom_site_hse06_ddec_charge
 _atom_site_hse06_ddec_spin_density
 _atom_site_hse06_ddec_sum_bond_order
 _atom_site_hse06_magmom
 _atom_site_pbe_cm5_charge
 _atom_site_pbe_ddec_charge
 _atom_site_pbe_ddec_spin_density
 _atom_site_pbe_ddec_sum_bond_order
 _atom_site_pbe_magmom
Ni  Ni0  1  0.01130424  0.01635902  0.79437982  1  0.705678  0.004118  2.224302  0.003  0.69353  0.00606  2.662288  0.004  0.804528  0.002568  2.563402  0.002  0.636286  0.621763  -0.000933  2.730456  -0.002
Ni  Ni1  1  0.98876236  0.98364632  0.20565001  1  0.707921  -0.004086  2.21406  -0.003  0.695785  -0.005977  2.651032  -0.004  0.806814  -0.002446  2.55233  -0.002  0.636009  0.624106  -0.000759  2.718894  -0.002
H  H2  1  0.81742077  0.98104672  0.01491755  1  0.429897  2.6e-05  0.872579  0.0  0.398609  0.000157  0.943052  0.0  0.412004  0.000138  0.924326  0.0  0.293892  0.389077  -0.000219  0.956336  0.0
H  H3  1  0.18373881  0.01844974  0.98507242  1  0.429903  -2.3e-05  0.872977  0.0  0.398508  -0.000156  0.943275  0.0  0.411885  -0.000133  0.924561  0.0  0.293743  0.388978  -0.000219  0.956577  0.0
H  H4  1  0.85539801  0.12694864  0.98100651  1  0.420549  -0.000342  0.8445  -0.001  0.393565  -0.000174  0.91929  0.0  0.40463  -0.000219  0.909362  0.0  0.307923  0.385787  4.3e-05  0.925907  0.0
H  H5  1  0.14601553  0.87270559  0.01844715  1  0.42014  0.000339  0.8455  0.001  0.393495  0.000168  0.920007  0.0  0.404593  0.000212  0.910016  0.0  0.307558  0.385689  4.5e-05  0.92669  0.0
H  H6  1  0.08255053  0.52365759  0.75915063  1  0.11052  5e-05  0.95823  0.0  0.118096  5.9e-05  1.022171  0.0  0.122306  4.7e-05  1.018381  0.0  0.110875  0.115261  -1e-06  1.024752  0.0
H  H7  1  0.91762029  0.47641108  0.24087288  1  0.110826  -5.1e-05  0.957756  0.0  0.118526  -5.8e-05  1.021507  0.0  0.122761  -4.7e-05  1.017713  0.0  0.110998  0.115681  -3e-06  1.024102  0.0
H  H8  1  0.26330627  0.58653888  0.03629300  1  0.120173  -4.6e-05  0.939623  0.0  0.125221  -5.8e-05  1.007317  0.0  0.129791  -5.9e-05  1.00304  0.0  0.113662  0.12181  4.6e-05  1.010447  0.0
H  H9  1  0.73688846  0.41403606  0.96347601  1  0.119875  4.8e-05  0.939297  0.0  0.125407  6e-05  1.006682  0.0  0.129934  6e-05  1.002431  0.0  0.113821  0.121993  5e-05  1.009826  0.0
H  H10  1  0.35726760  0.15561296  0.99284518  1  0.133155  4.9e-05  0.923815  0.0  0.140597  7.5e-05  0.983518  0.0  0.145178  5.8e-05  0.979066  0.0  0.122729  0.137132  -5e-06  0.986943  0.0
H  H11  1  0.64348716  0.84477764  0.00717111  1  0.133046  -5.1e-05  0.923883  0.0  0.140935  -7.7e-05  0.98303  0.0  0.145613  -5.9e-05  0.978456  0.0  0.122783  0.137384  -9e-06  0.986556  0.0
H  H12  1  0.37701472  0.79611379  0.71363678  1  0.090371  0.000458  0.981406  0.001  0.087095  0.000433  1.061247  0.001  0.090259  0.000414  1.056482  0.001  0.116588  0.084738  -0.000333  1.065063  0.0
H  H13  1  0.62343149  0.20420084  0.28598341  1  0.090089  -0.00048  0.982037  -0.001  0.086954  -0.000445  1.061879  -0.001  0.090134  -0.00042  1.057074  -0.001  0.116262  0.084605  -0.000355  1.065672  0.0
H  H14  1  0.49286351  0.91245478  0.31801560  1  0.109346  0.000122  0.942959  0.0  0.11903  2.6e-05  1.001113  0.0  0.121043  1.5e-05  0.999451  0.0  0.11292  0.117205  1.1e-05  1.00284  0.0
H  H15  1  0.50494793  0.08687307  0.68156568  1  0.109555  -0.000126  0.944461  0.0  0.119194  -2.6e-05  1.002636  0.0  0.121219  -1.4e-05  1.000902  0.0  0.112589  0.117346  9e-06  1.004407  0.0
H  H16  1  0.67093830  0.27426149  0.83378953  1  0.08485  -0.0004  0.960708  -0.001  0.09126  -0.000477  1.027076  -0.001  0.092399  -0.000444  1.025921  -0.001  0.116772  0.08993  0.000411  1.028847  0.0
H  H17  1  0.33109965  0.72716493  0.16682460  1  0.085383  0.000419  0.961828  0.001  0.092182  0.000491  1.027439  0.001  0.093419  0.000452  1.026217  0.001  0.116922  0.090842  0.000439  1.02919  0.001
H  H18  1  0.19854389  0.11785149  0.34430982  1  0.134005  0.000214  0.968678  0.0  0.139018  0.000286  1.035222  0.0  0.141765  0.00026  1.034097  0.0  0.114096  0.137141  -6.7e-05  1.036072  0.0
H  H19  1  0.79933007  0.88153132  0.65586954  1  0.132339  -0.000221  0.970136  0.0  0.138259  -0.000287  1.035596  0.0  0.140903  -0.00026  1.034623  0.0  0.113774  0.136426  -8.2e-05  1.036404  0.0
H  H20  1  0.58600659  0.74973527  0.50517199  1  0.12036  0.000153  0.948504  0.0  0.130352  0.000168  1.004692  0.0  0.132872  0.000154  1.004476  0.0  0.112726  0.128731  -0.000147  1.004747  0.0
H  H21  1  0.41330741  0.25033922  0.49418245  1  0.120195  -0.000162  0.948369  0.0  0.130451  -0.000173  1.004293  0.0  0.132982  -0.000158  1.004045  0.0  0.112661  0.12882  -0.000155  1.004361  0.0
H  H22  1  0.67755853  0.50573724  0.46207057  1  0.10012  -5.5e-05  0.949036  0.0  0.108415  3e-06  1.013916  0.0  0.111459  1.5e-05  1.010607  0.0  0.108231  0.105897  1.3e-05  1.016958  0.0
H  H23  1  0.32137448  0.49355930  0.53837532  1  0.100645  5.9e-05  0.948667  0.0  0.108694  -3e-06  1.013647  0.0  0.111784  -1.4e-05  1.010261  0.0  0.108901  0.106151  1.4e-05  1.016716  0.0
H  H24  1  0.95947452  0.30177382  0.38906689  1  0.121316  -0.000169  0.97615  0.0  0.130995  -0.000198  1.034846  0.0  0.134123  -0.000172  1.033599  0.0  0.111992  0.128737  0.000142  1.035829  0.0
H  H25  1  0.03818551  0.69666010  0.61119506  1  0.12256  0.000175  0.974367  0.0  0.131845  0.000202  1.033431  0.0  0.134978  0.000175  1.032162  0.0  0.111617  0.129585  0.000154  1.034444  0.0
H  H26  1  0.52620337  0.48779450  0.69106796  1  0.10791  -0.00018  0.951769  0.0  0.117345  -0.000197  1.011382  0.0  0.119269  -0.000182  1.012545  0.0  0.107889  0.115921  0.000183  1.010757  0.0
H  H27  1  0.47518932  0.51329747  0.30957977  1  0.10733  0.000187  0.95236  0.0  0.117001  0.000203  1.011674  0.0  0.118804  0.000185  1.013053  0.0  0.108412  0.11557  0.000194  1.011019  0.0
C  C28  1  0.16447769  0.57469734  0.89169293  1  -0.05646  0.000503  3.752044  0.001  -0.030834  0.000465  3.986767  0.001  -0.040702  0.00033  4.009508  0.001  -0.012964  -0.024584  -0.000566  3.971788  -0.001
C  C29  1  0.83581589  0.42555443  0.10812517  1  -0.056669  -0.000535  3.750918  -0.001  -0.030887  -0.000481  3.985621  -0.001  -0.040746  -0.000337  4.008357  -0.001  -0.013188  -0.024642  -0.000605  3.97063  -0.001
C  C30  1  0.15190248  0.48011726  0.83205411  1  -0.053034  -0.000584  3.683562  -0.001  -0.091117  -0.000431  3.928857  -0.001  -0.087912  -0.000376  3.947054  -0.001  -0.065677  -0.092758  0.000275  3.916568  0.0
C  C31  1  0.84826834  0.52000546  0.16797812  1  -0.053294  0.000605  3.683544  0.001  -0.09186  0.000433  3.92883  0.001  -0.088636  0.000373  3.947019  0.001  -0.065596  -0.093522  0.00029  3.916543  0.0
C  C32  1  0.19577601  0.23728623  0.79763452  1  0.633008  -0.000162  3.953481  0.0  0.587955  -2.9e-05  4.252128  0.0  0.621243  -7.6e-05  4.245516  0.0  0.198804  0.565617  4e-05  4.255082  0.0
C  C33  1  0.80489777  0.76270582  0.20250591  1  0.634235  0.000177  3.951203  0.0  0.588763  2.7e-05  4.250291  0.0  0.622107  7.9e-05  4.243681  0.0  0.199196  0.566388  4e-05  4.253228  0.0
C  C34  1  0.96651917  0.18715174  0.57221079  1  0.178868  0.002405  3.751057  0.002  0.173247  -0.000272  3.996438  0.0  0.184335  0.000467  4.01508  0.001  0.122479  0.164687  0.000604  3.985523  0.0
C  C35  1  0.03269920  0.81239089  0.42806540  1  0.180208  -0.002488  3.751265  -0.003  0.174611  0.000298  3.996904  0.0  0.185747  -0.000461  4.015491  -0.001  0.122872  0.166019  0.000658  3.985965  0.0
C  C36  1  0.22169193  0.32980942  0.86542632  1  -0.056969  0.000174  3.750521  0.0  -0.031394  0.00023  3.985531  0.0  -0.04077  0.000239  4.008226  0.0  -0.013213  -0.025752  -0.000405  3.970804  0.0
C  C37  1  0.77873688  0.67035885  0.13467402  1  -0.057022  -0.000217  3.749354  0.0  -0.030779  -0.000259  3.983853  0.0  -0.040219  -0.000263  4.006654  0.0  -0.012741  -0.025095  -0.000454  3.969052  0.0
C  C38  1  0.25191419  0.51738628  0.98638755  1  -0.078864  -0.000317  3.674232  0.0  -0.119246  -0.000237  3.936824  0.0  -0.113765  -0.000254  3.951424  0.0  -0.067786  -0.122025  7.2e-05  3.926538  0.0
C  C39  1  0.74854014  0.48311223  0.01333789  1  -0.07819  0.000335  3.671403  0.0  -0.119409  0.000243  3.933951  0.0  -0.113894  0.000256  3.948577  0.0  -0.06803  -0.12217  7.5e-05  3.923632  0.0
C  C40  1  0.30586558  0.27184702  0.96129567  1  -0.076615  -0.000217  3.674086  0.0  -0.116125  -7.4e-05  3.932299  0.0  -0.111306  -8.4e-05  3.94694  0.0  -0.064744  -0.118905  2.2e-05  3.922619  0.0
C  C41  1  0.69480750  0.72852423  0.03868682  1  -0.076071  0.00023  3.674115  0.0  -0.116194  7.7e-05  3.931929  0.0  -0.111446  8.4e-05  3.94661  0.0  -0.064464  -0.118916  2.4e-05  3.922252  0.0
C  C42  1  0.31964219  0.36700321  0.01944747  1  0.065944  0.000134  3.70887  0.0  0.053099  4.8e-05  3.967032  0.0  0.048016  5.2e-05  3.988918  0.0  0.07435  0.056134  -6.5e-05  3.952141  0.0
C  C43  1  0.68097005  0.63356050  0.98038751  1  0.064865  -0.000141  3.70957  0.0  0.052486  -4.9e-05  3.967766  0.0  0.047405  -5.1e-05  3.989617  0.0  0.074375  0.055535  -7e-05  3.952875  0.0
C  C44  1  0.13434395  0.06665089  0.54241127  1  0.166113  -0.003266  3.753309  -0.003  0.162141  -0.000673  3.999957  -0.001  0.171688  -0.001222  4.020345  -0.001  0.12053  0.154954  0.000292  3.987312  0.0
C  C45  1  0.86466806  0.93283543  0.45764520  1  0.16562  0.003373  3.751863  0.003  0.161891  0.000666  3.998332  0.001  0.171389  0.001218  4.018782  0.001  0.120565  0.154782  0.000297  3.985563  0.0
C  C46  1  0.34094938  0.86306635  0.62990877  1  0.126643  -0.003219  3.6511  -0.003  0.097675  -0.00026  3.909835  0.0  0.109815  -0.000763  3.92796  -0.001  0.048211  0.088403  2.8e-05  3.898596  0.0
C  C47  1  0.65887851  0.13684540  0.36976496  1  0.126837  0.003338  3.652213  0.003  0.097668  0.000259  3.910995  0.0  0.109786  0.000776  3.929132  0.001  0.048675  0.088401  2.2e-05  3.899754  0.0
C  C48  1  0.40488944  0.92885441  0.40959172  1  0.011241  -0.004217  3.695438  -0.003  -0.011693  -0.00114  3.952653  -0.001  -0.004477  -0.001499  3.968593  -0.001  -0.06436  -0.017425  0.000915  3.94314  0.001
C  C49  1  0.59341752  0.07056170  0.59009197  1  0.012944  0.004373  3.693321  0.004  -0.009767  0.001156  3.950268  0.001  -0.002566  0.001515  3.966267  0.001  -0.063348  -0.015496  0.000944  3.940732  0.001
C  C50  1  0.73089600  0.28643869  0.73493767  1  0.139308  0.001798  3.651705  0.002  0.108875  -0.00119  3.906225  -0.001  0.121453  -0.000543  3.92477  0.0  0.051895  0.098754  0.001239  3.896395  0.001
C  C51  1  0.27016182  0.71435071  0.26563680  1  0.136822  -0.001848  3.652497  -0.002  0.106594  0.001241  3.907275  0.001  0.119014  0.000572  3.925808  0.0  0.051474  0.096549  0.00133  3.897405  0.001
C  C52  1  0.24211242  0.04503441  0.42404485  1  -0.130346  0.00377  3.666483  0.003  -0.152664  0.001514  3.920986  0.001  -0.160443  0.001796  3.940308  0.002  -0.073655  -0.147594  -0.000778  3.908775  -0.001
C  C53  1  0.75619803  0.95427700  0.57592987  1  -0.130383  -0.003909  3.667096  -0.003  -0.153578  -0.001531  3.921583  -0.001  -0.161314  -0.001809  3.940998  -0.002  -0.074079  -0.148588  -0.000841  3.909354  -0.001
C  C54  1  0.45595372  0.83783014  0.51395139  1  -0.115034  0.004363  3.710477  0.004  -0.12829  0.00164  3.961313  0.002  -0.137004  0.001995  3.982771  0.002  -0.078579  -0.122372  -0.001074  3.947358  -0.001
C  C55  1  0.54309850  0.16188133  0.48557324  1  -0.115659  -0.004538  3.711574  -0.004  -0.129398  -0.001675  3.962745  -0.002  -0.138116  -0.002022  3.984176  -0.002  -0.078678  -0.123475  -0.001134  3.94881  -0.001
C  C56  1  0.73335894  0.41302632  0.52791172  1  0.000537  0.002725  3.701201  0.002  -0.01764  -0.000168  3.948748  0.0  -0.009438  0.000401  3.96217  0.0  -0.063161  -0.024788  0.000378  3.941976  0.0
C  C57  1  0.26591818  0.58655830  0.47255926  1  0.000188  -0.002815  3.701609  -0.002  -0.017776  0.000193  3.949273  0.0  -0.009635  -0.000388  3.962734  0.0  -0.064141  -0.02489  0.000418  3.942474  0.0
C  C58  1  0.89245639  0.30183462  0.48673714  1  -0.117486  -0.003025  3.659962  -0.003  -0.135284  -0.000974  3.898631  -0.001  -0.142932  -0.00119  3.917102  -0.001  -0.07068  -0.130371  0.000737  3.887611  0.001
C  C59  1  0.10610787  0.69727076  0.51356027  1  -0.118639  0.003162  3.658426  0.003  -0.135873  0.000994  3.896704  0.001  -0.143517  0.001202  3.915166  0.001  -0.06999  -0.13098  0.000783  3.885691  0.001
C  C60  1  0.65064944  0.40408217  0.65391996  1  -0.105257  -0.003377  3.712062  -0.003  -0.118746  -0.00117  3.962615  -0.001  -0.127064  -0.001401  3.98257  -0.001  -0.07729  -0.11346  0.00097  3.95094  0.001
C  C61  1  0.34993886  0.59645805  0.34668154  1  -0.104661  0.00353  3.713908  0.003  -0.118535  0.001197  3.964955  0.001  -0.126793  0.001415  3.985011  0.001  -0.078304  -0.113243  0.001034  3.953239  0.001
C  C62  1  0.07473983  0.73360906  0.85178756  1  0.615219  -0.0008  3.896963  0.0  0.569934  -0.001551  4.196904  -0.001  0.605622  -0.001473  4.195793  -0.001  0.205797  0.544966  0.001501  4.197342  0.001
C  C63  1  0.92532392  0.26654261  0.14783747  1  0.61578  0.000788  3.897003  0.0  0.570655  0.001547  4.196532  0.001  0.60628  0.001454  4.195497  0.001  0.205542  0.545723  0.001555  4.196915  0.001
N  N64  1  0.18177018  0.97375029  0.64390113  1  -0.262506  0.025634  3.350495  0.024  -0.224875  0.019656  3.644299  0.017  -0.266145  0.020455  3.667503  0.017  -0.327846  -0.196706  -0.014691  3.628604  -0.013
N  N65  1  0.81792170  0.02607146  0.35605905  1  -0.261947  -0.026841  3.350281  -0.025  -0.224246  -0.020239  3.644049  -0.017  -0.265507  -0.02085  3.66737  -0.017  -0.328067  -0.196156  -0.015628  3.62832  -0.014
N  N66  1  0.88666284  0.18065424  0.69557407  1  -0.272563  -0.022927  3.349782  -0.02  -0.233758  -0.018912  3.647643  -0.015  -0.272178  -0.019155  3.664369  -0.014  -0.330584  -0.209131  0.015843  3.638501  0.013
N  N67  1  0.11362968  0.81955205  0.30488009  1  -0.272036  0.024029  3.350106  0.021  -0.234198  0.019473  3.649092  0.015  -0.272654  0.019508  3.666046  0.015  -0.329462  -0.209586  0.016883  3.639834  0.014
N  N68  1  0.39987502  0.30508452  0.12430507  1  0.473519  0.000157  3.929612  0.0  0.529049  0.000157  4.182668  0.0  0.550936  0.000108  4.189502  0.0  0.056665  0.514173  -0.000248  4.17838  0.0
N  N69  1  0.60065933  0.69549867  0.87566934  1  0.475012  -0.000163  3.932433  0.0  0.529358  -0.00016  4.186643  0.0  0.551246  -0.000111  4.193489  0.0  0.055864  0.514466  -0.000261  4.182375  0.0
O  O70  1  0.18585560  0.11266849  0.85733640  1  -0.662387  0.003412  2.056503  0.003  -0.613554  0.004348  2.306562  0.004  -0.643093  0.003842  2.290515  0.004  -0.327536  -0.593276  -0.00586  2.318322  -0.006
O  O71  1  0.81525724  0.88722892  0.14271580  1  -0.662786  -0.003852  2.056819  -0.004  -0.613866  -0.004663  2.307018  -0.005  -0.643665  -0.004075  2.29115  -0.004  -0.328125  -0.593382  -0.006364  2.318621  -0.007
O  O72  1  0.18368013  0.28891600  0.68958302  1  -0.600848  0.000159  1.894066  0.0  -0.563817  0.000263  2.115344  0.0  -0.586737  0.000219  2.10995  0.0  -0.325111  -0.545318  -0.000407  2.117365  0.0
O  O73  1  0.81685384  0.71090109  0.31055700  1  -0.600475  -0.000177  1.894421  0.0  -0.563507  -0.00027  2.115904  0.0  -0.586394  -0.000215  2.110459  0.0  -0.324525  -0.545027  -0.000424  2.117956  -0.001
O  O74  1  0.40219044  0.39042880  0.18085011  1  -0.373721  0.000144  1.770071  0.0  -0.362391  0.000108  1.967047  0.0  -0.37626  9.5e-05  1.964447  0.0  -0.13472  -0.352982  -0.000225  1.968981  0.0
O  O75  1  0.59873931  0.60987522  0.81920830  1  -0.373896  -0.000157  1.772347  0.0  -0.362488  -0.000113  1.970194  0.0  -0.376402  -9.9e-05  1.967687  0.0  -0.135242  -0.353072  -0.000232  1.972111  0.0
O  O76  1  0.46017488  0.17143873  0.15213229  1  -0.320261  4.1e-05  1.782619  0.0  -0.30614  0.000108  1.973574  0.0  -0.317343  9.3e-05  1.969937  0.0  -0.107639  -0.29902  -0.000116  1.976368  0.0
O  O77  1  0.53995577  0.82914908  0.84786821  1  -0.321462  -3.7e-05  1.782481  0.0  -0.30645  -0.000111  1.97357  0.0  -0.317607  -8.9e-05  1.96987  0.0  -0.106544  -0.299304  -0.000125  1.97635  0.0
O  O78  1  0.82592554  0.06684800  0.94362832  1  -0.748357  0.015698  2.007401  0.016  -0.717793  0.012965  2.248513  0.013  -0.76117  0.01345  2.216439  0.013  -0.552693  -0.685019  -0.009545  2.269626  -0.009
O  O79  1  0.17505413  0.93265697  0.05624257  1  -0.748844  -0.016211  2.004448  -0.016  -0.718529  -0.013186  2.24403  -0.013  -0.761736  -0.013528  2.212065  -0.013  -0.552662  -0.685891  -0.010047  2.265052  -0.01
O  O80  1  0.96595654  0.77190250  0.78784709  1  -0.58875  0.001364  1.996684  0.002  -0.559842  0.000888  2.244856  0.002  -0.585835  0.000871  2.234857  0.002  -0.299631  -0.541682  -0.000756  2.252353  -0.001
O  O81  1  0.03419569  0.22789913  0.21180842  1  -0.589699  -0.001433  1.99755  -0.002  -0.560369  -0.000934  2.244998  -0.002  -0.58645  -0.000916  2.235036  -0.002  -0.300108  -0.542175  -0.000828  2.252515  -0.001
O  O82  1  0.11904459  0.82504413  0.88301123  1  -0.579589  -0.02144  2.09855  -0.022  -0.540476  -0.016444  2.372077  -0.017  -0.590693  -0.01588  2.368585  -0.016  -0.307863  -0.504195  0.012592  2.373544  0.012
O  O83  1  0.88077408  0.17538838  0.11644973  1  -0.580188  0.022465  2.094173  0.023  -0.54098  0.016918  2.366865  0.017  -0.590961  0.016141  2.363411  0.016  -0.306899  -0.504881  0.013417  2.368318  0.013
