# generated using pymatgen
data_ZnH12C10(NO2)2
_symmetry_space_group_name_H-M   'P 1'
_cell_length_a   10.20639219
_cell_length_b   17.61240991
_cell_length_c   17.61059362
_cell_angle_alpha   120.01186738
_cell_angle_beta   89.99990050
_cell_angle_gamma   90.00006777
_symmetry_Int_Tables_number   1
_chemical_formula_structural   ZnH12C10(NO2)2
_chemical_formula_sum   'Zn6 H72 C60 N12 O24'
_cell_volume   2741.21889846
_cell_formula_units_Z   6
loop_
 _symmetry_equiv_pos_site_id
 _symmetry_equiv_pos_as_xyz
  1  'x, y, z'
loop_
 _atom_site_type_symbol
 _atom_site_label
 _atom_site_symmetry_multiplicity
 _atom_site_fract_x
 _atom_site_fract_y
 _atom_site_fract_z
 _atom_site_occupancy
 _atom_site_pbe_bader_charge
 _atom_site_pbe_bader_spin_density
 _atom_site_pbe_cm5_charge
 _atom_site_pbe_ddec_charge
 _atom_site_pbe_ddec_spin_density
 _atom_site_pbe_ddec_sum_bond_order
 _atom_site_pbe_magmom
Zn  Zn0  1  0.99044640  0.53577357  0.07747791  1  1.261291  0  0.683659  0.782679  0  2.329955  0
Zn  Zn1  1  0.82364585  0.07736248  0.54149181  1  1.263435  0  0.684153  0.782839  0  2.331831  0
Zn  Zn2  1  0.65715176  0.54151282  0.46408186  1  1.260792  0  0.683765  0.782779  0  2.329913  0
Zn  Zn3  1  0.49044468  0.46422438  0.92252110  1  1.261286  0  0.683697  0.782746  0  2.329852  0
Zn  Zn4  1  0.32364449  0.92263779  0.45850839  1  1.263465  0  0.684179  0.782894  0  2.331774  0
Zn  Zn5  1  0.15715118  0.45848773  0.53591816  1  1.260814  0  0.683754  0.782744  0  2.329988  0
H  H6  1  0.21881807  0.43454866  0.09870134  1  0.151799  0  0.120558  0.102743  0  1.023897  0
H  H7  1  0.05188228  0.09852686  0.66387235  1  0.157491  0  0.120458  0.102759  0  1.024209  0
H  H8  1  0.88533422  0.66408657  0.56533610  1  0.158568  0  0.120396  0.102626  0  1.024039  0
H  H9  1  0.71881836  0.56544987  0.90129725  1  0.15181  0  0.120555  0.102735  0  1.023879  0
H  H10  1  0.55188201  0.90147391  0.33612866  1  0.157471  0  0.120462  0.102779  0  1.024213  0
H  H11  1  0.38533370  0.33591380  0.43466282  1  0.158555  0  0.120404  0.102645  0  1.024017  0
H  H12  1  0.28055858  0.38508156  0.20491782  1  0.084095  0  0.115455  0.127939  0  0.987082  0
H  H13  1  0.11365521  0.20480465  0.81958113  1  0.076133  0  0.115217  0.127942  0  0.987431  0
H  H14  1  0.94690846  0.81978122  0.61475255  1  0.073332  0  0.115036  0.127877  0  0.987142  0
H  H15  1  0.78055929  0.61491813  0.79508185  1  0.084098  0  0.115466  0.127945  0  0.987102  0
H  H16  1  0.61365617  0.79519613  0.18041983  1  0.076129  0  0.115207  0.127917  0  0.987461  0
H  H17  1  0.44690777  0.18021973  0.38524688  1  0.073313  0  0.115051  0.127882  0  0.987132  0
H  H18  1  0.91041671  0.48906627  0.33558580  1  0.138389  0  0.111883  0.133157  0  1.02321  0
H  H19  1  0.74360464  0.33552188  0.84627153  1  0.149563  0  0.112311  0.132821  0  1.022948  0
H  H20  1  0.57673181  0.84621767  0.51067251  1  0.140056  0  0.112137  0.133331  0  1.023235  0
H  H21  1  0.41041683  0.51093312  0.66441409  1  0.138395  0  0.111881  0.133161  0  1.023189  0
H  H22  1  0.24360563  0.66447926  0.15372898  1  0.149577  0  0.112284  0.132734  0  1.022982  0
H  H23  1  0.07673271  0.15378197  0.48932734  1  0.140062  0  0.112139  0.133327  0  1.023225  0
H  H24  1  0.86631416  0.53664796  0.22665569  1  0.147867  0  0.123357  0.104686  0  1.006783  0
H  H25  1  0.69950397  0.22657473  0.68972373  1  0.155961  0  0.123265  0.104592  0  1.007096  0
H  H26  1  0.53289840  0.68966281  0.46302292  1  0.173244  0  0.123274  0.105095  0  1.007363  0
H  H27  1  0.36631289  0.46335232  0.77334447  1  0.148206  0  0.123355  0.104682  0  1.006781  0
H  H28  1  0.19950373  0.77342494  0.31027601  1  0.155947  0  0.123298  0.104646  0  1.007168  0
H  H29  1  0.03289850  0.31033682  0.53697697  1  0.173241  0  0.123264  0.105079  0  1.007385  0
H  H30  1  0.06442222  0.36623781  0.35115124  1  0.069768  0  0.118165  0.112299  0  0.950985  0
H  H31  1  0.89741688  0.35097759  0.98467939  1  0.074727  0  0.118481  0.112723  0  0.951075  0
H  H32  1  0.73065197  0.98474825  0.63363792  1  0.064587  0  0.118448  0.113475  0  0.950634  0
H  H33  1  0.56442145  0.63376239  0.64884919  1  0.069758  0  0.11816  0.112291  0  0.95099  0
H  H34  1  0.39741825  0.64902269  0.01532074  1  0.074738  0  0.118484  0.112755  0  0.951066  0
H  H35  1  0.23065296  0.01525265  0.36636170  1  0.064815  0  0.11845  0.113481  0  0.950668  0
H  H36  1  0.23390232  0.38336193  0.33944425  1  0.069472  0  0.11303  0.103959  0  0.982653  0
H  H37  1  0.06695205  0.33925598  0.95597323  1  0.062788  0  0.112775  0.103881  0  0.982773  0
H  H38  1  0.90013987  0.95596883  0.61664475  1  0.090859  0  0.112875  0.103537  0  0.983399  0
H  H39  1  0.73390148  0.61663888  0.66055660  1  0.069245  0  0.113039  0.103981  0  0.982676  0
H  H40  1  0.56695413  0.66074455  0.04402687  1  0.062796  0  0.112776  0.103874  0  0.98278  0
H  H41  1  0.40014184  0.04403202  0.38335596  1  0.090836  0  0.112879  0.103536  0  0.983354  0
H  H42  1  0.25678612  0.55074362  0.38531029  1  0.05205  0  0.109316  0.073383  0  0.97018  0
H  H43  1  0.09013481  0.38524245  0.83457340  1  0.051382  0  0.109912  0.074529  0  0.969906  0
H  H44  1  0.92345480  0.83455064  0.44924509  1  0.046401  0  0.110122  0.075106  0  0.969594  0
H  H45  1  0.75678605  0.44925752  0.61469021  1  0.052044  0  0.10935  0.073409  0  0.970179  0
H  H46  1  0.59013545  0.61475752  0.16542611  1  0.051381  0  0.109913  0.074526  0  0.969918  0
H  H47  1  0.42345554  0.16544932  0.55075535  1  0.046647  0  0.110114  0.075081  0  0.969589  0
H  H48  1  0.09748887  0.66473660  0.47449805  1  0.029183  0  0.088288  0.121741  0  1.006336  0
H  H49  1  0.93088257  0.47445908  0.80979261  1  0.031035  0  0.088058  0.121693  0  1.00637  0
H  H50  1  0.76414400  0.80968574  0.33523257  1  0.020182  0  0.088402  0.122143  0  1.005946  0
H  H51  1  0.59748786  0.33526361  0.52550236  1  0.029173  0  0.088309  0.121768  0  1.006325  0
H  H52  1  0.43088316  0.52554211  0.19020774  1  0.031023  0  0.088056  0.121682  0  1.00638  0
H  H53  1  0.26414445  0.19031427  0.66476678  1  0.020178  0  0.088397  0.122134  0  1.005958  0
H  H54  1  0.25623543  0.69943894  0.52008031  1  0.06492  0  0.0943  0.138254  0  1.016559  0
H  H55  1  0.08967252  0.51998920  0.82069834  1  0.050659  0  0.094417  0.13803  0  1.016126  0
H  H56  1  0.92289555  0.82057940  0.30052159  1  0.078235  0  0.094516  0.13808  0  1.01641  0
H  H57  1  0.75623351  0.30056099  0.47992027  1  0.064924  0  0.094309  0.138265  0  1.016559  0
H  H58  1  0.58967284  0.48001133  0.17930174  1  0.05066  0  0.094445  0.138085  0  1.016093  0
H  H59  1  0.42289490  0.17942179  0.69947876  1  0.078154  0  0.094527  0.138091  0  1.016408  0
H  H60  1  0.14191187  0.66043122  0.57033399  1  0.072309  0  0.091378  0.137168  0  1.020276  0
H  H61  1  0.97533701  0.57026710  0.90997962  1  0.070737  0  0.091066  0.136849  0  1.020704  0
H  H62  1  0.80853392  0.90983548  0.33957340  1  0.0704  0  0.091229  0.136682  0  1.020388  0
H  H63  1  0.64191213  0.33956933  0.42966604  1  0.072313  0  0.09137  0.137143  0  1.020275  0
H  H64  1  0.47533771  0.42973377  0.09002101  1  0.070757  0  0.091055  0.136846  0  1.020716  0
H  H65  1  0.30853222  0.09016535  0.66042738  1  0.070395  0  0.091244  0.136703  0  1.020351  0
H  H66  1  0.90616701  0.77190904  0.14376454  1  0.010603  0  0.097365  0.005716  0  0.974147  0
H  H67  1  0.73913638  0.14368490  0.37178838  1  0.021096  0  0.097594  0.005842  0  0.974066  0
H  H68  1  0.57263627  0.37181384  0.22794365  1  0.05556  0  0.098122  0.006589  0  0.973604  0
H  H69  1  0.40616598  0.22808856  0.85623487  1  0.010626  0  0.097348  0.005693  0  0.974138  0
H  H70  1  0.23913536  0.85631591  0.62821247  1  0.021043  0  0.097581  0.005843  0  0.974022  0
H  H71  1  0.07263730  0.62818481  0.77205718  1  0.055541  0  0.098118  0.006612  0  0.973607  0
H  H72  1  0.03817005  0.51689273  0.45097009  1  0.477084  0  0.294484  0.252621  0  0.992571  0
H  H73  1  0.87146469  0.45096125  0.93408179  1  0.487599  0  0.294319  0.251522  0  0.992709  0
H  H74  1  0.70472526  0.93399676  0.48297799  1  0.468262  0  0.294298  0.251832  0  0.992875  0
H  H75  1  0.53816927  0.48310756  0.54902914  1  0.477462  0  0.294471  0.252595  0  0.992664  0
H  H76  1  0.37146375  0.54903903  0.06591837  1  0.487586  0  0.294328  0.25153  0  0.992679  0
H  H77  1  0.20472688  0.06600381  0.51702198  1  0.468271  0  0.294345  0.251921  0  0.992835  0
C  C78  1  0.15457101  0.44645885  0.15311981  1  0.427484  0  0.049371  0.090747  0  3.931857  0
C  C79  1  0.98768993  0.15299588  0.70637401  1  0.435431  0  0.04921  0.090819  0  3.932766  0
C  C80  1  0.82108533  0.70652369  0.55334145  1  0.431186  0  0.04951  0.091658  0  3.931857  0
C  C81  1  0.65457046  0.55354171  0.84688022  1  0.42742  0  0.049349  0.090748  0  3.931734  0
C  C82  1  0.48768990  0.84700467  0.29362694  1  0.43567  0  0.049157  0.090743  0  3.932703  0
C  C83  1  0.32108567  0.29347658  0.44665875  1  0.431163  0  0.049491  0.091612  0  3.931816  0
C  C84  1  0.18745518  0.41838262  0.21193814  1  0.009595  0  -0.082098  -0.185568  0  3.945991  0
C  C85  1  0.02060474  0.21183717  0.79327253  1  -0.013616  0  -0.081465  -0.185783  0  3.945883  0
C  C86  1  0.85387169  0.79342792  0.58139597  1  -0.022485  0  -0.081842  -0.186652  0  3.945294  0
C  C87  1  0.68745487  0.58161728  0.78806251  1  0.009604  0  -0.082103  -0.185577  0  3.94595  0
C  C88  1  0.52060659  0.78816246  0.20672737  1  -0.013749  0  -0.081474  -0.185765  0  3.945827  0
C  C89  1  0.35387095  0.20657292  0.41860477  1  -0.022476  0  -0.081839  -0.186598  0  3.945335  0
C  C90  1  0.10161575  0.43455971  0.28032525  1  -0.045484  0  0.012208  0.140065  0  3.951892  0
C  C91  1  0.93479457  0.28025013  0.84551518  1  0.000656  0  0.0127  0.140968  0  3.950233  0
C  C92  1  0.76797168  0.84559165  0.56520816  1  0.000742  0  0.012302  0.141308  0  3.951804  0
C  C93  1  0.60161463  0.56544083  0.71967482  1  -0.045468  0  0.012224  0.140109  0  3.951769  0
C  C94  1  0.43479567  0.71975016  0.15448493  1  0.000662  0  0.012729  0.140997  0  3.950241  0
C  C95  1  0.26797177  0.15440894  0.43479176  1  0.000718  0  0.012249  0.141211  0  3.951956  0
C  C96  1  0.98309377  0.47693789  0.28536023  1  0.001822  0  -0.082182  -0.175309  0  3.920102  0
C  C97  1  0.81628654  0.28529942  0.80816891  1  -0.076438  0  -0.082224  -0.175061  0  3.92011  0
C  C98  1  0.64950379  0.80816954  0.52278696  1  -0.112215  0  -0.08254  -0.175912  0  3.9214  0
C  C99  1  0.48309279  0.52306322  0.71464129  1  0.001752  0  -0.082158  -0.17529  0  3.920038  0
C  C100  1  0.31628850  0.71470150  0.19183064  1  -0.076444  0  -0.082191  -0.174931  0  3.920038  0
C  C101  1  0.14950481  0.19183012  0.47721283  1  -0.112222  0  -0.082529  -0.175876  0  3.921413  0
C  C102  1  0.95744134  0.50386980  0.22525325  1  0.407869  0  0.048798  0.100672  0  3.921091  0
C  C103  1  0.79062524  0.22518713  0.72111182  1  0.447253  0  0.048132  0.101022  0  3.922711  0
C  C104  1  0.62398444  0.72110114  0.49581790  1  0.494436  0  0.049096  0.101069  0  3.923963  0
C  C105  1  0.45743915  0.49613163  0.77474796  1  0.407581  0  0.048792  0.100676  0  3.92108  0
C  C106  1  0.29062413  0.77481337  0.27888931  1  0.447261  0  0.04809  0.10093  0  3.922782  0
C  C107  1  0.12398360  0.27889884  0.50418158  1  0.49445  0  0.049127  0.101113  0  3.923932  0
C  C108  1  0.13576187  0.41283801  0.35069248  1  0.284942  0  -0.062631  -0.093472  0  3.898272  0
C  C109  1  0.96887902  0.35054815  0.93768671  1  0.290533  0  -0.062782  -0.094459  0  3.897798  0
C  C110  1  0.80207096  0.93772497  0.58705786  1  0.26522  0  -0.062928  -0.095477  0  3.89993  0
C  C111  1  0.63576101  0.58716254  0.64930756  1  0.285168  0  -0.062638  -0.093524  0  3.898308  0
C  C112  1  0.46888026  0.64945158  0.06231280  1  0.290524  0  -0.062787  -0.094511  0  3.89785  0
C  C113  1  0.30207288  0.06227619  0.41294260  1  0.265043  0  -0.062956  -0.095518  0  3.899935  0
C  C114  1  0.23029185  0.55877732  0.44957769  1  0.299546  0  -0.002312  0.045944  0  3.86187  0
C  C115  1  0.06361808  0.44949460  0.89082468  1  0.307504  0  -0.002959  0.0431  0  3.864518  0
C  C116  1  0.89690582  0.89076315  0.44120993  1  0.309256  0  -0.00396  0.042469  0  3.865158  0
C  C117  1  0.73029196  0.44122293  0.55042260  1  0.299564  0  -0.002322  0.045958  0  3.861808  0
C  C118  1  0.56361778  0.55050536  0.10917485  1  0.307496  0  -0.002965  0.043111  0  3.864539  0
C  C119  1  0.39690642  0.10923680  0.55879053  1  0.308883  0  -0.003937  0.042589  0  3.864972  0
C  C120  1  0.35762081  0.54503851  0.48769661  1  1.600884  0  0.216304  0.587534  0  4.128824  0
C  C121  1  0.19093139  0.48763967  0.94270195  1  1.596577  0  0.214991  0.58692  0  4.12973  0
C  C122  1  0.02419394  0.94266813  0.45499971  1  1.611671  0  0.216721  0.588035  0  4.129856  0
C  C123  1  0.85762106  0.45496120  0.51230300  1  1.600831  0  0.216262  0.587484  0  4.128788  0
C  C124  1  0.69093215  0.51236080  0.05729926  1  1.596822  0  0.21499  0.58691  0  4.129826  0
C  C125  1  0.52419525  0.05733117  0.54500051  1  1.611681  0  0.216703  0.587984  0  4.129844  0
C  C126  1  0.17828523  0.65178625  0.50773557  1  -0.089687  0  -0.243105  -0.407678  0  3.902599  0
C  C127  1  0.01168113  0.50766963  0.85599605  1  -0.069859  0  -0.242304  -0.406235  0  3.902793  0
C  C128  1  0.84493849  0.85587791  0.34818391  1  -0.099194  0  -0.242587  -0.406342  0  3.902311  0
C  C129  1  0.67828533  0.34821399  0.49226476  1  -0.089689  0  -0.243129  -0.407698  0  3.902584  0
C  C130  1  0.51168158  0.49233146  0.14400466  1  -0.069865  0  -0.242316  -0.406281  0  3.902808  0
C  C131  1  0.34493790  0.14412236  0.65181627  1  -0.098959  0  -0.242593  -0.406371  0  3.902274  0
C  C132  1  0.90835581  0.69882167  0.10630458  1  1.608851  0  0.12241  0.468649  0  4.312289  0
C  C133  1  0.74155830  0.10624505  0.40742299  1  1.573052  0  0.12179  0.468623  0  4.312057  0
C  C134  1  0.57493574  0.40742808  0.30103970  1  1.538869  0  0.120746  0.466085  0  4.310607  0
C  C135  1  0.40835384  0.30117740  0.89369563  1  1.608802  0  0.122401  0.468607  0  4.31243  0
C  C136  1  0.24155551  0.89375610  0.59257752  1  1.573113  0  0.121811  0.468632  0  4.312057  0
C  C137  1  0.07493495  0.59257180  0.69896104  1  1.538873  0  0.120721  0.465952  0  4.310762  0
N  N138  1  0.13247271  0.49248129  0.43878647  1  -1.09548  0  -0.481847  -0.352699  0  3.522858  0
N  N139  1  0.96573499  0.43868625  0.94628205  1  -1.123951  0  -0.482424  -0.351818  0  3.524447  0
N  N140  1  0.79898381  0.94623226  0.50746155  1  -1.094805  0  -0.481756  -0.350948  0  3.522654  0
N  N141  1  0.63247194  0.50751893  0.56121390  1  -1.095858  0  -0.481839  -0.352656  0  3.522749  0
N  N142  1  0.46573509  0.56131405  0.05371802  1  -1.123971  0  -0.48243  -0.351826  0  3.524419  0
N  N143  1  0.29898450  0.05376800  0.49253868  1  -1.094824  0  -0.481781  -0.351049  0  3.522619  0
N  N144  1  0.04216207  0.48980740  0.16048558  1  -1.258346  0  -0.329262  -0.231556  0  3.545923  0
N  N145  1  0.87529964  0.16038889  0.67040260  1  -1.262287  0  -0.329766  -0.232153  0  3.549175  0
N  N146  1  0.70874106  0.67046344  0.50994092  1  -1.26207  0  -0.329173  -0.232279  0  3.548397  0
N  N147  1  0.54216146  0.51019247  0.83951520  1  -1.258304  0  -0.329274  -0.231603  0  3.545803  0
N  N148  1  0.37529948  0.83961139  0.32959755  1  -1.262405  0  -0.329735  -0.232117  0  3.549133  0
N  N149  1  0.20874036  0.32953689  0.49005816  1  -1.262041  0  -0.329173  -0.232277  0  3.548384  0
O  O150  1  0.35442369  0.49968891  0.52581734  1  -1.193742  0  -0.309873  -0.547174  0  2.297729  0
O  O151  1  0.18773285  0.52577948  0.02618909  1  -1.1977  0  -0.309588  -0.546308  0  2.297041  0
O  O152  1  0.02094399  0.02614898  0.50035038  1  -1.203163  0  -0.309572  -0.546919  0  2.298016  0
O  O153  1  0.85442415  0.50031169  0.47418251  1  -1.19376  0  -0.309855  -0.547175  0  2.297647  0
O  O154  1  0.68773274  0.47421995  0.97380977  1  -1.197697  0  -0.309609  -0.546353  0  2.297015  0
O  O155  1  0.52094339  0.97385113  0.49965131  1  -1.203175  0  -0.309553  -0.546904  0  2.298075  0
O  O156  1  0.45756117  0.58263246  0.47947602  1  -1.202637  0  -0.319995  -0.562566  0  2.355715  0
O  O157  1  0.29082571  0.47944679  0.89685403  1  -1.200264  0  -0.319343  -0.561918  0  2.355425  0
O  O158  1  0.12415680  0.89686712  0.41742174  1  -1.199982  0  -0.320483  -0.562738  0  2.356809  0
O  O159  1  0.95756034  0.41736589  0.52052146  1  -1.202582  0  -0.319984  -0.562552  0  2.355744  0
O  O160  1  0.79082439  0.52055323  0.10314530  1  -1.200538  0  -0.319318  -0.561873  0  2.355552  0
O  O161  1  0.62415808  0.10313286  0.58257774  1  -1.199981  0  -0.320496  -0.56274  0  2.356805  0
O  O162  1  0.98758549  0.66550659  0.13926528  1  -1.181589  0  -0.349943  -0.529942  0  2.335782  0
O  O163  1  0.82074783  0.13932379  0.47373350  1  -1.16  0  -0.35034  -0.530231  0  2.335356  0
O  O164  1  0.65419393  0.47369735  0.33433572  1  -1.169006  0  -0.349898  -0.529293  0  2.333852  0
O  O165  1  0.48758760  0.33449055  0.86073227  1  -1.181614  0  -0.349928  -0.529927  0  2.335712  0
O  O166  1  0.32074712  0.86067672  0.52626760  1  -1.159968  0  -0.350304  -0.530246  0  2.335366  0
O  O167  1  0.15419115  0.52630018  0.66566391  1  -1.169045  0  -0.349876  -0.52922  0  2.333874  0
O  O168  1  0.83837815  0.65831356  0.03992434  1  -1.202334  0  -0.346739  -0.543935  0  2.193532  0
O  O169  1  0.67186470  0.03975368  0.38151350  1  -1.198665  0  -0.346066  -0.543824  0  2.193722  0
O  O170  1  0.50507257  0.38156105  0.34158279  1  -1.19026  0  -0.346199  -0.542977  0  2.192596  0
O  O171  1  0.33837999  0.34168364  0.96007211  1  -1.202303  0  -0.346771  -0.543929  0  2.193733  0
O  O172  1  0.17186294  0.96024419  0.61848578  1  -1.198678  0  -0.346092  -0.543812  0  2.193754  0
O  O173  1  0.00507490  0.61844085  0.65841939  1  -1.190234  0  -0.346186  -0.542915  0  2.192707  0
