# generated using pymatgen
data_ZnH19C17(NO4)2
_symmetry_space_group_name_H-M   'P 1'
_cell_length_a   9.48853119
_cell_length_b   10.85659025
_cell_length_c   16.06683147
_cell_angle_alpha   89.16652367
_cell_angle_beta   90.46567213
_cell_angle_gamma   90.69635436
_symmetry_Int_Tables_number   1
_chemical_formula_structural   ZnH19C17(NO4)2
_chemical_formula_sum   'Zn2 H38 C34 N4 O16'
_cell_volume   1654.74437713
_cell_formula_units_Z   2
loop_
 _symmetry_equiv_pos_site_id
 _symmetry_equiv_pos_as_xyz
  1  'x, y, z'
loop_
 _atom_site_type_symbol
 _atom_site_label
 _atom_site_symmetry_multiplicity
 _atom_site_fract_x
 _atom_site_fract_y
 _atom_site_fract_z
 _atom_site_occupancy
 _atom_site_pbe_bader_charge
 _atom_site_pbe_bader_spin_density
 _atom_site_pbe_cm5_charge
 _atom_site_pbe_ddec_charge
 _atom_site_pbe_ddec_spin_density
 _atom_site_pbe_ddec_sum_bond_order
 _atom_site_pbe_magmom
Zn  Zn0  1  0.35181633  0.49795536  0.49829062  1  1.262883  0  0.677729  0.806601  0  2.398531  0
Zn  Zn1  1  0.64624065  0.50430202  0.50257457  1  1.253873  0  0.674421  0.805706  0  2.376047  0
H  H2  1  0.32728453  0.36157789  0.92931005  1  0.038614  0  0.100284  0.106394  0  0.96804  0
H  H3  1  0.11496222  0.31564646  0.53447828  1  0.082058  0  0.11315  0.104255  0  0.975683  0
H  H4  1  0.86814272  0.56565349  0.37450637  1  0.090946  0  0.113374  0.105363  0  0.972933  0
H  H5  1  0.11780204  0.54915784  0.37066570  1  0.060422  0  0.112175  0.103362  0  0.971771  0
H  H6  1  0.87663752  0.63127232  0.59578809  1  0.067192  0  0.114996  0.103027  0  0.959245  0
H  H7  1  0.12629669  0.63985729  0.58613080  1  0.048507  0  0.115867  0.106889  0  0.95935  0
H  H8  1  0.88147321  0.47529582  0.62780533  1  0.081913  0  0.112617  0.101602  0  0.965772  0
H  H9  1  0.13168799  0.48841441  0.62785059  1  0.096694  0  0.11266  0.106701  0  0.979934  0
H  H10  1  0.88139169  0.68337030  0.44959944  1  0.079118  0  0.111007  0.099294  0  0.973121  0
H  H11  1  0.13105829  0.67524725  0.43924083  1  0.085815  0  0.112207  0.101257  0  0.973605  0
H  H12  1  0.33465140  0.35803411  0.07256547  1  0.077914  0  0.113094  0.106033  0  0.956789  0
H  H13  1  0.60175598  0.31505753  0.92120148  1  0.05302  0  0.100606  0.109387  0  0.965243  0
H  H14  1  0.55342486  0.29914033  0.06291763  1  0.054487  0  0.10849  0.098048  0  0.961786  0
H  H15  1  0.71811784  0.44207541  0.93429910  1  0.077871  0  0.09965  0.107886  0  0.98411  0
H  H16  1  0.27520144  0.51742130  0.92720947  1  0.057884  0  0.099475  0.102501  0  0.98138  0
H  H17  1  0.49111302  0.68980295  0.07813108  1  0.084081  0  0.093391  0.10083  0  0.99825  0
H  H18  1  0.66297434  0.63210714  0.06679350  1  0.080093  0  0.094364  0.104668  0  1.000218  0
H  H19  1  0.45000353  0.68706411  0.93427551  1  0.042046  0  0.096369  0.098854  0  0.974321  0
H  H20  1  0.63213906  0.65907170  0.92322193  1  0.027958  0  0.09866  0.101902  0  0.968729  0
H  H21  1  0.27080827  0.11089617  0.52311245  1  0.090541  0  0.11262  0.111686  0  0.984905  0
H  H22  1  0.71519216  0.07963180  0.50455635  1  0.036861  0  0.108046  0.090252  0  0.985147  0
H  H23  1  0.32530081  0.87700509  0.59773343  1  0.060011  0  0.095066  0.105864  0  0.99916  0
H  H24  1  0.26904100  0.90582937  0.49343424  1  0.038233  0  0.088592  0.09273  0  0.999469  0
H  H25  1  0.57660019  0.91127657  0.63240262  1  0.074199  0  0.101178  0.114783  0  0.969303  0
H  H26  1  0.32873669  0.18451348  0.37843785  1  0.387252  0  0.28371  0.282261  0  0.975614  0
H  H27  1  0.34174437  0.05468971  0.32676645  1  0.398307  0  0.282363  0.266975  0  0.971726  0
H  H28  1  0.68608931  0.15904089  0.39690448  1  0.394553  0  0.277691  0.267507  0  0.993765  0
H  H29  1  0.59999122  0.11938823  0.31190372  1  0.394215  0  0.284488  0.282188  0  0.960043  0
H  H30  1  0.92863815  0.46236908  0.09736359  1  0.669018  0  0.313814  0.380161  0  0.931624  0
H  H31  1  0.15562921  0.68349804  0.09057587  1  0.61621  0  0.354562  0.385846  0  0.84154  0
H  H32  1  0.32050293  0.23202564  0.71678906  1  0.629975  0  0.338674  0.375464  0  0.863933  0
H  H33  1  0.85908949  0.16965476  0.68188643  1  0.620347  0  0.341769  0.376415  0  0.859752  0
H  H34  1  0.70881479  0.87928356  0.55792215  1  0.066293  0  0.093668  0.100717  0  0.993475  0
H  H35  1  0.45539168  0.88921098  0.37405375  1  0.014089  0  0.098076  0.110379  0  0.972486  0
H  H36  1  0.63215455  0.92096164  0.40403415  1  0.042656  0  0.093033  0.10142  0  0.993462  0
H  H37  1  0.87262449  0.35557669  0.41743196  1  0.064249  0  0.115423  0.105722  0  0.957135  0
H  H38  1  0.12139125  0.34079434  0.42558582  1  0.051481  0  0.114875  0.10371  0  0.961155  0
H  H39  1  0.86634181  0.31318996  0.52437887  1  0.087016  0  0.105931  0.094887  0  1.020536  0
C  C40  1  0.49511180  0.26219172  0.50905991  1  1.540639  0  0.222865  0.601026  0  4.116762  0
C  C41  1  0.60998717  0.92815401  0.56779799  1  -0.072626  0  -0.155558  -0.202945  0  3.829902  0
C  C42  1  0.48888890  0.07627219  0.41877958  1  0.705046  0  0.168192  0.424669  0  3.777157  0
C  C43  1  0.49364758  0.12130130  0.51281951  1  0.068405  0  0.005322  -0.070948  0  3.635287  0
C  C44  1  0.49393745  0.88049180  0.50825216  1  0.044026  0  -0.014519  0.050341  0  3.797201  0
C  C45  1  0.50388884  0.49493486  0.33815896  1  1.643821  0  0.219576  0.668052  0  4.250811  0
C  C46  1  0.52169425  0.93614939  0.42070559  1  -0.04949  0  -0.157141  -0.294273  0  3.823559  0
C  C47  1  0.91390418  0.37792550  0.47953633  1  0.217515  0  -0.071827  -0.092736  0  3.818016  0
C  C48  1  0.07625941  0.37470874  0.48344201  1  0.26801  0  -0.068672  -0.088117  0  3.818439  0
C  C49  1  0.91810089  0.59125557  0.43370715  1  0.238189  0  -0.068277  -0.089157  0  3.812811  0
C  C50  1  0.08078577  0.58481301  0.43007160  1  0.211257  0  -0.068121  -0.090402  0  3.814495  0
C  C51  1  0.53522793  0.62448935  0.95279800  1  -0.038561  0  -0.152685  -0.184951  0  3.840048  0
C  C52  1  0.92158541  0.54150290  0.58128397  1  0.215325  0  -0.067595  -0.084001  0  3.823048  0
C  C53  1  0.08399023  0.54603223  0.57892431  1  0.256541  0  -0.069529  -0.094509  0  3.818864  0
C  C54  1  0.49734396  0.74050286  0.50239312  1  1.562511  0  0.223317  0.594441  0  4.093036  0
C  C55  1  0.50017460  0.50287720  0.66318175  1  1.685116  0  0.220579  0.673681  0  4.237067  0
C  C56  1  0.35473422  0.45212929  0.04941421  1  -0.05652  0  -0.07214  -0.162597  0  3.775379  0
C  C57  1  0.60384859  0.38802004  0.04743903  1  -0.014759  0  -0.073817  -0.153963  0  3.761711  0
C  C58  1  0.61438776  0.40448481  0.95163872  1  -0.048774  0  -0.149967  -0.209336  0  3.818015  0
C  C59  1  0.35440752  0.45366859  0.95232862  1  0.028354  0  -0.147201  -0.207136  0  3.819078  0
C  C60  1  0.49897371  0.49951811  0.75323314  1  0.187472  0  -0.057831  -0.207245  0  3.997885  0
C  C61  1  0.50502072  0.49031798  0.08244017  1  0.186746  0  0.013733  0.161032  0  3.835795  0
C  C62  1  0.55256341  0.61833510  0.04830464  1  -0.058995  0  -0.16192  -0.19832  0  3.846431  0
C  C63  1  0.50050061  0.49450004  0.91913683  1  0.148228  0  0.001482  0.182187  0  3.903757  0
C  C64  1  0.74717568  0.38036187  0.09081706  1  1.5332  0  0.229127  0.607593  0  4.059019  0
C  C65  1  0.23149508  0.52399533  0.08177493  1  1.476896  0  0.245256  0.617135  0  4.044879  0
C  C66  1  0.34317227  0.09473711  0.64677735  1  1.491666  0  0.225457  0.599973  0  4.061191  0
C  C67  1  0.68639896  0.13059982  0.62818924  1  1.465886  0  0.230648  0.603209  0  4.062887  0
C  C68  1  0.49876813  0.49696217  0.82885797  1  -0.499737  0  -0.032547  -0.056663  0  4.045561  0
C  C69  1  0.50661682  0.48966005  0.17266995  1  -0.463035  0  -0.040057  -0.070428  0  4.059054  0
C  C70  1  0.50692502  0.49102523  0.24822749  1  0.145189  0  -0.050878  -0.184218  0  3.976564  0
C  C71  1  0.35919772  0.06546185  0.55499640  1  0.026199  0  -0.081697  -0.136022  0  3.788824  0
C  C72  1  0.63122874  0.06824733  0.55071787  1  0.021714  0  -0.081942  -0.139343  0  3.831475  0
C  C73  1  0.35165752  0.92574098  0.53956266  1  -0.038283  0  -0.168125  -0.209517  0  3.883396  0
N  N74  1  0.86433897  0.50397546  0.49880955  1  -0.993451  0  -0.344086  -0.106065  0  3.465347  0
N  N75  1  0.13379493  0.50098789  0.49722554  1  -0.988487  0  -0.344029  -0.102591  0  3.464496  0
N  N76  1  0.34692717  0.09211466  0.38466004  1  -1.10282  0  -0.628317  -0.674756  0  3.184133  0
N  N77  1  0.58814129  0.15328113  0.37035465  1  -1.109033  0  -0.632719  -0.700563  0  3.190125  0
O  O78  1  0.38108946  0.31353570  0.48679027  1  -1.16843  0  -0.307196  -0.538268  0  2.398273  0
O  O79  1  0.83559744  0.47494192  0.07019484  1  -1.169784  0  -0.344349  -0.509154  0  2.259181  0
O  O80  1  0.12629982  0.47563841  0.11261511  1  -1.15937  0  -0.285116  -0.509772  0  2.130879  0
O  O81  1  0.24266101  0.64766145  0.06974635  1  -1.103063  0  -0.319582  -0.466996  0  2.238503  0
O  O82  1  0.34710435  0.02094728  0.70480637  1  -1.132259  0  -0.310878  -0.50607  0  2.08157  0
O  O83  1  0.31346792  0.21594650  0.65707770  1  -1.143299  0  -0.340286  -0.48789  0  2.302985  0
O  O84  1  0.61897740  0.16549921  0.68735518  1  -1.141782  0  -0.289131  -0.485562  0  2.126663  0
O  O85  1  0.83121390  0.13633676  0.62774360  1  -1.103569  0  -0.348492  -0.49685  0  2.199668  0
O  O86  1  0.61069718  0.31735155  0.52513723  1  -1.169596  0  -0.30255  -0.537963  0  2.372174  0
O  O87  1  0.38412996  0.51387695  0.37037084  1  -1.145619  0  -0.312706  -0.54774  0  2.272819  0
O  O88  1  0.62067141  0.48048628  0.37625127  1  -1.149199  0  -0.305887  -0.538689  0  2.303075  0
O  O89  1  0.38065631  0.68288875  0.51024826  1  -1.162675  0  -0.310488  -0.541058  0  2.372991  0
O  O90  1  0.61583837  0.69152588  0.48810114  1  -1.178253  0  -0.319255  -0.553891  0  2.327367  0
O  O91  1  0.38345578  0.48151565  0.62654703  1  -1.151117  0  -0.304802  -0.538297  0  2.31246  0
O  O92  1  0.61820404  0.52706810  0.62910580  1  -1.153933  0  -0.311133  -0.543954  0  2.281478  0
O  O93  1  0.77988949  0.29611587  0.13796959  1  -1.140325  0  -0.310664  -0.499906  0  2.028954  0
