# generated using pymatgen
data_AlH8C13O5F
_symmetry_space_group_name_H-M   'P 1'
_cell_length_a   6.64124950
_cell_length_b   11.13257182
_cell_length_c   17.83947014
_cell_angle_alpha   79.76688441
_cell_angle_beta   77.70922695
_cell_angle_gamma   73.02469034
_symmetry_Int_Tables_number   1
_chemical_formula_structural   AlH8C13O5F
_chemical_formula_sum   'Al2 H16 C26 O10 F2'
_cell_volume   1223.11693413
_cell_formula_units_Z   2
loop_
 _symmetry_equiv_pos_site_id
 _symmetry_equiv_pos_as_xyz
  1  'x, y, z'
loop_
 _atom_site_type_symbol
 _atom_site_label
 _atom_site_symmetry_multiplicity
 _atom_site_fract_x
 _atom_site_fract_y
 _atom_site_fract_z
 _atom_site_occupancy
 _atom_site_pbe_bader_charge
 _atom_site_pbe_bader_spin_density
 _atom_site_pbe_cm5_charge
 _atom_site_pbe_ddec_charge
 _atom_site_pbe_ddec_spin_density
 _atom_site_pbe_ddec_sum_bond_order
 _atom_site_pbe_magmom
Al  Al0  1  0.49965059  0.49998795  0.49995493  1  2.504632  0  0.400096  1.649937  0  2.573606  0
Al  Al1  1  0.99961178  0.49994576  0.50004914  1  2.502875  0  0.396873  1.644066  0  2.577177  0
H  H2  1  0.20946584  0.64567499  0.43941486  1  0.627701  0  0.354084  0.434298  0  0.850157  0
H  H3  1  0.78958913  0.35429730  0.56056341  1  0.627532  0  0.354276  0.434083  0  0.850887  0
H  H4  1  0.76301485  0.12719610  0.47256660  1  0.142942  0  0.118276  0.148701  0  0.99852  0
H  H5  1  0.23626341  0.87275570  0.52735982  1  0.13925  0  0.118441  0.148678  0  0.998885  0
H  H6  1  0.54569061  0.56512817  0.26883615  1  0.126148  0  0.111219  0.12021  0  0.992587  0
H  H7  1  0.61217351  0.57129936  0.12482132  1  0.045221  0  0.105077  0.107501  0  1.000406  0
H  H8  1  0.21808523  0.41057529  0.26988454  1  0.093581  0  0.108753  0.119364  0  0.99805  0
H  H9  1  0.78186700  0.58920984  0.73038833  1  0.095896  0  0.108788  0.119116  0  0.998326  0
H  H10  1  0.45454888  0.43531214  0.73087131  1  0.12555  0  0.1111  0.120785  0  0.992866  0
H  H11  1  0.38907418  0.42933119  0.87483821  1  0.048119  0  0.104937  0.107667  0  1.000578  0
H  H12  1  0.46538017  0.35796587  0.15420866  1  0.044139  0  0.093711  0.132469  0  1.001685  0
H  H13  1  0.35490008  0.30943413  0.08553204  1  0.065361  0  0.096069  0.135233  0  0.985014  0
H  H14  1  0.39903580  0.46105774  0.06928710  1  0.016061  0  0.090897  0.124373  0  1.011971  0
H  H15  1  0.60184655  0.53878574  0.93089078  1  0.058145  0  0.090787  0.124382  0  1.011857  0
H  H16  1  0.64592628  0.69045279  0.91470953  1  0.063744  0  0.095973  0.135215  0  0.984616  0
H  H17  1  0.53531740  0.64198877  0.84603117  1  0.048708  0  0.09331  0.131321  0  1.002829  0
C  C18  1  0.83891140  0.49410285  0.36218811  1  1.582842  0  0.262816  0.633114  0  4.104521  0
C  C19  1  0.63427633  0.72646286  0.49718474  1  1.629957  0  0.273448  0.659236  0  4.087162  0
C  C20  1  0.16051896  0.50580813  0.63783382  1  1.578451  0  0.26372  0.63491  0  4.103043  0
C  C21  1  0.36499528  0.27349310  0.50280304  1  1.627543  0  0.273413  0.659805  0  4.085333  0
C  C22  1  0.57032895  0.86673713  0.49793645  1  0.03893  0  -0.010201  -0.115842  0  3.954096  0
C  C23  1  0.42896967  0.13320833  0.50203159  1  -0.064023  0  -0.010175  -0.11696  0  3.954381  0
C  C24  1  0.71470133  0.94212864  0.48249034  1  0.405121  0  0.107045  0.270128  0  4.03087  0
C  C25  1  0.28456167  0.05784570  0.51743658  1  0.408339  0  0.106928  0.271067  0  4.027505  0
C  C26  1  0.64688249  0.07172853  0.48446173  1  0.169474  0  -0.085849  -0.201351  0  3.974144  0
C  C27  1  0.35238520  0.92824302  0.51545383  1  0.062009  0  -0.085624  -0.201347  0  3.972663  0
C  C28  1  0.87895537  0.48911388  0.27724272  1  -0.009431  0  -0.016492  -0.03593  0  3.994253  0
C  C29  1  0.70658155  0.53256910  0.23683190  1  -0.125953  0  -0.085515  -0.102241  0  4.004364  0
C  C30  1  0.74367179  0.53489666  0.15721571  1  0.033785  0  -0.084586  -0.124884  0  3.986434  0
C  C31  1  0.95257379  0.49074999  0.11649474  1  0.109743  0  -0.001092  0.0757  0  4.081608  0
C  C32  1  0.12743281  0.44197494  0.15734527  1  -0.017464  0  0.000588  0.133558  0  3.925263  0
C  C33  1  0.08670360  0.44432205  0.23716952  1  -0.024915  0  -0.083501  -0.159996  0  3.941622  0
C  C34  1  0.98624228  0.49658138  0.03519931  1  -0.534833  0  -0.040405  -0.097556  0  4.129511  0
C  C35  1  0.01508358  0.50372365  0.96475227  1  0.109302  0  -0.040316  -0.098313  0  4.129617  0
C  C36  1  0.04844232  0.50949093  0.88345965  1  0.096711  0  -0.001277  0.0756  0  4.081838  0
C  C37  1  0.87324771  0.55803633  0.84276115  1  -0.016463  0  0.0008  0.132825  0  3.926408  0
C  C38  1  0.91352801  0.55563529  0.76296015  1  -0.024336  0  -0.083402  -0.158276  0  3.941429  0
C  C39  1  0.12110111  0.51092605  0.72274329  1  -0.00928  0  -0.016917  -0.037634  0  3.996091  0
C  C40  1  0.29380350  0.46774860  0.76299038  1  -0.09922  0  -0.085139  -0.102548  0  4.006798  0
C  C41  1  0.25724029  0.46555081  0.84258037  1  0.008764  0  -0.084454  -0.124786  0  3.987771  0
C  C42  1  0.34878010  0.38978934  0.11483705  1  -0.04665  0  -0.236244  -0.412158  0  3.9871  0
C  C43  1  0.65201249  0.61012226  0.88536865  1  -0.089504  0  -0.235617  -0.410823  0  3.987187  0
O  O44  1  0.64360586  0.52048296  0.39545596  1  -1.271798  0  -0.240962  -0.607363  0  2.364493  0
O  O45  1  0.83238166  0.67131707  0.48376621  1  -1.244468  0  -0.230095  -0.591906  0  2.376478  0
O  O46  1  0.99943279  0.52478430  0.60491622  1  -1.254144  0  -0.239077  -0.588106  0  2.32227  0
O  O47  1  0.51590116  0.32727969  0.48997709  1  -1.254655  0  -0.228841  -0.574942  0  2.317872  0
O  O48  1  0.35570539  0.47945296  0.60443666  1  -1.269797  0  -0.241261  -0.608298  0  2.365454  0
O  O49  1  0.16688331  0.32862438  0.51632483  1  -1.245167  0  -0.229607  -0.591484  0  2.376504  0
O  O50  1  0.99982947  0.47503593  0.39522293  1  -1.256425  0  -0.238491  -0.587719  0  2.32401  0
O  O51  1  0.48338709  0.67268550  0.50991440  1  -1.2554  0  -0.228664  -0.574386  0  2.319531  0
O  O52  1  0.24151259  0.55864792  0.46348347  1  -1.429661  0  -0.448819  -0.995305  0  2.196043  0
O  O53  1  0.75761968  0.44134723  0.53653818  1  -1.429243  0  -0.449099  -0.99497  0  2.196882  0
F  F54  1  0.92887620  0.89055692  0.46428956  1  -0.6303  0  -0.08992  -0.134096  0  1.373276  0
F  F55  1  0.07039036  0.10941797  0.53560898  1  -0.633445  0  -0.089786  -0.134117  0  1.372358  0
