# generated using pymatgen
data_H8PbC7SO5
_symmetry_space_group_name_H-M   'P 1'
_cell_length_a   8.28585829
_cell_length_b   8.79969683
_cell_length_c   13.30704684
_cell_angle_alpha   105.23220223
_cell_angle_beta   90.00016171
_cell_angle_gamma   90.00005044
_symmetry_Int_Tables_number   1
_chemical_formula_structural   H8PbC7SO5
_chemical_formula_sum   'H32 Pb4 C28 S4 O20'
_cell_volume   936.17112759
_cell_formula_units_Z   4
loop_
 _symmetry_equiv_pos_site_id
 _symmetry_equiv_pos_as_xyz
  1  'x, y, z'
loop_
 _atom_site_type_symbol
 _atom_site_label
 _atom_site_symmetry_multiplicity
 _atom_site_fract_x
 _atom_site_fract_y
 _atom_site_fract_z
 _atom_site_occupancy
 _atom_site_hle17_bader_spin_density
 _atom_site_hle17_ddec_charge
 _atom_site_hle17_ddec_spin_density
 _atom_site_hle17_ddec_sum_bond_order
 _atom_site_hle17_magmom
 _atom_site_hse06_10hf_bader_spin_density
 _atom_site_hse06_10hf_ddec_charge
 _atom_site_hse06_10hf_ddec_spin_density
 _atom_site_hse06_10hf_ddec_sum_bond_order
 _atom_site_hse06_10hf_magmom
 _atom_site_hse06_bader_spin_density
 _atom_site_hse06_ddec_charge
 _atom_site_hse06_ddec_spin_density
 _atom_site_hse06_ddec_sum_bond_order
 _atom_site_hse06_magmom
 _atom_site_pbe_bader_spin_density
 _atom_site_pbe_cm5_charge
 _atom_site_pbe_ddec_charge
 _atom_site_pbe_ddec_spin_density
 _atom_site_pbe_ddec_sum_bond_order
 _atom_site_pbe_magmom
H  H0  1  0.51125999  0.37478850  0.33940007  1  0  0.421036  0  0.884195  0  0  0.390735  0  0.947113  0  0  0.401511  0  0.931444  0  0  0.296015  0.383129  0  0.95813  0
H  H1  1  0.01126050  0.12521536  0.66059942  1  0  0.421036  0  0.884202  0  0  0.390734  0  0.947121  0  0  0.401509  0  0.931454  0  0  0.296008  0.383128  0  0.958138  0
H  H2  1  0.48874053  0.62521448  0.66059932  1  0  0.421056  0  0.884164  0  0  0.390752  0  0.94709  0  0  0.401528  0  0.931421  0  0  0.296011  0.383149  0  0.9581  0
H  H3  1  0.98874002  0.87478644  0.33939900  1  0  0.42102  0  0.884218  0  0  0.39072  0  0.947139  0  0  0.401492  0  0.931475  0  0  0.295994  0.383114  0  0.958152  0
H  H4  1  0.51381862  0.22630339  0.39294912  1  0  0.434472  0  0.869589  0  0  0.397844  0  0.942131  0  0  0.410582  0  0.923963  0  0  0.288792  0.388806  0  0.954947  0
H  H5  1  0.01381902  0.27369695  0.60704899  1  0  0.434462  0  0.869607  0  0  0.397848  0  0.942124  0  0  0.410583  0  0.923959  0  0  0.288804  0.388803  0  0.954948  0
H  H6  1  0.48618070  0.77369841  0.60704930  1  0  0.434463  0  0.869594  0  0  0.397843  0  0.942126  0  0  0.410581  0  0.923957  0  0  0.288785  0.388811  0  0.954939  0
H  H7  1  0.98618271  0.72630250  0.39294902  1  0  0.434489  0  0.869568  0  0  0.397864  0  0.942108  0  0  0.410601  0  0.92394  0  0  0.288809  0.388823  0  0.954925  0
H  H8  1  0.94706693  0.08725482  0.10996353  1  0  0.104642  0  0.966076  0  0  0.115022  0  1.029268  0  0  0.117604  0  1.028137  0  0  0.105609  0.113163  0  1.030083  0
H  H9  1  0.44706151  0.41274153  0.89003387  1  0  0.104648  0  0.966099  0  0  0.115042  0  1.029285  0  0  0.117622  0  1.028148  0  0  0.105625  0.113185  0  1.030095  0
H  H10  1  0.05293118  0.91274464  0.89003372  1  0  0.104628  0  0.966026  0  0  0.115023  0  1.02923  0  0  0.117602  0  1.028093  0  0  0.105593  0.113163  0  1.030042  0
H  H11  1  0.55293539  0.58725437  0.10996500  1  0  0.104657  0  0.966071  0  0  0.115051  0  1.029252  0  0  0.117634  0  1.028116  0  0  0.105596  0.113187  0  1.030067  0
H  H12  1  0.85638719  0.53426055  0.04680188  1  0  0.085325  0  0.973129  0  0  0.098366  0  1.034315  0  0  0.10023  0  1.03397  0  0  0.0999  0.096949  0  1.03467  0
H  H13  1  0.35639055  0.96573894  0.95319821  1  0  0.085315  0  0.973181  0  0  0.098357  0  1.034364  0  0  0.100224  0  1.034015  0  0  0.099931  0.096942  0  1.03472  0
H  H14  1  0.14360367  0.46574115  0.95320479  1  0  0.085356  0  0.973207  0  0  0.098439  0  1.034344  0  0  0.100272  0  1.034036  0  0  0.099931  0.097019  0  1.034707  0
H  H15  1  0.64361359  0.03426167  0.04680151  1  0  0.08534  0  0.973067  0  0  0.098351  0  1.034293  0  0  0.100232  0  1.033929  0  0  0.099897  0.096934  0  1.034653  0
H  H16  1  0.89986295  0.66798343  0.23005632  1  0  0.105529  0  0.961548  0  0  0.118784  0  1.019782  0  0  0.121814  0  1.018758  0  0  0.103631  0.116563  0  1.020776  0
H  H17  1  0.39986656  0.83201494  0.76994516  1  0  0.10552  0  0.961584  0  0  0.118796  0  1.019799  0  0  0.12181  0  1.018796  0  0  0.103639  0.116584  0  1.020781  0
H  H18  1  0.10013757  0.33201238  0.76995006  1  0  0.105531  0  0.961565  0  0  0.1188  0  1.019792  0  0  0.121827  0  1.018771  0  0  0.103634  0.116577  0  1.020789  0
H  H19  1  0.60013638  0.16798566  0.23005456  1  0  0.105506  0  0.961605  0  0  0.118782  0  1.019824  0  0  0.121796  0  1.018821  0  0  0.103637  0.11657  0  1.020805  0
H  H20  1  0.80269995  0.11236140  0.93703919  1  0  0.105014  0  0.95277  0  0  0.126055  0  1.015632  0  0  0.127307  0  1.015403  0  0  0.088411  0.125107  0  1.015838  0
H  H21  1  0.30269920  0.38763586  0.06296038  1  0  0.105021  0  0.952814  0  0  0.126064  0  1.015669  0  0  0.127318  0  1.015436  0  0  0.088412  0.125119  0  1.015872  0
H  H22  1  0.19729212  0.88763917  0.06296353  1  0  0.105047  0  0.952795  0  0  0.126084  0  1.015655  0  0  0.127339  0  1.015421  0  0  0.088429  0.125138  0  1.015859  0
H  H23  1  0.69730012  0.61236242  0.93703592  1  0  0.105016  0  0.952801  0  0  0.126062  0  1.015656  0  0  0.127315  0  1.015427  0  0  0.088414  0.125115  0  1.015861  0
H  H24  1  0.99184508  0.18282520  0.90926009  1  0  0.116809  0  0.950717  0  0  0.139167  0  1.010124  0  0  0.140104  0  1.010542  0  0  0.090775  0.13842  0  1.009897  0
H  H25  1  0.49184560  0.31717476  0.09073804  1  0  0.116799  0  0.950743  0  0  0.139181  0  1.010113  0  0  0.140115  0  1.01054  0  0  0.090789  0.138441  0  1.009879  0
H  H26  1  0.00814820  0.81717656  0.09074209  1  0  0.116792  0  0.950692  0  0  0.139099  0  1.010148  0  0  0.140032  0  1.010573  0  0  0.09076  0.138357  0  1.009919  0
H  H27  1  0.50815251  0.68282823  0.90925985  1  0  0.1168  0  0.950692  0  0  0.139159  0  1.010098  0  0  0.140094  0  1.010524  0  0  0.090769  0.138413  0  1.00987  0
H  H28  1  0.81684093  0.29707510  0.90780509  1  0  0.110099  0  0.946498  0  0  0.130383  0  1.008248  0  0  0.131713  0  1.008361  0  0  0.08896  0.129368  0  1.008227  0
H  H29  1  0.31684014  0.20292219  0.09219376  1  0  0.110196  0  0.946425  0  0  0.130447  0  1.008217  0  0  0.131782  0  1.008325  0  0  0.088978  0.129433  0  1.008193  0
H  H30  1  0.18315114  0.70292431  0.09219591  1  0  0.110088  0  0.946554  0  0  0.130346  0  1.008328  0  0  0.131668  0  1.00845  0  0  0.08893  0.129333  0  1.008304  0
H  H31  1  0.68315917  0.79708314  0.90780530  1  0  0.110116  0  0.946437  0  0  0.13041  0  1.008189  0  0  0.131759  0  1.008282  0  0  0.088961  0.129396  0  1.00817  0
Pb  Pb32  1  0.76203470  0.49992349  0.51054650  1  0  1.461513  0  1.340494  0  0  1.289822  0  1.722107  0  0  1.348202  0  1.676445  0  0  0.664614  1.247379  0  1.754126  0
Pb  Pb33  1  0.26203793  0.00007727  0.48945137  1  0  1.461545  0  1.34045  0  0  1.289857  0  1.722062  0  0  1.348231  0  1.676399  0  0  0.664618  1.247407  0  1.754064  0
Pb  Pb34  1  0.23796462  0.50007832  0.48945193  1  0  1.461545  0  1.340429  0  0  1.289857  0  1.722033  0  0  1.348235  0  1.676373  0  0  0.664625  1.247409  0  1.754045  0
Pb  Pb35  1  0.73796138  0.99992216  0.51054813  1  0  1.46151  0  1.340481  0  0  1.289819  0  1.7221  0  0  1.348195  0  1.676435  0  0  0.664607  1.247374  0  1.75412  0
C  C36  1  0.96382600  0.29123973  0.23933520  1  0  -0.260533  0  3.747717  0  0  -0.236172  0  4.005881  0  0  -0.248751  0  4.026924  0  0  -0.041949  -0.227929  0  3.991799  0
C  C37  1  0.46382583  0.20875780  0.76066470  1  0  -0.260503  0  3.747673  0  0  -0.236121  0  4.005833  0  0  -0.248702  0  4.026881  0  0  -0.041931  -0.227882  0  3.991759  0
C  C38  1  0.03617453  0.70875847  0.76066859  1  0  -0.260538  0  3.747766  0  0  -0.236151  0  4.005921  0  0  -0.248735  0  4.026978  0  0  -0.041931  -0.227916  0  3.991847  0
C  C39  1  0.53617590  0.79124045  0.23933460  1  0  -0.260494  0  3.747623  0  0  -0.236115  0  4.005798  0  0  -0.248694  0  4.026843  0  0  -0.041916  -0.227875  0  3.991716  0
C  C40  1  0.93866237  0.21520446  0.13412473  1  0  -0.103964  0  3.746459  0  0  -0.134853  0  3.990381  0  0  -0.132802  0  4.011381  0  0  -0.08943  -0.135902  0  3.976066  0
C  C41  1  0.43865671  0.28479536  0.86587704  1  0  -0.104059  0  3.746562  0  0  -0.135014  0  3.990532  0  0  -0.132956  0  4.011522  0  0  -0.089499  -0.136053  0  3.976208  0
C  C42  1  0.06133574  0.78479729  0.86587820  1  0  -0.103938  0  3.746549  0  0  -0.134927  0  3.990482  0  0  -0.132866  0  4.011475  0  0  -0.08947  -0.135967  0  3.976158  0
C  C43  1  0.56134381  0.71520169  0.13412355  1  0  -0.104005  0  3.746421  0  0  -0.13495  0  3.990359  0  0  -0.132898  0  4.011355  0  0  -0.089449  -0.135987  0  3.976032  0
C  C44  1  0.90059980  0.30015196  0.06219740  1  0  0.111599  0  3.777095  0  0  0.138772  0  4.017017  0  0  0.135407  0  4.043367  0  0  -0.022473  0.140741  0  3.99916  0
C  C45  1  0.40059801  0.19984664  0.93780333  1  0  0.111718  0  3.777061  0  0  0.13894  0  4.016924  0  0  0.135575  0  4.043274  0  0  -0.022396  0.140905  0  3.999072  0
C  C46  1  0.09939710  0.69985098  0.93780499  1  0  0.111456  0  3.777188  0  0  0.138783  0  4.016912  0  0  0.13542  0  4.043246  0  0  -0.022499  0.140751  0  3.99906  0
C  C47  1  0.59940130  0.80015517  0.06219510  1  0  0.11153  0  3.77719  0  0  0.138768  0  4.017025  0  0  0.135402  0  4.043382  0  0  -0.022453  0.140734  0  3.999171  0
C  C48  1  0.88826811  0.46411512  0.10031771  1  0  -0.091482  0  3.755377  0  0  -0.114239  0  4.004988  0  0  -0.112484  0  4.025355  0  0  -0.087889  -0.115024  0  3.991096  0
C  C49  1  0.38827083  0.03588112  0.89968033  1  0  -0.091469  0  3.755365  0  0  -0.114235  0  4.004967  0  0  -0.112481  0  4.025328  0  0  -0.087905  -0.115026  0  3.991083  0
C  C50  1  0.11172759  0.53588192  0.89968362  1  0  -0.091478  0  3.755308  0  0  -0.114305  0  4.004896  0  0  -0.112525  0  4.025273  0  0  -0.087876  -0.115089  0  3.991008  0
C  C51  1  0.61172728  0.96411597  0.10031726  1  0  -0.091434  0  3.755444  0  0  -0.114178  0  4.005024  0  0  -0.112436  0  4.025382  0  0  -0.08788  -0.11497  0  3.991146  0
C  C52  1  0.91484499  0.54081782  0.20441573  1  0  -0.179285  0  3.724362  0  0  -0.200688  0  3.986515  0  0  -0.20765  0  4.005379  0  0  -0.110769  -0.19622  0  3.973929  0
C  C53  1  0.41484883  0.95917943  0.79558257  1  0  -0.179331  0  3.724387  0  0  -0.200758  0  3.986536  0  0  -0.207708  0  4.005403  0  0  -0.110796  -0.196286  0  3.973939  0
C  C54  1  0.08515192  0.45917925  0.79558336  1  0  -0.179346  0  3.724397  0  0  -0.200783  0  3.98658  0  0  -0.207741  0  4.005434  0  0  -0.110802  -0.196306  0  3.97399  0
C  C55  1  0.58515531  0.04082001  0.20441544  1  0  -0.179312  0  3.72445  0  0  -0.200728  0  3.986587  0  0  -0.207679  0  4.005463  0  0  -0.110795  -0.196262  0  3.973994  0
C  C56  1  0.95468649  0.45761231  0.27810097  1  0  0.347274  0  3.875061  0  0  0.322408  0  4.138459  0  0  0.338677  0  4.154627  0  0  0.073511  0.311373  0  4.127167  0
C  C57  1  0.45468720  0.04238756  0.72189934  1  0  0.347327  0  3.875141  0  0  0.322471  0  4.138517  0  0  0.338742  0  4.154677  0  0  0.073501  0.31143  0  4.127233  0
C  C58  1  0.04531645  0.54238945  0.72190121  1  0  0.34733  0  3.875369  0  0  0.322481  0  4.138752  0  0  0.338746  0  4.154927  0  0  0.073505  0.311441  0  4.127466  0
C  C59  1  0.54531332  0.95761306  0.27809888  1  0  0.347321  0  3.875058  0  0  0.322439  0  4.138471  0  0  0.338706  0  4.154637  0  0  0.073488  0.311397  0  4.127184  0
C  C60  1  0.87631582  0.21945237  0.94881977  1  0  -0.33163  0  3.727468  0  0  -0.413929  0  3.966727  0  0  -0.415685  0  3.977144  0  0  -0.242609  -0.412358  0  3.959569  0
C  C61  1  0.37631491  0.28054736  0.05118112  1  0  -0.331746  0  3.727501  0  0  -0.414057  0  3.96675  0  0  -0.415818  0  3.977165  0  0  -0.24266  -0.412492  0  3.959589  0
C  C62  1  0.12367747  0.78055054  0.05118487  1  0  -0.331515  0  3.727545  0  0  -0.413808  0  3.966775  0  0  -0.415559  0  3.977194  0  0  -0.24254  -0.412239  0  3.959593  0
C  C63  1  0.62368440  0.71945326  0.94881785  1  0  -0.33159  0  3.727426  0  0  -0.413935  0  3.966685  0  0  -0.415711  0  3.977091  0  0  -0.242596  -0.412361  0  3.959513  0
S  S64  1  0.99371441  0.17236846  0.32537200  1  0  1.347332  0  5.564087  0  0  1.242485  0  6.079028  0  0  1.292935  0  6.05576  0  0  0.527562  1.207532  0  6.093988  0
S  S65  1  0.49371758  0.32762676  0.67462755  1  0  1.347173  0  5.564159  0  0  1.242293  0  6.079135  0  0  1.29275  0  6.05587  0  0  0.527446  1.207325  0  6.094117  0
S  S66  1  0.00628853  0.82762743  0.67462763  1  0  1.34727  0  5.56387  0  0  1.242395  0  6.078834  0  0  1.292855  0  6.055564  0  0  0.527542  1.207448  0  6.09379  0
S  S67  1  0.50628415  0.67237148  0.32537250  1  0  1.347316  0  5.564145  0  0  1.242444  0  6.079107  0  0  1.292898  0  6.055844  0  0  0.52749  1.20749  0  6.094074  0
O  O68  1  0.15185367  0.21529140  0.37932756  1  0  -0.745622  0  1.998414  0  0  -0.670923  0  2.256372  0  0  -0.698486  0  2.242839  0  0  -0.320928  -0.6513  0  2.26508  0
O  O69  1  0.65185918  0.28470675  0.62067491  1  0  -0.74552  0  1.998393  0  0  -0.670842  0  2.256411  0  0  -0.698405  0  2.242877  0  0  -0.320901  -0.651216  0  2.265127  0
O  O70  1  0.84814806  0.78470568  0.62067077  1  0  -0.745599  0  1.998349  0  0  -0.670908  0  2.256329  0  0  -0.69847  0  2.242791  0  0  -0.320935  -0.65129  0  2.265049  0
O  O71  1  0.34814014  0.71528799  0.37932225  1  0  -0.745583  0  1.998465  0  0  -0.670896  0  2.256447  0  0  -0.698459  0  2.242913  0  0  -0.320918  -0.651272  0  2.265162  0
O  O72  1  0.50949085  0.34510019  0.40631177  1  0  -0.901777  0  1.926212  0  0  -0.829796  0  2.124787  0  0  -0.858271  0  2.093617  0  0  -0.552311  -0.809374  0  2.146411  0
O  O73  1  0.00949229  0.15490130  0.59368730  1  0  -0.901786  0  1.926231  0  0  -0.829833  0  2.124852  0  0  -0.858305  0  2.093683  0  0  -0.552318  -0.809402  0  2.146481  0
O  O74  1  0.49051088  0.65490279  0.59368687  1  0  -0.901785  0  1.926197  0  0  -0.829814  0  2.124764  0  0  -0.858286  0  2.093592  0  0  -0.552296  -0.809403  0  2.146367  0
O  O75  1  0.99051065  0.84510049  0.40631188  1  0  -0.901804  0  1.926214  0  0  -0.829821  0  2.124775  0  0  -0.858294  0  2.093608  0  0  -0.552305  -0.809396  0  2.146401  0
O  O76  1  0.85842505  0.20761253  0.40185542  1  0  -0.740137  0  2.017321  0  0  -0.667148  0  2.283346  0  0  -0.694899  0  2.271399  0  0  -0.319331  -0.647415  0  2.290978  0
O  O77  1  0.35843147  0.29238485  0.59814127  1  0  -0.740107  0  2.017364  0  0  -0.667095  0  2.283373  0  0  -0.694844  0  2.271425  0  0  -0.319268  -0.647357  0  2.291006  0
O  O78  1  0.14158150  0.79238926  0.59814376  1  0  -0.740138  0  2.017353  0  0  -0.66712  0  2.283345  0  0  -0.694869  0  2.271393  0  0  -0.31931  -0.647384  0  2.290969  0
O  O79  1  0.64157026  0.70761574  0.40185920  1  0  -0.740175  0  2.017386  0  0  -0.667139  0  2.283353  0  0  -0.69489  0  2.271406  0  0  -0.319282  -0.647409  0  2.290989  0
O  O80  1  0.99290076  0.00801574  0.26359536  1  0  -0.649989  0  1.978421  0  0  -0.589735  0  2.217985  0  0  -0.612141  0  2.204842  0  0  -0.317205  -0.573984  0  2.226539  0
O  O81  1  0.49290799  0.49198187  0.73640160  1  0  -0.650004  0  1.97845  0  0  -0.589721  0  2.217993  0  0  -0.612139  0  2.204852  0  0  -0.317198  -0.573959  0  2.226548  0
O  O82  1  0.00710097  0.99198370  0.73640340  1  0  -0.649982  0  1.978208  0  0  -0.589716  0  2.21776  0  0  -0.612139  0  2.20463  0  0  -0.317207  -0.573958  0  2.226309  0
O  O83  1  0.50709736  0.50801639  0.26359695  1  0  -0.649987  0  1.97835  0  0  -0.589743  0  2.217941  0  0  -0.612148  0  2.204784  0  0  -0.317197  -0.573983  0  2.226493  0
O  O84  1  0.97849600  0.53299852  0.37922902  1  0  -0.74624  0  2.074062  0  0  -0.652353  0  2.306744  0  0  -0.684903  0  2.302564  0  0  -0.322904  -0.629022  0  2.308783  0
O  O85  1  0.47850026  0.96700116  0.62077282  1  0  -0.74624  0  2.074075  0  0  -0.652375  0  2.306786  0  0  -0.684924  0  2.302601  0  0  -0.322868  -0.629048  0  2.30883  0
O  O86  1  0.02150815  0.46699846  0.62077756  1  0  -0.746205  0  2.074233  0  0  -0.652357  0  2.306951  0  0  -0.684903  0  2.30277  0  0  -0.322884  -0.629023  0  2.30899  0
O  O87  1  0.52150026  0.03299828  0.37922594  1  0  -0.746258  0  2.074052  0  0  -0.65237  0  2.306753  0  0  -0.684918  0  2.302569  0  0  -0.322858  -0.629034  0  2.308786  0
