# generated using pymatgen
data_AlH8C15O5F
_symmetry_space_group_name_H-M   'P 1'
_cell_length_a   6.64271034
_cell_length_b   15.45687766
_cell_length_c   17.75181757
_cell_angle_alpha   87.51202496
_cell_angle_beta   79.67432469
_cell_angle_gamma   76.15711944
_symmetry_Int_Tables_number   1
_chemical_formula_structural   AlH8C15O5F
_chemical_formula_sum   'Al2 H16 C30 O10 F2'
_cell_volume   1741.07752737
_cell_formula_units_Z   2
loop_
 _symmetry_equiv_pos_site_id
 _symmetry_equiv_pos_as_xyz
  1  'x, y, z'
loop_
 _atom_site_type_symbol
 _atom_site_label
 _atom_site_symmetry_multiplicity
 _atom_site_fract_x
 _atom_site_fract_y
 _atom_site_fract_z
 _atom_site_occupancy
 _atom_site_pbe_bader_charge
 _atom_site_pbe_bader_spin_density
 _atom_site_pbe_cm5_charge
 _atom_site_pbe_ddec_charge
 _atom_site_pbe_ddec_spin_density
 _atom_site_pbe_ddec_sum_bond_order
 _atom_site_pbe_magmom
Al  Al0  1  0.49998528  0.49996845  0.50000672  1  2.504628  0  0.400197  1.6466  0  2.573798  0
Al  Al1  1  0.99997513  0.49997638  0.49998580  1  2.504225  0  0.396336  1.645971  0  2.580635  0
H  H2  1  0.28037059  0.39851018  0.54987618  1  0.632325  0  0.352044  0.43136  0  0.855633  0
H  H3  1  0.71957423  0.60143997  0.45011593  1  0.633067  0  0.352016  0.431308  0  0.855807  0
H  H4  1  0.67454776  0.50605530  0.27105472  1  0.093854  0  0.110965  0.117063  0  1.000013  0
H  H5  1  0.74996645  0.50934112  0.12748338  1  0.082181  0  0.103058  0.103853  0  1.008648  0
H  H6  1  0.13451227  0.46669012  0.12237156  1  0.072171  0  0.103615  0.104079  0  1.006573  0
H  H7  1  0.06157933  0.46430610  0.26597085  1  0.104053  0  0.110019  0.115079  0  1.002739  0
H  H8  1  0.86557925  0.53358277  0.87754610  1  0.073177  0  0.103965  0.104874  0  1.006043  0
H  H9  1  0.93838849  0.53583727  0.73394780  1  0.102517  0  0.109921  0.114992  0  1.002823  0
H  H10  1  0.32551779  0.49391012  0.72901559  1  0.094483  0  0.111168  0.117381  0  1.000299  0
H  H11  1  0.25019606  0.49075534  0.87259169  1  0.082705  0  0.103294  0.10397  0  1.008287  0
H  H12  1  0.72990617  0.93948805  0.46687038  1  0.073986  0  0.108218  0.125837  0  1.015864  0
H  H13  1  0.27006372  0.06045793  0.53311679  1  0.07405  0  0.108162  0.1258  0  1.016138  0
H  H14  1  0.60356251  0.23247482  0.46034476  1  0.118467  0  0.111868  0.118716  0  1.000314  0
H  H15  1  0.67436022  0.06940853  0.46170402  1  0.046661  0  0.101532  0.103186  0  1.019188  0
H  H16  1  0.39641706  0.76747394  0.53966357  1  0.119229  0  0.111924  0.118839  0  1.00021  0
H  H17  1  0.32560762  0.93054233  0.53830842  1  0.047511  0  0.101527  0.103231  0  1.019196  0
C  C18  1  0.83634292  0.33909004  0.49420099  1  1.610541  0  0.270058  0.660012  0  4.096299  0
C  C19  1  0.68565596  0.50938575  0.63826409  1  1.525851  0  0.262622  0.632028  0  4.113501  0
C  C20  1  0.16362902  0.66084676  0.50580166  1  1.607687  0  0.270095  0.660413  0  4.095753  0
C  C21  1  0.31430407  0.49058227  0.36173122  1  1.525004  0  0.26271  0.632331  0  4.113496  0
C  C22  1  0.36303933  0.48602480  0.27649145  1  0.012521  0  -0.014574  -0.04423  0  3.970672  0
C  C23  1  0.55846917  0.49736679  0.23753488  1  0.011033  0  -0.07815  -0.084392  0  3.979259  0
C  C24  1  0.59985275  0.49921109  0.15811310  1  -0.065194  0  -0.083087  -0.128251  0  3.950606  0
C  C25  1  0.44581509  0.48968979  0.11558538  1  0.019514  0  0.002413  0.143168  0  4.11426  0
C  C26  1  0.25199898  0.47546978  0.15519357  1  0.037164  0  -0.082816  -0.127375  0  3.946305  0
C  C27  1  0.21149749  0.47392133  0.23467390  1  -0.067649  0  -0.079083  -0.085822  0  3.983155  0
C  C28  1  0.48391881  0.49615664  0.03481118  1  -0.477279  0  -0.043086  -0.105563  0  4.118327  0
C  C29  1  0.51627756  0.50408577  0.96518506  1  0.175375  0  -0.042953  -0.105779  0  4.118644  0
C  C30  1  0.55431710  0.51050248  0.88440916  1  0.018037  0  0.002068  0.142776  0  4.115047  0
C  C31  1  0.74809852  0.52473164  0.84476072  1  0.035815  0  -0.082872  -0.128057  0  3.945881  0
C  C32  1  0.78853279  0.52620333  0.76527278  1  -0.069026  0  -0.079152  -0.08579  0  3.983158  0
C  C33  1  0.63697822  0.51400602  0.72350376  1  0.012215  0  -0.014358  -0.043597  0  3.969899  0
C  C34  1  0.44159046  0.50266153  0.76250708  1  0.013025  0  -0.078368  -0.085273  0  3.979734  0
C  C35  1  0.40029553  0.50088780  0.84192679  1  -0.063839  0  -0.083341  -0.127896  0  3.951346  0
C  C36  1  0.10718409  0.76018977  0.50604802  1  -0.024968  0  -0.019389  -0.157752  0  3.954865  0
C  C37  1  0.89280930  0.23974687  0.49395033  1  -0.02706  0  -0.019492  -0.158045  0  3.954826  0
C  C38  1  0.92002667  0.81268094  0.48660550  1  0.399303  0  0.110929  0.292808  0  4.032218  0
C  C39  1  0.87753355  0.90494884  0.48406567  1  0.103359  0  -0.100895  -0.2636  0  3.972405  0
C  C40  1  0.07996562  0.18726111  0.51340282  1  0.399789  0  0.111084  0.293253  0  4.032318  0
C  C41  1  0.12244032  0.09499591  0.51593535  1  0.103453  0  -0.100972  -0.263784  0  3.972743  0
C  C42  1  0.75031303  0.19330650  0.47547933  1  -0.07487  0  -0.072871  -0.053617  0  3.980295  0
C  C43  1  0.79120767  0.10103802  0.47698090  1  0.042769  0  -0.094433  -0.149132  0  3.978859  0
C  C44  1  0.24966291  0.80663767  0.52453341  1  -0.077298  0  -0.07313  -0.053898  0  3.979856  0
C  C45  1  0.20875576  0.89891556  0.52303566  1  0.042675  0  -0.094332  -0.149271  0  3.977916  0
C  C46  1  0.02194758  0.95070058  0.50189807  1  0.037286  0  0.003479  0.105955  0  3.98488  0
C  C47  1  0.97800707  0.04924899  0.49811084  1  -0.033082  0  0.003406  0.105455  0  3.985257  0
O  O48  1  0.65025734  0.37694739  0.48437100  1  -1.258211  0  -0.231324  -0.582485  0  2.322955  0
O  O49  1  0.86644023  0.51885391  0.60579823  1  -1.260955  0  -0.237509  -0.588737  0  2.339477  0
O  O50  1  0.02497373  0.62092414  0.49475616  1  -1.252215  0  -0.23138  -0.593659  0  2.372568  0
O  O51  1  0.45600332  0.50612348  0.39560179  1  -1.267042  0  -0.240136  -0.602117  0  2.356382  0
O  O52  1  0.34971864  0.62299681  0.51564455  1  -1.258449  0  -0.231423  -0.582594  0  2.322664  0
O  O53  1  0.13352190  0.48109465  0.39417471  1  -1.260321  0  -0.237636  -0.588935  0  2.339287  0
O  O54  1  0.97501307  0.37901574  0.50522728  1  -1.253187  0  -0.231443  -0.593334  0  2.372391  0
O  O55  1  0.54392288  0.49383097  0.60441508  1  -1.267497  0  -0.240131  -0.60224  0  2.356264  0
O  O56  1  0.25636105  0.46012376  0.53316525  1  -1.432762  0  -0.449168  -0.993082  0  2.197973  0
O  O57  1  0.74357917  0.53982385  0.46683743  1  -1.433646  0  -0.448973  -0.992842  0  2.198069  0
F  F58  1  0.77043707  0.77492123  0.46775656  1  -0.633986  0  -0.091099  -0.139578  0  1.366195  0
F  F59  1  0.22957071  0.22501393  0.53223240  1  -0.63317  0  -0.09112  -0.13961  0  1.366232  0
