# generated using pymatgen
data_CdH9C12(NO)4
_symmetry_space_group_name_H-M   'P 1'
_cell_length_a   10.57808773
_cell_length_b   11.58096419
_cell_length_c   11.98710000
_cell_angle_alpha   110.19397947
_cell_angle_beta   90.00000000
_cell_angle_gamma   90.00000000
_symmetry_Int_Tables_number   1
_chemical_formula_structural   CdH9C12(NO)4
_chemical_formula_sum   'Cd4 H36 C48 N16 O16'
_cell_volume   1378.20508399
_cell_formula_units_Z   4
loop_
 _symmetry_equiv_pos_site_id
 _symmetry_equiv_pos_as_xyz
  1  'x, y, z'
loop_
 _atom_site_type_symbol
 _atom_site_label
 _atom_site_symmetry_multiplicity
 _atom_site_fract_x
 _atom_site_fract_y
 _atom_site_fract_z
 _atom_site_occupancy
 _atom_site_hle17_bader_spin_density
 _atom_site_hle17_ddec_charge
 _atom_site_hle17_ddec_spin_density
 _atom_site_hle17_ddec_sum_bond_order
 _atom_site_hle17_magmom
 _atom_site_hse06_10hf_bader_spin_density
 _atom_site_hse06_10hf_ddec_charge
 _atom_site_hse06_10hf_ddec_spin_density
 _atom_site_hse06_10hf_ddec_sum_bond_order
 _atom_site_hse06_10hf_magmom
 _atom_site_hse06_bader_spin_density
 _atom_site_hse06_ddec_charge
 _atom_site_hse06_ddec_spin_density
 _atom_site_hse06_ddec_sum_bond_order
 _atom_site_hse06_magmom
 _atom_site_pbe_bader_charge
 _atom_site_pbe_bader_spin_density
 _atom_site_pbe_cm5_charge
 _atom_site_pbe_ddec_charge
 _atom_site_pbe_ddec_spin_density
 _atom_site_pbe_ddec_sum_bond_order
 _atom_site_pbe_magmom
Cd  Cd0  1  0.03112944  0.81986927  0.93704044  1  0  1.094613  0  1.767591  0  0  0.890258  0  2.222211  0  0  0.943862  0  2.174297  0  1.264204  0  0.791739  0.851905  0  2.255039  0
Cd  Cd1  1  0.53112908  0.68013060  0.56295918  1  0  1.094638  0  1.767586  0  0  0.890283  0  2.222205  0  0  0.943886  0  2.174291  0  1.26421  0  0.791751  0.851931  0  2.255033  0
Cd  Cd2  1  0.96887077  0.18013034  0.06295893  1  0  1.094628  0  1.767574  0  0  0.890281  0  2.222185  0  0  0.943885  0  2.17427  0  1.264211  0  0.791746  0.851929  0  2.255013  0
Cd  Cd3  1  0.46887113  0.31986901  0.43704102  1  0  1.094629  0  1.767563  0  0  0.890273  0  2.222172  0  0  0.943879  0  2.174256  0  1.264212  0  0.791749  0.851921  0  2.254998  0
H  H4  1  0.25065589  0.60400636  0.70838175  1  0  0.07766  0  0.955794  0  0  0.083327  0  1.027556  0  0  0.085186  0  1.025984  0  0.125691  0  0.122956  0.082002  0  1.028642  0
H  H5  1  0.75065647  0.89599351  0.79161788  1  0  0.077656  0  0.955801  0  0  0.083321  0  1.027563  0  0  0.085181  0  1.025988  0  0.125692  0  0.122956  0.081996  0  1.028649  0
H  H6  1  0.74934338  0.39599325  0.29161762  1  0  0.077655  0  0.95587  0  0  0.083355  0  1.027596  0  0  0.085198  0  1.026044  0  0.12568  0  0.122965  0.082028  0  1.028686  0
H  H7  1  0.24934280  0.10400610  0.20838149  1  0  0.07764  0  0.955829  0  0  0.08332  0  1.027581  0  0  0.085176  0  1.026012  0  0.125689  0  0.122953  0.081996  0  1.028665  0
H  H8  1  0.44039812  0.88284428  0.23129242  1  0  0.122867  0  0.992552  0  0  0.130702  0  1.054915  0  0  0.133991  0  1.052816  0  0.169361  0  0.12086  0.128203  0  1.056687  0
H  H9  1  0.94039776  0.61715560  0.26870720  1  0  0.122876  0  0.992554  0  0  0.130707  0  1.054922  0  0  0.133998  0  1.052821  0  0.169366  0  0.120861  0.128209  0  1.056693  0
H  H10  1  0.55960209  0.11715625  0.76870725  1  0  0.122866  0  0.99256  0  0  0.130698  0  1.054927  0  0  0.133988  0  1.052827  0  0.169392  0  0.120858  0.1282  0  1.056697  0
H  H11  1  0.05960246  0.38284401  0.73129300  1  0  0.122873  0  0.992545  0  0  0.130708  0  1.054909  0  0  0.134  0  1.052808  0  0.16937  0  0.120863  0.128211  0  1.056679  0
H  H12  1  0.32069880  0.97110019  0.42988879  1  0  0.111453  0  0.92409  0  0  0.124011  0  0.986304  0  0  0.125785  0  0.984586  0  0.144853  0  0.117546  0.122655  0  0.987571  0
H  H13  1  0.82069749  0.52889877  0.07011136  1  0  0.11146  0  0.92408  0  0  0.124018  0  0.986287  0  0  0.12581  0  0.984581  0  0.144868  0  0.117557  0.122661  0  0.987555  0
H  H14  1  0.67930236  0.02889943  0.57011058  1  0  0.111476  0  0.924045  0  0  0.124032  0  0.986246  0  0  0.125819  0  0.984537  0  0.144867  0  0.117565  0.122676  0  0.987514  0
H  H15  1  0.17930178  0.47110084  0.92988884  1  0  0.111477  0  0.924061  0  0  0.124024  0  0.986271  0  0  0.125822  0  0.984567  0  0.144862  0  0.117554  0.122668  0  0.987539  0
H  H16  1  0.26924526  0.81909276  0.41226512  1  0  0.096023  0  0.940651  0  0  0.106097  0  1.008855  0  0  0.107803  0  1.006923  0  0.113579  0  0.108957  0.104799  0  1.010282  0
H  H17  1  0.76924490  0.68090712  0.08773451  1  0  0.096011  0  0.94065  0  0  0.106077  0  1.008861  0  0  0.107797  0  1.006936  0  0.113581  0  0.108946  0.104779  0  1.010288  0
H  H18  1  0.73075401  0.18090777  0.58773540  1  0  0.09601  0  0.940646  0  0  0.106078  0  1.008854  0  0  0.107791  0  1.006926  0  0.113591  0  0.108944  0.104778  0  1.010284  0
H  H19  1  0.23075437  0.31909249  0.91226486  1  0  0.096024  0  0.940639  0  0  0.106086  0  1.00885  0  0  0.107812  0  1.006927  0  0.113589  0  0.108943  0.104787  0  1.01028  0
H  H20  1  0.04164741  0.85106052  0.22720108  1  0  0.101416  0  0.947891  0  0  0.108914  0  1.013982  0  0  0.111445  0  1.011244  0  0.176921  0  0.13544  0.106943  0  1.016187  0
H  H21  1  0.54164705  0.64893935  0.27279854  1  0  0.101412  0  0.947903  0  0  0.108912  0  1.013993  0  0  0.111443  0  1.011256  0  0.176913  0  0.135439  0.106942  0  1.016198  0
H  H22  1  0.95835280  0.14893909  0.77279829  1  0  0.101384  0  0.947913  0  0  0.108874  0  1.014014  0  0  0.111405  0  1.011276  0  0.176923  0  0.135422  0.106904  0  1.01622  0
H  H23  1  0.45835222  0.35106026  0.72720166  1  0  0.101401  0  0.947874  0  0  0.108896  0  1.013979  0  0  0.111427  0  1.011241  0  0.176918  0  0.135435  0.106925  0  1.016186  0
H  H24  1  0.12934096  0.11607888  0.40209005  1  0  0.085507  0  0.962804  0  0  0.096579  0  1.027255  0  0  0.098887  0  1.026716  0  0.046055  0  0.098495  0.094871  0  1.027744  0
H  H25  1  0.62933965  0.38392046  0.09790990  1  0  0.085479  0  0.962855  0  0  0.096569  0  1.027287  0  0  0.098877  0  1.026747  0  0.046052  0  0.098495  0.094861  0  1.027776  0
H  H26  1  0.87065926  0.88392073  0.59791015  1  0  0.085508  0  0.962793  0  0  0.096579  0  1.027251  0  0  0.098886  0  1.026711  0  0.046006  0  0.098497  0.094871  0  1.027739  0
H  H27  1  0.37066057  0.61608007  0.90209061  1  0  0.085464  0  0.962862  0  0  0.096554  0  1.027297  0  0  0.098861  0  1.026757  0  0.04607  0  0.098491  0.09484  0  1.027791  0
H  H28  1  0.07909842  0.80203979  0.51062974  1  0  0.095005  0  0.941473  0  0  0.109317  0  0.995081  0  0  0.111954  0  0.99469  0  0.048068  0  0.101801  0.107358  0  0.995543  0
H  H29  1  0.57909900  0.69796101  0.98937186  1  0  0.095014  0  0.941436  0  0  0.109304  0  0.995071  0  0  0.111937  0  0.994678  0  0.048067  0  0.101804  0.107346  0  0.995531  0
H  H30  1  0.92090274  0.19796074  0.48937077  1  0  0.095035  0  0.941499  0  0  0.109353  0  0.995094  0  0  0.111992  0  0.994702  0  0.048089  0  0.101806  0.107395  0  0.995556  0
H  H31  1  0.42090122  0.30203952  0.01062948  1  0  0.095039  0  0.941518  0  0  0.109338  0  0.995134  0  0  0.111972  0  0.994741  0  0.048053  0  0.101829  0.10738  0  0.995594  0
H  H32  1  0.35036578  0.83842835  0.00085858  1  0  0.098363  0  0.953177  0  0  0.11131  0  1.00742  0  0  0.113228  0  1.007321  0  0.10036  0  0.115768  0.109902  0  1.007584  0
H  H33  1  0.85036542  0.66157152  0.49914104  1  0  0.098388  0  0.953166  0  0  0.111336  0  1.007405  0  0  0.113255  0  1.007305  0  0.100371  0  0.115776  0.109927  0  1.007569  0
H  H34  1  0.64963443  0.16157126  0.99914079  1  0  0.098382  0  0.953186  0  0  0.11133  0  1.007425  0  0  0.113248  0  1.007326  0  0.10037  0  0.115773  0.109921  0  1.007589  0
H  H35  1  0.14963385  0.33842809  0.50085833  1  0  0.098373  0  0.953179  0  0  0.111321  0  1.007419  0  0  0.11324  0  1.007319  0  0.100346  0  0.115772  0.109912  0  1.007584  0
H  H36  1  0.29537002  0.08506888  0.73517144  1  0  0.383721  0  0.923245  0  0  0.351777  0  1.003711  0  0  0.364869  0  0.989254  0  0.648621  0  0.290778  0.342632  0  1.012264  0
H  H37  1  0.79537060  0.41493138  0.76482881  1  0  0.383726  0  0.923262  0  0  0.351766  0  1.00376  0  0  0.364856  0  0.989282  0  0.648621  0  0.290773  0.342621  0  1.012314  0
H  H38  1  0.70463019  0.91493073  0.26482876  1  0  0.383735  0  0.923236  0  0  0.351791  0  1.003704  0  0  0.364882  0  0.989239  0  0.648619  0  0.290779  0.342645  0  1.012259  0
H  H39  1  0.20462961  0.58506915  0.23517170  1  0  0.383705  0  0.923271  0  0  0.35176  0  1.003738  0  0  0.364851  0  0.989283  0  0.648621  0  0.290767  0.342613  0  1.012295  0
C  C40  1  0.25960930  0.70056197  0.71836786  1  0  0.238416  0  3.717547  0  0  0.182006  0  3.996929  0  0  0.195705  0  4.009962  0  0.971014  0  0.129742  0.172931  0  3.987632  0
C  C41  1  0.75960894  0.79943791  0.78163176  1  0  0.23842  0  3.717495  0  0  0.182019  0  3.996874  0  0  0.195719  0  4.009908  0  0.971022  0  0.12975  0.172944  0  3.987577  0
C  C42  1  0.74039091  0.29943949  0.28163129  1  0  0.23842  0  3.717511  0  0  0.181978  0  3.996903  0  0  0.19569  0  4.009947  0  0.970973  0  0.129727  0.172903  0  3.987605  0
C  C43  1  0.24039128  0.20056170  0.21836761  1  0  0.238421  0  3.717574  0  0  0.181997  0  3.996966  0  0  0.195701  0  4.009999  0  0.971011  0  0.129744  0.172922  0  3.98767  0
C  C44  1  0.34558420  0.87085798  0.19495184  1  0  -0.068939  0  3.672896  0  0  -0.109215  0  3.92803  0  0  -0.108217  0  3.947018  0  0.28655  0  -0.002132  -0.109735  0  3.915397  0
C  C45  1  0.84558384  0.62914282  0.30504809  1  0  -0.068886  0  3.672888  0  0  -0.109154  0  3.928012  0  0  -0.108155  0  3.946997  0  0.286559  0  -0.002102  -0.109674  0  3.915379  0
C  C46  1  0.65441601  0.12914255  0.80504783  1  0  -0.068869  0  3.672872  0  0  -0.109136  0  3.927994  0  0  -0.108137  0  3.946982  0  0.286527  0  -0.002092  -0.109655  0  3.91536  0
C  C47  1  0.15441638  0.37085679  0.69495128  1  0  -0.068882  0  3.672947  0  0  -0.109153  0  3.928079  0  0  -0.108154  0  3.947064  0  0.286548  0  -0.00211  -0.109673  0  3.915446  0
C  C48  1  0.11877478  0.95384021  0.45090130  1  0  0.06783  0  3.763368  0  0  0.086596  0  4.004652  0  0  0.085718  0  4.02962  0  -0.015885  0  -0.012236  0.087156  0  3.987586  0
C  C49  1  0.61877441  0.54615875  0.04909885  1  0  0.067801  0  3.763429  0  0  0.086567  0  4.004709  0  0  0.085709  0  4.029689  0  -0.015832  0  -0.012255  0.087129  0  3.987643  0
C  C50  1  0.88122544  0.04615941  0.54909807  1  0  0.067809  0  3.763415  0  0  0.086563  0  4.004711  0  0  0.085698  0  4.029686  0  -0.015891  0  -0.012233  0.087124  0  3.987644  0
C  C51  1  0.38122675  0.45384086  0.95090052  1  0  0.067849  0  3.763364  0  0  0.086621  0  4.004636  0  0  0.085768  0  4.029621  0  -0.015867  0  -0.012223  0.087182  0  3.987568  0
C  C52  1  0.24425681  0.90370346  0.39545053  1  0  -0.056637  0  3.616411  0  0  -0.121553  0  3.861124  0  0  -0.117368  0  3.870741  0  0.217984  0  -0.049834  -0.124067  0  3.854285  0
C  C53  1  0.74425645  0.59629642  0.10454909  1  0  -0.056628  0  3.616312  0  0  -0.12155  0  3.861058  0  0  -0.117439  0  3.870764  0  0.217983  0  -0.049871  -0.124066  0  3.854225  0
C  C54  1  0.75574340  0.09629615  0.60454884  1  0  -0.056663  0  3.616307  0  0  -0.12156  0  3.861012  0  0  -0.117428  0  3.870695  0  0.217966  0  -0.049883  -0.124079  0  3.854179  0
C  C55  1  0.25574377  0.40370320  0.89545111  1  0  -0.056666  0  3.6163  0  0  -0.12156  0  3.861006  0  0  -0.117481  0  3.870752  0  0.217986  0  -0.049859  -0.124078  0  3.854172  0
C  C56  1  0.13724881  0.85316190  0.19551959  1  0  0.171409  0  3.649223  0  0  0.109174  0  3.912307  0  0  0.123637  0  3.924701  0  0.974714  0  0.142021  0.099759  0  3.903828  0
C  C57  1  0.63724845  0.64683706  0.30447973  1  0  0.171413  0  3.64922  0  0  0.109181  0  3.912299  0  0  0.123645  0  3.924691  0  0.974995  0  0.142021  0.099767  0  3.903819  0
C  C58  1  0.86275140  0.14683863  0.80447925  1  0  0.171441  0  3.649246  0  0  0.109211  0  3.912327  0  0  0.123677  0  3.924719  0  0.975036  0  0.142036  0.099797  0  3.903847  0
C  C59  1  0.36275082  0.35316163  0.69552100  1  0  0.171475  0  3.649219  0  0  0.109235  0  3.912311  0  0  0.123701  0  3.924701  0  0.975037  0  0.14204  0.099821  0  3.903831  0
C  C60  1  0.22207322  0.89622260  0.77278813  1  0  -0.01693  0  3.81035  0  0  -0.022274  0  4.063897  0  0  -0.024506  0  4.086106  0  0.422617  0  0.063801  -0.020895  0  4.04885  0
C  C61  1  0.72207285  0.60377727  0.72721150  1  0  -0.016939  0  3.810319  0  0  -0.022292  0  4.063874  0  0  -0.024524  0  4.086085  0  0.42269  0  0.063821  -0.020913  0  4.048826  0
C  C62  1  0.77792699  0.10377793  0.22721239  1  0  -0.016896  0  3.810352  0  0  -0.022252  0  4.063879  0  0  -0.024485  0  4.08609  0  0.422615  0  0.063809  -0.020872  0  4.048831  0
C  C63  1  0.27792641  0.39622234  0.27278787  1  0  -0.016861  0  3.810353  0  0  -0.022235  0  4.063888  0  0  -0.024468  0  4.086103  0  0.422617  0  0.063808  -0.020856  0  4.048841  0
C  C64  1  0.16013764  0.01490467  0.83692512  1  0  0.635461  0  3.942509  0  0  0.581774  0  4.242904  0  0  0.616561  0  4.234221  0  1.573104  0  0.208612  0.55804  0  4.248311  0
C  C65  1  0.66013822  0.48509467  0.66307483  1  0  0.635467  0  3.942375  0  0  0.581775  0  4.242773  0  0  0.616561  0  4.23409  0  1.57303  0  0.208585  0.558042  0  4.24818  0
C  C66  1  0.83986163  0.98509586  0.16307456  1  0  0.635467  0  3.942411  0  0  0.581772  0  4.242815  0  0  0.616558  0  4.234135  0  1.573103  0  0.208629  0.558038  0  4.248224  0
C  C67  1  0.33986105  0.51490494  0.33692621  1  0  0.635395  0  3.942549  0  0  0.581703  0  4.242952  0  0  0.616489  0  4.234274  0  1.573103  0  0.208582  0.557969  0  4.24836  0
C  C68  1  0.07251027  0.06491721  0.44507949  1  0  -0.106144  0  3.757543  0  0  -0.128376  0  4.008861  0  0  -0.130845  0  4.031392  0  -0.021337  0  -0.090844  -0.126534  0  3.993511  0
C  C69  1  0.57250990  0.43508213  0.05492046  1  0  -0.106077  0  3.75759  0  0  -0.128321  0  4.00889  0  0  -0.13079  0  4.031416  0  -0.021386  0  -0.090818  -0.126481  0  3.993542  0
C  C70  1  0.92749089  0.93508332  0.55492018  1  0  -0.106084  0  3.757578  0  0  -0.128318  0  4.008901  0  0  -0.130786  0  4.031428  0  -0.021368  0  -0.090816  -0.126476  0  3.99355  0
C  C71  1  0.42749031  0.56491748  0.94507975  1  0  -0.106032  0  3.757621  0  0  -0.128282  0  4.008922  0  0  -0.13075  0  4.031449  0  -0.021359  0  -0.090803  -0.126436  0  3.993575  0
C  C72  1  0.04468577  0.88929193  0.50636446  1  0  -0.115626  0  3.762715  0  0  -0.137059  0  4.013443  0  0  -0.140372  0  4.036903  0  -0.031946  0  -0.092283  -0.134787  0  3.997521  0
C  C73  1  0.54468635  0.61070795  0.99363599  1  0  -0.115621  0  3.762648  0  0  -0.137036  0  4.013389  0  0  -0.140341  0  4.036836  0  -0.032028  0  -0.092271  -0.134762  0  3.997463  0
C  C74  1  0.95531444  0.11070860  0.49363605  1  0  -0.115613  0  3.762699  0  0  -0.137051  0  4.013425  0  0  -0.140364  0  4.03688  0  -0.032008  0  -0.092271  -0.13478  0  3.997503  0
C  C75  1  0.45531292  0.38929074  0.00636474  1  0  -0.115653  0  3.762673  0  0  -0.137081  0  4.013412  0  0  -0.140385  0  4.036856  0  -0.031998  0  -0.092305  -0.13481  0  3.99749  0
C  C76  1  0.29969027  0.84708134  0.08195763  1  0  -0.014702  0  3.799048  0  0  -0.047519  0  4.065522  0  0  -0.046106  0  4.087397  0  0.407819  0  -0.009258  -0.048452  0  4.050635  0
C  C77  1  0.79968991  0.65291945  0.41804230  1  0  -0.014793  0  3.798971  0  0  -0.047612  0  4.065444  0  0  -0.0462  0  4.08732  0  0.40783  0  -0.009295  -0.048544  0  4.050558  0
C  C78  1  0.70030994  0.15292011  0.91804235  1  0  -0.014797  0  3.798995  0  0  -0.047618  0  4.065468  0  0  -0.046206  0  4.087345  0  0.407832  0  -0.009301  -0.04855  0  4.050582  0
C  C79  1  0.20031031  0.34708016  0.58195791  1  0  -0.014752  0  3.799011  0  0  -0.047567  0  4.065476  0  0  -0.046154  0  4.087354  0  0.407848  0  -0.009283  -0.048499  0  4.050591  0
C  C80  1  0.40784404  0.94522402  0.65135885  1  0  0.624605  0  3.893428  0  0  0.574313  0  4.194657  0  0  0.607834  0  4.186674  0  1.533222  0  0.220667  0.551503  0  4.199507  0
C  C81  1  0.90784462  0.55477678  0.84864192  1  0  0.624552  0  3.89354  0  0  0.574262  0  4.194753  0  0  0.607782  0  4.186776  0  1.533223  0  0.220624  0.551452  0  4.199605  0
C  C82  1  0.59215618  0.05477559  0.34864136  1  0  0.62454  0  3.893382  0  0  0.574239  0  4.194591  0  0  0.607759  0  4.186607  0  1.533233  0  0.220636  0.551429  0  4.199442  0
C  C83  1  0.09215560  0.44522467  0.15135890  1  0  0.624536  0  3.893489  0  0  0.574234  0  4.194684  0  0  0.607755  0  4.186705  0  1.533227  0  0.220623  0.551425  0  4.199534  0
C  C84  1  0.32519961  0.86800953  0.69483193  1  0  -0.04253  0  3.835223  0  0  -0.047475  0  4.085991  0  0  -0.051405  0  4.110129  0  0.376101  0  0.059151  -0.0449  0  4.069486  0
C  C85  1  0.82519924  0.63199035  0.80516852  1  0  -0.042506  0  3.8352  0  0  -0.047425  0  4.085938  0  0  -0.051358  0  4.11008  0  0.376106  0  0.05918  -0.04485  0  4.069434  0
C  C86  1  0.67480061  0.13199100  0.30516858  1  0  -0.042574  0  3.835288  0  0  -0.04746  0  4.085972  0  0  -0.051388  0  4.11011  0  0.376108  0  0.05916  -0.044886  0  4.069467  0
C  C87  1  0.17480003  0.36800926  0.19483168  1  0  -0.042617  0  3.835355  0  0  -0.047478  0  4.08601  0  0  -0.051409  0  4.110151  0  0.375939  0  0.059163  -0.044903  0  4.069504  0
N  N88  1  0.18220779  0.78932573  0.78694031  1  0  -0.420543  0  3.198819  0  0  -0.352136  0  3.480192  0  0  -0.372018  0  3.495912  0  -1.220267  0  -0.358942  -0.338014  0  3.468766  0
N  N89  1  0.68220743  0.71067322  0.71305901  1  0  -0.420552  0  3.198811  0  0  -0.352157  0  3.480201  0  0  -0.37204  0  3.495922  0  -1.220284  0  -0.358973  -0.338035  0  3.468776  0
N  N90  1  0.81779242  0.21067388  0.21305906  1  0  -0.420552  0  3.198759  0  0  -0.352152  0  3.480159  0  0  -0.372034  0  3.495875  0  -1.220265  0  -0.35895  -0.338031  0  3.468733  0
N  N91  1  0.31779184  0.28932639  0.28694036  1  0  -0.420541  0  3.198814  0  0  -0.352136  0  3.4802  0  0  -0.372019  0  3.495921  0  -1.220271  0  -0.358935  -0.338014  0  3.468775  0
N  N92  1  0.16992202  0.83608593  0.08360300  1  0  -0.385274  0  3.287165  0  0  -0.304554  0  3.571152  0  0  -0.326242  0  3.587972  0  -1.240642  0  -0.367281  -0.289675  0  3.559263  0
N  N93  1  0.66992071  0.66391487  0.41639693  1  0  -0.385248  0  3.287062  0  0  -0.304526  0  3.571055  0  0  -0.326215  0  3.587874  0  -1.240936  0  -0.36728  -0.289647  0  3.559166  0
N  N94  1  0.83007914  0.16391460  0.91639668  1  0  -0.385247  0  3.287087  0  0  -0.304529  0  3.571075  0  0  -0.326216  0  3.587894  0  -1.240964  0  -0.367275  -0.289649  0  3.559186  0
N  N95  1  0.33007856  0.33608474  0.58360327  1  0  -0.385256  0  3.287066  0  0  -0.304532  0  3.571051  0  0  -0.326221  0  3.587873  0  -1.240967  0  -0.367273  -0.289652  0  3.559163  0
N  N96  1  0.24134135  0.87562103  0.26582065  1  0  -0.043948  0  3.535246  0  0  0.052445  0  3.749543  0  0  0.03798  0  3.775066  0  -1.223243  0  -0.234986  0.061946  0  3.732156  0
N  N97  1  0.74134004  0.62437884  0.23417981  1  0  -0.043974  0  3.535223  0  0  0.052415  0  3.749518  0  0  0.037968  0  3.775058  0  -1.223248  0  -0.234963  0.061918  0  3.732131  0
N  N98  1  0.75865981  0.12437858  0.73417955  1  0  -0.043954  0  3.535225  0  0  0.052434  0  3.74951  0  0  0.037979  0  3.775044  0  -1.223253  0  -0.234963  0.061936  0  3.732122  0
N  N99  1  0.25865923  0.37562169  0.76581987  1  0  -0.044069  0  3.535343  0  0  0.052316  0  3.749648  0  0  0.037877  0  3.775194  0  -1.22326  0  -0.235012  0.061819  0  3.732261  0
N  N100  1  0.34773015  0.74391156  0.66178792  1  0  -0.412279  0  3.241775  0  0  -0.337452  0  3.522325  0  0  -0.358203  0  3.538691  0  -1.195304  0  -0.362309  -0.322742  0  3.510385  0
N  N101  1  0.84772978  0.75608831  0.83821254  1  0  -0.412286  0  3.241772  0  0  -0.337471  0  3.522323  0  0  -0.35822  0  3.538689  0  -1.195291  0  -0.362323  -0.322761  0  3.510384  0
N  N102  1  0.65227007  0.25608805  0.33821228  1  0  -0.412237  0  3.241739  0  0  -0.337424  0  3.522277  0  0  -0.358174  0  3.538638  0  -1.195272  0  -0.362293  -0.322714  0  3.510336  0
N  N103  1  0.15227043  0.24391130  0.16178767  1  0  -0.412206  0  3.24184  0  0  -0.337406  0  3.522368  0  0  -0.358156  0  3.538733  0  -1.195137  0  -0.362291  -0.322696  0  3.510428  0
O  O104  1  0.19357658  0.11099381  0.81527766  1  0  -0.586464  0  1.991766  0  0  -0.538428  0  2.21452  0  0  -0.561873  0  2.203486  0  -1.166872  0  -0.311111  -0.522208  0  2.221471  0
O  O105  1  0.69357810  0.38900553  0.68472145  1  0  -0.586517  0  1.991747  0  0  -0.538474  0  2.214513  0  0  -0.561917  0  2.203471  0  -1.166873  0  -0.311129  -0.522254  0  2.221465  0
O  O106  1  0.80642175  0.88900580  0.18472171  1  0  -0.586518  0  1.991667  0  0  -0.538477  0  2.214421  0  0  -0.561919  0  2.203386  0  -1.166855  0  -0.311146  -0.522256  0  2.221375  0
O  O107  1  0.30642211  0.61099408  0.31527875  1  0  -0.58646  0  1.991782  0  0  -0.538429  0  2.214539  0  0  -0.561872  0  2.203507  0  -1.166859  0  -0.311108  -0.522209  0  2.221492  0
O  O108  1  0.07454750  0.01447685  0.91168629  1  0  -0.639223  0  2.108997  0  0  -0.559862  0  2.375931  0  0  -0.589734  0  2.363083  0  -1.168161  0  -0.321761  -0.53903  0  2.38426  0
O  O109  1  0.57454714  0.48552249  0.58831449  1  0  -0.639186  0  2.108908  0  0  -0.559818  0  2.375843  0  0  -0.589686  0  2.362984  0  -1.16813  0  -0.321726  -0.538986  0  2.384171  0
O  O110  1  0.92545177  0.98552276  0.08831391  1  0  -0.63918  0  2.10901  0  0  -0.559824  0  2.375952  0  0  -0.589692  0  2.363092  0  -1.168132  0  -0.321741  -0.538993  0  2.38428  0
O  O111  1  0.42545119  0.51447712  0.41168655  1  0  -0.639178  0  2.10901  0  0  -0.559821  0  2.375959  0  0  -0.589685  0  2.363095  0  -1.168156  0  -0.321743  -0.538989  0  2.384287  0
O  O112  1  0.37786414  0.06238802  0.67874810  1  0  -0.533721  0  2.082369  0  0  -0.482047  0  2.29782  0  0  -0.504322  0  2.283368  0  -1.167837  0  -0.321133  -0.46652  0  2.306363  0
O  O113  1  0.87786472  0.43761225  0.82125216  1  0  -0.533736  0  2.082389  0  0  -0.482056  0  2.297848  0  0  -0.504336  0  2.283395  0  -1.167823  0  -0.321142  -0.466528  0  2.306392  0
O  O114  1  0.62213513  0.93761251  0.32125241  1  0  -0.533722  0  2.082411  0  0  -0.482053  0  2.29786  0  0  -0.50433  0  2.283411  0  -1.167844  0  -0.321142  -0.466526  0  2.306405  0
O  O115  1  0.12213550  0.56238828  0.17874835  1  0  -0.533683  0  2.082417  0  0  -0.482008  0  2.297853  0  0  -0.504286  0  2.283415  0  -1.167854  0  -0.321122  -0.46648  0  2.306397  0
O  O116  1  0.50423291  0.90142176  0.59166883  1  0  -0.561436  0  1.959146  0  0  -0.510688  0  2.198592  0  0  -0.533275  0  2.186952  0  -1.149301  0  -0.294235  -0.495086  0  2.206256  0
O  O117  1  0.00423328  0.59857812  0.90833163  1  0  -0.561388  0  1.95924  0  0  -0.510643  0  2.198686  0  0  -0.533226  0  2.187049  0  -1.14933  0  -0.294205  -0.495041  0  2.206351  0
O  O118  1  0.49576636  0.09857785  0.40833137  1  0  -0.561405  0  1.959075  0  0  -0.510667  0  2.198529  0  0  -0.533254  0  2.186885  0  -1.149338  0  -0.294234  -0.495065  0  2.206192  0
O  O119  1  0.99576694  0.40142241  0.09166888  1  0  -0.561418  0  1.95914  0  0  -0.510681  0  2.198588  0  0  -0.533267  0  2.186951  0  -1.149329  0  -0.294238  -0.495079  0  2.206252  0
