# generated using pymatgen
data_Zn2H17C30S2N8O9
_symmetry_space_group_name_H-M   'P 1'
_cell_length_a   18.96942679
_cell_length_b   19.53100092
_cell_length_c   19.12262007
_cell_angle_alpha   102.75219168
_cell_angle_beta   109.48649279
_cell_angle_gamma   111.67443730
_symmetry_Int_Tables_number   1
_chemical_formula_structural   Zn2H17C30S2N8O9
_chemical_formula_sum   'Zn4 H34 C60 S4 N16 O18'
_cell_volume   5708.41531187
_cell_formula_units_Z   2
loop_
 _symmetry_equiv_pos_site_id
 _symmetry_equiv_pos_as_xyz
  1  'x, y, z'
loop_
 _atom_site_type_symbol
 _atom_site_label
 _atom_site_symmetry_multiplicity
 _atom_site_fract_x
 _atom_site_fract_y
 _atom_site_fract_z
 _atom_site_occupancy
 _atom_site_pbe_bader_charge
 _atom_site_pbe_bader_spin_density
 _atom_site_pbe_cm5_charge
 _atom_site_pbe_ddec_charge
 _atom_site_pbe_ddec_spin_density
 _atom_site_pbe_ddec_sum_bond_order
 _atom_site_pbe_magmom
Zn  Zn0  1  0.88094642  0.01368607  0.39477729  1  1.251563  0  0.736003  0.706836  0  2.252746  0
Zn  Zn1  1  0.10540809  0.98433985  0.59589337  1  1.238844  0  0.742911  0.688622  0  2.31363  0
Zn  Zn2  1  0.11639566  0.12850253  0.49955939  1  1.259987  0  0.749219  0.7293  0  2.280516  0
Zn  Zn3  1  0.87318916  0.87352450  0.49989321  1  1.261593  0  0.746277  0.728139  0  2.268529  0
H  H4  1  0.65104331  0.47167208  0.97411740  1  0.056979  0  0.107255  0.111369  0  0.982848  0
H  H5  1  0.87462638  0.86445392  0.67143573  1  0.116142  0  0.127667  0.12022  0  0.977239  0
H  H6  1  0.62161593  0.48185464  0.11042854  1  0.087377  0  0.108375  0.114937  0  0.97829  0
H  H7  1  0.44446826  0.49528074  0.86414128  1  0.064824  0  0.09725  0.093361  0  1.001569  0
H  H8  1  0.90508237  0.86613950  0.14538651  1  0.080315  0  0.107129  0.110541  0  0.977041  0
H  H9  1  0.84167669  0.90703025  0.09733419  1  0.063411  0  0.105567  0.110935  0  0.984421  0
H  H10  1  0.79332945  0.82093186  0.11847067  1  0.074826  0  0.110491  0.116321  0  0.97985  0
H  H11  1  0.16929810  0.09814118  0.89047278  1  0.061732  0  0.105419  0.109618  0  0.984043  0
H  H12  1  0.11102824  0.15018478  0.86232766  1  0.067346  0  0.105492  0.108457  0  0.977655  0
H  H13  1  0.21875002  0.18824991  0.87560956  1  0.066465  0  0.11116  0.117476  0  0.9745  0
H  H14  1  0.39699746  0.40353452  0.08289697  1  0.031704  0  0.094128  0.085966  0  0.995558  0
H  H15  1  0.41396922  0.50409262  0.99991099  1  0.062257  0  0.103959  0.107406  0  0.986332  0
H  H16  1  0.49190403  0.39546655  0.12740516  1  0.045881  0  0.097661  0.091587  0  0.994969  0
H  H17  1  0.38954261  0.30707074  0.07198650  1  0.065236  0  0.111035  0.116746  0  0.968566  0
H  H18  1  0.58259741  0.57621057  0.84656323  1  0.041129  0  0.096098  0.089738  0  0.99259  0
H  H19  1  0.67667777  0.57044995  0.90023529  1  0.035771  0  0.098348  0.092164  0  0.991265  0
H  H20  1  0.68383493  0.66570007  0.90476644  1  0.079312  0  0.111671  0.117328  0  0.968819  0
H  H21  1  0.12486695  0.74370604  0.66360582  1  0.635658  0  0.356256  0.40579  0  0.833545  0
H  H22  1  0.80134025  0.23913244  0.41771209  1  0.64485  0  0.362726  0.413799  0  0.821514  0
H  H23  1  0.25796925  0.04504439  0.33556154  1  0.061428  0  0.106075  0.106707  0  0.978736  0
H  H24  1  0.35285031  0.11619485  0.42763007  1  0.075791  0  0.105854  0.111884  0  0.986181  0
H  H25  1  0.29646978  0.15064940  0.36071792  1  0.077905  0  0.111632  0.115712  0  0.968805  0
H  H26  1  0.17806875  0.89772380  0.50679543  1  0.097026  0  0.114947  0.105646  0  1.029233  0
H  H27  1  0.64587964  0.89248011  0.58845524  1  0.089732  0  0.105376  0.111548  0  0.986653  0
H  H28  1  0.74395319  0.97323774  0.67143593  1  0.101731  0  0.10622  0.107013  0  0.979048  0
H  H29  1  0.71406720  0.87161234  0.66171811  1  0.05373  0  0.112001  0.116414  0  0.969756  0
H  H30  1  0.57577104  0.64020749  0.30862083  1  0.643656  0  0.360081  0.407126  0  0.827991  0
H  H31  1  0.34310821  0.38874939  0.72619947  1  0.640749  0  0.345202  0.392238  0  0.864228  0
H  H32  1  0.77579661  0.07927123  0.45964291  1  0.125825  0  0.11276  0.10858  0  1.039786  0
H  H33  1  0.72434968  0.86576499  0.20963930  1  0.134784  0  0.132649  0.127882  0  0.98327  0
H  H34  1  0.29562123  0.10681335  0.76558839  1  0.130736  0  0.135422  0.134202  0  0.966113  0
H  H35  1  0.86390541  0.69995437  0.39783272  1  0.137953  0  0.12172  0.118609  0  1.018058  0
H  H36  1  0.13262783  0.29704027  0.61132888  1  0.163942  0  0.122848  0.123303  0  1.005361  0
H  H37  1  0.12696462  0.15187953  0.33715561  1  0.100558  0  0.127327  0.12026  0  0.9775  0
C  C38  1  0.94093373  0.99249132  0.26438512  1  1.062365  0  0.19774  0.314792  0  4.063405  0
C  C39  1  0.58129388  0.55172271  0.97683651  1  0.612576  0  0.093166  0.221575  0  3.735503  0
C  C40  1  0.58166898  0.48357920  0.05509855  1  -0.055208  0  -0.077584  -0.146513  0  3.625466  0
C  C41  1  0.48354851  0.49225821  0.91915870  1  -0.082776  0  -0.083992  -0.153359  0  3.658536  0
C  C42  1  0.63803123  0.69133816  0.17887527  1  -0.230572  0  -0.067248  -0.133608  0  4.220231  0
C  C43  1  0.40373593  0.28119566  0.79771831  1  -0.386376  0  -0.05788  -0.110792  0  4.190186  0
C  C44  1  0.46613610  0.49632478  0.99385421  1  -0.050094  0  -0.081812  -0.152557  0  3.638904  0
C  C45  1  0.59861465  0.47904777  0.97996510  1  -0.027616  0  -0.077539  -0.148008  0  3.624522  0
C  C46  1  0.56403438  0.55652325  0.05276202  1  0.127109  0  0.00102  0.088147  0  3.821754  0
C  C47  1  0.50050780  0.41905708  0.92130627  1  0.094117  0  0.000107  0.088224  0  3.82685  0
C  C48  1  0.59961864  0.62805034  0.12034323  1  -0.148334  0  -0.051819  -0.096067  0  4.125013  0
C  C49  1  0.05709542  0.02317978  0.73012624  1  1.045922  0  0.197413  0.313699  0  4.055755  0
C  C50  1  0.45703741  0.34578376  0.85338459  1  0.046247  0  -0.056535  -0.112018  0  4.109676  0
C  C51  1  0.99200497  0.65672692  0.48732741  1  -0.174368  0  -0.022943  -0.055645  0  4.084456  0
C  C52  1  0.00856568  0.34499431  0.52153549  1  -0.328594  0  -0.025789  -0.059564  0  4.088395  0
C  C53  1  0.05710782  0.80662169  0.54748173  1  0.340457  0  0.083002  -0.084293  0  4.02985  0
C  C54  1  0.94143855  0.19485900  0.45813982  1  0.360054  0  0.082855  -0.084423  0  4.022715  0
C  C55  1  0.99522848  0.59637376  0.49351813  1  -0.060599  0  -0.044035  -0.05906  0  4.331902  0
C  C56  1  0.00491184  0.40577706  0.51756787  1  0.130925  0  -0.043544  -0.057061  0  4.330719  0
C  C57  1  0.99826046  0.53104915  0.50158186  1  0.224687  0  -0.02607  -0.01881  0  4.258324  0
C  C58  1  0.00173056  0.47135677  0.51051917  1  -0.248091  0  -0.02545  -0.015778  0  4.253089  0
C  C59  1  0.66818004  0.00573490  0.52812825  1  -0.246715  0  -0.033865  -0.047005  0  4.12968  0
C  C60  1  0.99202431  0.72872152  0.49042911  1  0.142827  0  -0.017893  0.031092  0  4.181584  0
C  C61  1  0.30748772  0.98574588  0.46385318  1  -0.397015  0  -0.031461  -0.043179  0  4.117307  0
C  C62  1  0.60044164  0.00485897  0.51957871  1  0.012632  0  -0.058103  -0.081806  0  4.351518  0
C  C63  1  0.37602939  0.98741022  0.47480722  1  0.229404  0  -0.055339  -0.077773  0  4.345609  0
C  C64  1  0.52424886  0.99961622  0.50580532  1  -0.070223  0  -0.039564  -0.030829  0  4.285434  0
C  C65  1  0.45259623  0.99293510  0.49009615  1  -0.071956  0  -0.038146  -0.030944  0  4.282421  0
C  C66  1  0.00740138  0.02784148  0.17280124  1  -0.201194  0  -0.031632  -0.043033  0  4.133526  0
C  C67  1  0.00186843  0.99110800  0.83068119  1  -0.184062  0  -0.035022  -0.051353  0  4.144195  0
C  C68  1  0.00882268  0.02081814  0.10767382  1  -0.029959  0  -0.060576  -0.0886  0  4.360145  0
C  C69  1  0.00261180  0.99777520  0.89660886  1  -0.036035  0  -0.061289  -0.085321  0  4.360782  0
C  C70  1  0.00749830  0.01277830  0.03578622  1  -0.038266  0  -0.041205  -0.031503  0  4.293065  0
C  C71  1  0.00741622  0.27220275  0.51634541  1  0.146412  0  -0.017254  0.032609  0  4.183495  0
C  C72  1  0.00516013  0.00559562  0.96892029  1  -0.062351  0  -0.04218  -0.034938  0  4.291647  0
C  C73  1  0.20893822  0.04762337  0.44891374  1  1.066749  0  0.193831  0.300933  0  4.065626  0
C  C74  1  0.77475036  0.95214033  0.54647015  1  1.058362  0  0.192208  0.300192  0  4.069305  0
C  C75  1  0.73570377  0.76892545  0.32841372  1  0.326507  0  0.070636  -0.105114  0  4.045351  0
C  C76  1  0.27813707  0.21693440  0.66141223  1  0.320509  0  0.072185  -0.102127  0  4.060022  0
C  C77  1  0.17947539  0.94739963  0.48966310  1  0.449873  0  0.012016  -0.021387  0  3.955987  0
C  C78  1  0.78399741  0.03730756  0.48594080  1  0.456512  0  0.012939  -0.021637  0  3.963744  0
C  C79  1  0.73544537  0.84185690  0.25582152  1  0.470464  0  0.030704  -0.026531  0  3.895013  0
C  C80  1  0.28132493  0.13632191  0.72512300  1  0.474777  0  0.033955  -0.025334  0  3.869958  0
C  C81  1  0.92649291  0.74350486  0.44726826  1  0.443159  0  0.028196  -0.015164  0  3.880376  0
C  C82  1  0.23514056  0.99014459  0.46223871  1  0.145771  0  -0.042536  -0.094115  0  4.212686  0
C  C83  1  0.06996775  0.25522725  0.56113001  1  0.434054  0  0.027906  -0.014549  0  3.872594  0
C  C84  1  0.06589393  0.10288892  0.32208825  1  0.505956  0  0.0262  -0.004013  0  3.970912  0
C  C85  1  0.93361016  0.91278912  0.68141410  1  0.517974  0  0.028236  -0.001146  0  3.966099  0
C  C86  1  0.00554141  0.03847539  0.24665976  1  0.120458  0  -0.043721  -0.10441  0  4.219951  0
C  C87  1  0.99826869  0.97869267  0.75449433  1  0.099932  0  -0.044137  -0.106204  0  4.2191  0
C  C88  1  0.85128816  0.87753788  0.13965799  1  0.366083  0  -0.127449  -0.164096  0  3.872787  0
C  C89  1  0.15873585  0.13408090  0.85534439  1  0.385762  0  -0.127864  -0.163671  0  3.877415  0
C  C90  1  0.42818804  0.36662642  0.07539091  1  0.401649  0  -0.135852  -0.165906  0  3.95003  0
C  C91  1  0.64401627  0.60674875  0.90176354  1  0.388086  0  -0.134568  -0.16404  0  3.941856  0
C  C92  1  0.28987311  0.10404563  0.38491923  1  0.369394  0  -0.126932  -0.162051  0  3.876925  0
C  C93  1  0.73959114  0.00204923  0.52590270  1  0.114685  0  -0.045494  -0.100935  0  4.222643  0
C  C94  1  0.71222699  0.91071284  0.62876542  1  0.335755  0  -0.128256  -0.165804  0  3.884778  0
C  C95  1  0.69478689  0.76213357  0.24841110  1  0.121282  0  -0.0188  0.049572  0  4.187355  0
C  C96  1  0.33062389  0.21438914  0.73241641  1  0.134441  0  -0.014489  0.051856  0  4.171339  0
C  C97  1  0.48408463  0.42417190  0.99761256  1  0.610362  0  0.091356  0.219904  0  3.738307  0
S  S98  1  0.15759436  0.84053696  0.62565203  1  3.072678  0  0.549097  1.151307  0  6.044014  0
S  S99  1  0.84781080  0.16417394  0.37276880  1  3.037192  0  0.558761  1.163577  0  5.991772  0
S  S100  1  0.71149330  0.70145952  0.37336391  1  3.051674  0  0.55559  1.163315  0  6.00061  0
S  S101  1  0.29858740  0.28831397  0.62043639  1  3.047815  0  0.554727  1.16224  0  5.984447  0
N  N102  1  0.96135517  0.02745739  0.34258720  1  -0.793389  0  -0.285053  -0.320581  0  3.502852  0
N  N103  1  0.83778950  0.00943423  0.48137349  1  -0.802985  0  -0.276312  -0.193005  0  3.576268  0
N  N104  1  0.79642284  0.88956016  0.33249712  1  -0.696842  0  -0.232761  -0.128858  0  3.488167  0
N  N105  1  0.20662330  0.09861336  0.65676993  1  -0.737859  0  -0.237349  -0.12086  0  3.518746  0
N  N106  1  0.95103013  0.82250794  0.47767306  1  -0.742554  0  -0.245547  -0.184207  0  3.463668  0
N  N107  1  0.04280949  0.17542645  0.53060852  1  -0.759257  0  -0.253662  -0.181503  0  3.475013  0
N  N108  1  0.03930686  0.09658201  0.37778549  1  -0.797441  0  -0.274951  -0.190127  0  3.552378  0
N  N109  1  0.95277560  0.91707087  0.62111546  1  -0.804237  0  -0.277113  -0.184543  0  3.588176  0
N  N110  1  0.02954628  0.98575410  0.65036316  1  -0.79993  0  -0.289099  -0.321251  0  3.493329  0
N  N111  1  0.03126938  0.86050870  0.53885803  1  -0.727281  0  -0.247427  -0.162639  0  3.62133  0
N  N112  1  0.96347363  0.13901815  0.46838229  1  -0.714445  0  -0.240648  -0.170244  0  3.592678  0
N  N113  1  0.14518145  0.03927843  0.46812763  1  -0.80688  0  -0.2864  -0.294978  0  3.558769  0
N  N114  1  0.83283148  0.95726462  0.51966022  1  -0.790317  0  -0.28204  -0.297374  0  3.523889  0
N  N115  1  0.79653227  0.84486102  0.37706477  1  -0.760504  0  -0.242972  -0.183475  0  3.562061  0
N  N116  1  0.20385484  0.14845005  0.61828207  1  -0.724291  0  -0.241296  -0.191401  0  3.528821  0
N  N117  1  0.12757893  0.97810459  0.49471343  1  -0.774006  0  -0.281688  -0.211773  0  3.548856  0
O  O118  1  0.86566662  0.92542588  0.21710268  1  -1.103985  0  -0.177921  -0.173712  0  2.626737  0
O  O119  1  0.78756675  0.18315524  0.40760020  1  -1.191637  0  -0.347042  -0.524146  0  2.138089  0
O  O120  1  0.23826844  0.10754194  0.42498180  1  -1.095985  0  -0.18113  -0.17797  0  2.594942  0
O  O121  1  0.75756655  0.90120945  0.58332952  1  -1.092034  0  -0.181308  -0.174986  0  2.587195  0
O  O122  1  0.70774653  0.62786959  0.33292944  1  -1.286387  0  -0.305423  -0.527987  0  2.111481  0
O  O123  1  0.76571186  0.74663616  0.45969178  1  -1.300731  0  -0.292904  -0.502413  0  2.218081  0
O  O124  1  0.61757488  0.68243913  0.36227786  1  -1.181039  0  -0.346105  -0.507854  0  2.116583  0
O  O125  1  0.38349272  0.32023861  0.62887669  1  -1.272758  0  -0.297867  -0.502794  0  2.094337  0
O  O126  1  0.22534607  0.25496126  0.54196594  1  -1.300763  0  -0.292043  -0.504344  0  2.233347  0
O  O127  1  0.29102236  0.35935585  0.67431555  1  -1.200098  0  -0.354548  -0.529927  0  2.142127  0
O  O128  1  0.13195330  0.09142881  0.77163894  1  -1.086504  0  -0.177497  -0.167776  0  2.602555  0
O  O129  1  0.43381404  0.35455335  0.00119225  1  -1.079117  0  -0.212158  -0.204729  0  2.537571  0
O  O130  1  0.63191985  0.62080528  0.97270872  1  -1.075704  0  -0.213624  -0.208013  0  2.531274  0
O  O131  1  0.20599573  0.81150653  0.59657312  1  -1.276307  0  -0.301819  -0.514208  0  2.098927  0
O  O132  1  0.19058007  0.92509183  0.66902796  1  -1.304093  0  -0.296758  -0.510763  0  2.168477  0
O  O133  1  0.13604034  0.79921565  0.68513626  1  -1.177643  0  -0.348213  -0.510025  0  2.117876  0
O  O134  1  0.86361638  0.21055871  0.32588838  1  -1.26791  0  -0.295764  -0.502276  0  2.089225  0
O  O135  1  0.80653817  0.07730064  0.33726166  1  -1.27708  0  -0.293757  -0.504003  0  2.195123  0
