# generated using pymatgen
data_NaH11C8S3N2O3
_symmetry_space_group_name_H-M   'P 1'
_cell_length_a   6.24907612
_cell_length_b   12.89900787
_cell_length_c   16.54407055
_cell_angle_alpha   111.45297365
_cell_angle_beta   90.00007607
_cell_angle_gamma   89.99945428
_symmetry_Int_Tables_number   1
_chemical_formula_structural   NaH11C8S3N2O3
_chemical_formula_sum   'Na4 H44 C32 S12 N8 O12'
_cell_volume   1241.17391583
_cell_formula_units_Z   4
loop_
 _symmetry_equiv_pos_site_id
 _symmetry_equiv_pos_as_xyz
  1  'x, y, z'
loop_
 _atom_site_type_symbol
 _atom_site_label
 _atom_site_symmetry_multiplicity
 _atom_site_fract_x
 _atom_site_fract_y
 _atom_site_fract_z
 _atom_site_occupancy
 _atom_site_hle17_bader_spin_density
 _atom_site_hle17_ddec_charge
 _atom_site_hle17_ddec_spin_density
 _atom_site_hle17_ddec_sum_bond_order
 _atom_site_hle17_magmom
 _atom_site_hse06_10hf_bader_spin_density
 _atom_site_hse06_10hf_ddec_charge
 _atom_site_hse06_10hf_ddec_spin_density
 _atom_site_hse06_10hf_ddec_sum_bond_order
 _atom_site_hse06_10hf_magmom
 _atom_site_hse06_bader_spin_density
 _atom_site_hse06_ddec_charge
 _atom_site_hse06_ddec_spin_density
 _atom_site_hse06_ddec_sum_bond_order
 _atom_site_hse06_magmom
 _atom_site_pbe_bader_charge
 _atom_site_pbe_bader_spin_density
 _atom_site_pbe_cm5_charge
 _atom_site_pbe_ddec_charge
 _atom_site_pbe_ddec_spin_density
 _atom_site_pbe_ddec_sum_bond_order
 _atom_site_pbe_magmom
Na  Na0  1  0.81661690  0.00590169  0.08733352  1  0  0.890344  0  0.379959  0  0  0.831819  0  0.547592  0  0  0.843097  0  0.525596  0  0.879165  0  0.603237  0.823796  0  0.563062  0
Na  Na1  1  0.68338594  0.50590208  0.58734019  1  0  0.890357  0  0.379929  0  0  0.831813  0  0.547606  0  0  0.843088  0  0.525602  0  0.879196  0  0.603208  0.823788  0  0.563077  0
Na  Na2  1  0.18338997  0.99410226  0.91266196  1  0  0.890367  0  0.379909  0  0  0.831804  0  0.547606  0  0  0.843085  0  0.525607  0  0.879197  0  0.603207  0.823781  0  0.563077  0
Na  Na3  1  0.31661454  0.49409782  0.41266746  1  0  0.890326  0  0.379966  0  0  0.8318  0  0.547594  0  0  0.843071  0  0.52559  0  0.879189  0  0.603197  0.823777  0  0.563065  0
H  H4  1  0.47136847  0.13604653  0.18824327  1  0  0.374817  0  0.946997  0  0  0.338423  0  1.023678  0  0  0.348778  0  1.008925  0  0.607671  0  0.25468  0.33115  0  1.034019  0
H  H5  1  0.02863735  0.63604522  0.68824523  1  0  0.374745  0  0.947048  0  0  0.338363  0  1.023748  0  0  0.348718  0  1.008996  0  0.607648  0  0.254664  0.331091  0  1.034088  0
H  H6  1  0.52864801  0.86395579  0.81175598  1  0  0.374796  0  0.946967  0  0  0.338409  0  1.023675  0  0  0.348765  0  1.008921  0  0.607678  0  0.254695  0.331136  0  1.034016  0
H  H7  1  0.97136153  0.36394968  0.31176041  1  0  0.374845  0  0.947042  0  0  0.33845  0  1.023651  0  0  0.348805  0  1.0089  0  0.607713  0  0.254684  0.331177  0  1.033993  0
H  H8  1  0.42170971  0.12982657  0.09116665  1  0  0.414511  0  0.893018  0  0  0.386156  0  0.952638  0  0  0.396792  0  0.937171  0  0.631441  0  0.286042  0.378633  0  0.963567  0
H  H9  1  0.07829727  0.62982609  0.59116884  1  0  0.414562  0  0.89294  0  0  0.386166  0  0.952644  0  0  0.396806  0  0.937169  0  0.631478  0  0.286059  0.378638  0  0.963582  0
H  H10  1  0.57829397  0.87017326  0.90883312  1  0  0.414513  0  0.893005  0  0  0.386147  0  0.952648  0  0  0.396787  0  0.937175  0  0.63145  0  0.286062  0.378623  0  0.96358  0
H  H11  1  0.92170481  0.37017547  0.40883806  1  0  0.414521  0  0.892976  0  0  0.386135  0  0.95266  0  0  0.396776  0  0.937184  0  0.631462  0  0.286026  0.378605  0  0.963601  0
H  H12  1  0.82504745  0.78480942  0.94453599  1  0  0.380736  0  0.92967  0  0  0.346971  0  1.009438  0  0  0.356907  0  0.995367  0  0.590676  0  0.264143  0.339848  0  1.019599  0
H  H13  1  0.67493893  0.28480579  0.44453808  1  0  0.380693  0  0.929649  0  0  0.346906  0  1.009505  0  0  0.35684  0  0.995436  0  0.590612  0  0.26411  0.339783  0  1.019665  0
H  H14  1  0.17494983  0.21519208  0.05546485  1  0  0.380725  0  0.92968  0  0  0.346962  0  1.009449  0  0  0.356897  0  0.995379  0  0.590628  0  0.264131  0.339838  0  1.01961  0
H  H15  1  0.32505514  0.71519410  0.55546835  1  0  0.380677  0  0.929617  0  0  0.346915  0  1.00948  0  0  0.356849  0  0.995413  0  0.590566  0  0.26413  0.339791  0  1.01964  0
H  H16  1  0.60416888  0.76757508  0.98526232  1  0  0.374014  0  0.941788  0  0  0.339524  0  1.020825  0  0  0.348936  0  1.007385  0  0.595985  0  0.264017  0.332934  0  1.030226  0
H  H17  1  0.89582167  0.26757476  0.48526293  1  0  0.374041  0  0.94166  0  0  0.339555  0  1.020757  0  0  0.348964  0  1.007323  0  0.595992  0  0.26404  0.332966  0  1.030156  0
H  H18  1  0.39583320  0.23242312  0.01474122  1  0  0.373983  0  0.941742  0  0  0.339511  0  1.020838  0  0  0.348924  0  1.007398  0  0.595957  0  0.264007  0.332922  0  1.030238  0
H  H19  1  0.10417241  0.73242595  0.51474192  1  0  0.373963  0  0.941812  0  0  0.339482  0  1.020895  0  0  0.348895  0  1.007454  0  0.596017  0  0.263985  0.332891  0  1.030297  0
H  H20  1  0.64031176  0.39660958  0.25629246  1  0  0.300345  0  0.866477  0  0  0.289766  0  0.9209  0  0  0.297508  0  0.914526  0  0.465358  0  0.323692  0.284342  0  0.925451  0
H  H21  1  0.85970091  0.89662147  0.75628422  1  0  0.300551  0  0.866258  0  0  0.289822  0  0.920816  0  0  0.297556  0  0.914452  0  0.46553  0  0.323771  0.284398  0  0.925366  0
H  H22  1  0.35968872  0.60339451  0.74371938  1  0  0.300426  0  0.866367  0  0  0.289885  0  0.920751  0  0  0.297614  0  0.914388  0  0.465679  0  0.323743  0.284461  0  0.925304  0
H  H23  1  0.14031397  0.10338078  0.24370716  1  0  0.300463  0  0.866427  0  0  0.289839  0  0.920852  0  0  0.297579  0  0.914478  0  0.465415  0  0.323753  0.284414  0  0.925405  0
H  H24  1  0.98538107  0.62370566  0.36097068  1  0  0.092905  0  0.975409  0  0  0.10644  0  1.035113  0  0  0.109524  0  1.033097  0  0.046042  0  0.102156  0.104268  0  1.036601  0
H  H25  1  0.51464307  0.12371297  0.86096925  1  0  0.092873  0  0.975406  0  0  0.106406  0  1.035131  0  0  0.109467  0  1.033145  0  0.046211  0  0.102182  0.104232  0  1.036617  0
H  H26  1  0.01463061  0.37631086  0.63903679  1  0  0.092875  0  0.975298  0  0  0.106336  0  1.035104  0  0  0.109469  0  1.03303  0  0.046068  0  0.102164  0.104165  0  1.036592  0
H  H27  1  0.48537501  0.87629508  0.13902013  1  0  0.092931  0  0.975347  0  0  0.10644  0  1.035132  0  0  0.109522  0  1.033116  0  0.046042  0  0.102154  0.104267  0  1.036618  0
H  H28  1  0.97211149  0.58907372  0.04918348  1  0  0.091644  0  0.989367  0  0  0.098103  0  1.061688  0  0  0.101154  0  1.059642  0  0.06586  0  0.087151  0.095975  0  1.063096  0
H  H29  1  0.52787341  0.08909095  0.54917577  1  0  0.091549  0  0.989457  0  0  0.098012  0  1.061797  0  0  0.101063  0  1.059752  0  0.06568  0  0.087136  0.095881  0  1.06321  0
H  H30  1  0.02787779  0.41089953  0.95081790  1  0  0.091562  0  0.98951  0  0  0.098012  0  1.061874  0  0  0.101062  0  1.059831  0  0.066068  0  0.087145  0.095881  0  1.063287  0
H  H31  1  0.47211107  0.91092042  0.45081273  1  0  0.091694  0  0.989246  0  0  0.098151  0  1.061561  0  0  0.101206  0  1.05951  0  0.066016  0  0.087174  0.096019  0  1.062978  0
H  H32  1  0.68253106  0.68966916  0.15041811  1  0  0.084857  0  0.973951  0  0  0.09421  0  1.039078  0  0  0.096522  0  1.03916  0  0.045092  0  0.092813  0.092486  0  1.039265  0
H  H33  1  0.81745699  0.18968390  0.65041091  1  0  0.084974  0  0.973862  0  0  0.094193  0  1.039117  0  0  0.096505  0  1.039198  0  0.044811  0  0.092803  0.092503  0  1.039264  0
H  H34  1  0.31743741  0.31031071  0.84957968  1  0  0.084985  0  0.973956  0  0  0.094275  0  1.039138  0  0  0.096586  0  1.039222  0  0.044997  0  0.092851  0.092592  0  1.03928  0
H  H35  1  0.18254508  0.81032497  0.34957688  1  0  0.084883  0  0.974063  0  0  0.094291  0  1.039122  0  0  0.096606  0  1.0392  0  0.04509  0  0.092845  0.092555  0  1.03932  0
H  H36  1  0.68897381  0.70720877  0.30432111  1  0  0.090448  0  0.965772  0  0  0.102064  0  1.026238  0  0  0.104059  0  1.026764  0  0.05857  0  0.095816  0.100653  0  1.025983  0
H  H37  1  0.81104344  0.20721519  0.80431340  1  0  0.090433  0  0.965721  0  0  0.102035  0  1.026217  0  0  0.104029  0  1.026747  0  0.058323  0  0.095823  0.100626  0  1.025958  0
H  H38  1  0.31102987  0.29279359  0.69568299  1  0  0.090437  0  0.965817  0  0  0.102081  0  1.026254  0  0  0.104082  0  1.026773  0  0.058219  0  0.095809  0.100671  0  1.025997  0
H  H39  1  0.18897304  0.79278870  0.19567603  1  0  0.0904  0  0.965887  0  0  0.102011  0  1.026351  0  0  0.104006  0  1.02688  0  0.058409  0  0.095806  0.1006  0  1.026095  0
H  H40  1  0.28475421  0.98507466  0.07990087  1  0  0.419372  0  0.888209  0  0  0.391669  0  0.947964  0  0  0.402039  0  0.932558  0  0.637948  0  0.284713  0.384339  0  0.958841  0
H  H41  1  0.21525472  0.48507036  0.57990284  1  0  0.419324  0  0.888288  0  0  0.391716  0  0.947894  0  0  0.402083  0  0.932496  0  0.638003  0  0.284716  0.384385  0  0.958772  0
H  H42  1  0.71525107  0.01492349  0.92009661  1  0  0.41931  0  0.888292  0  0  0.391672  0  0.947954  0  0  0.402044  0  0.932547  0  0.63793  0  0.284699  0.384341  0  0.958833  0
H  H43  1  0.78474416  0.51493034  0.42010201  1  0  0.419298  0  0.88832  0  0  0.391662  0  0.947982  0  0  0.402032  0  0.932577  0  0.638143  0  0.28465  0.384331  0  0.958861  0
H  H44  1  0.19024484  0.86381648  0.02711978  1  0  0.3761  0  0.948865  0  0  0.345631  0  1.014773  0  0  0.355322  0  1.000867  0  0.614648  0  0.258423  0.338819  0  1.024545  0
H  H45  1  0.30975729  0.36380885  0.52712021  1  0  0.376139  0  0.948777  0  0  0.345673  0  1.014681  0  0  0.355364  0  1.000776  0  0.614518  0  0.258448  0.338862  0  1.024452  0
H  H46  1  0.80975884  0.13618335  0.97287999  1  0  0.376106  0  0.948834  0  0  0.345639  0  1.014727  0  0  0.355328  0  1.000825  0  0.61464  0  0.258444  0.338827  0  1.024498  0
H  H47  1  0.69024159  0.63619184  0.47288283  1  0  0.376054  0  0.948891  0  0  0.345586  0  1.014798  0  0  0.355277  0  1.000893  0  0.614503  0  0.258396  0.338774  0  1.024569  0
C  C48  1  0.43340784  0.45197619  0.18769051  1  0  0.352586  0  3.790781  0  0  0.32119  0  4.091234  0  0  0.341044  0  4.102177  0  0.972119  0  0.232026  0.307249  0  4.085385  0
C  C49  1  0.06659515  0.95198641  0.68768180  1  0  0.352539  0  3.790961  0  0  0.321112  0  4.091388  0  0  0.34096  0  4.102338  0  0.972298  0  0.232069  0.307172  0  4.085535  0
C  C50  1  0.56658143  0.54802123  0.81231886  1  0  0.352666  0  3.79096  0  0  0.321232  0  4.09145  0  0  0.341087  0  4.102388  0  0.97171  0  0.232082  0.307286  0  4.085607  0
C  C51  1  0.93340853  0.04801497  0.31230632  1  0  0.352594  0  3.791034  0  0  0.321159  0  4.091472  0  0  0.341014  0  4.102414  0  0.97261  0  0.231969  0.307211  0  4.085631  0
C  C52  1  0.98142202  0.61482382  0.29296335  1  0  -0.148323  0  3.723219  0  0  -0.16452  0  3.968665  0  0  -0.167864  0  3.987518  0  0.014076  0  -0.095618  -0.162281  0  3.955867  0
C  C53  1  0.51860039  0.11483859  0.79295918  1  0  -0.1484  0  3.723693  0  0  -0.164575  0  3.969109  0  0  -0.167899  0  3.987963  0  0.012637  0  -0.095667  -0.162346  0  3.956338  0
C  C54  1  0.01859286  0.38518187  0.70704230  1  0  -0.148223  0  3.723263  0  0  -0.164305  0  3.968691  0  0  -0.16768  0  3.987517  0  0.013955  0  -0.095601  -0.162071  0  3.955898  0
C  C55  1  0.48141769  0.88517446  0.20703160  1  0  -0.14842  0  3.723366  0  0  -0.164665  0  3.968794  0  0  -0.168  0  3.987645  0  0.014338  0  -0.095677  -0.162424  0  3.955996  0
C  C56  1  0.14371035  0.55544014  0.23614713  1  0  0.198574  0  3.856902  0  0  0.20008  0  4.099866  0  0  0.204303  0  4.124123  0  0.384574  0  0.084877  0.197348  0  4.083212  0
C  C57  1  0.35630057  0.05545833  0.73615480  1  0  0.198581  0  3.85673  0  0  0.20006  0  4.099784  0  0  0.204289  0  4.124033  0  0.385748  0  0.084873  0.197323  0  4.083126  0
C  C58  1  0.85629652  0.44455387  0.76385221  1  0  0.198554  0  3.856807  0  0  0.199938  0  4.099884  0  0  0.204162  0  4.124149  0  0.384793  0  0.084861  0.197204  0  4.083228  0
C  C59  1  0.64370791  0.94455478  0.26384325  1  0  0.198604  0  3.856886  0  0  0.200249  0  4.099688  0  0  0.204476  0  4.123938  0  0.384858  0  0.085044  0.197513  0  4.083034  0
C  C60  1  0.13711885  0.54618456  0.14820267  1  0  -0.049036  0  3.773658  0  0  -0.030742  0  4.022494  0  0  -0.033677  0  4.047592  0  -0.193284  0  -0.0198  -0.028707  0  4.005501  0
C  C61  1  0.36287741  0.04621098  0.64820177  1  0  -0.048811  0  3.77312  0  0  -0.030588  0  4.022062  0  0  -0.033525  0  4.047159  0  -0.193108  0  -0.019675  -0.028544  0  4.005059  0
C  C62  1  0.86286722  0.45379537  0.85180180  1  0  -0.048914  0  3.7733  0  0  -0.030519  0  4.022046  0  0  -0.033454  0  4.047138  0  -0.193049  0  -0.019692  -0.028478  0  4.005045  0
C  C63  1  0.63711186  0.95380955  0.35179051  1  0  -0.048771  0  3.7734  0  0  -0.030602  0  4.022313  0  0  -0.033541  0  4.047416  0  -0.193096  0  -0.01975  -0.028561  0  4.005313  0
C  C64  1  0.75270688  0.32802205  0.13294472  1  0  0.327961  0  3.802308  0  0  0.301424  0  4.110977  0  0  0.327159  0  4.120215  0  0.214689  0  0.127008  0.284027  0  4.103977  0
C  C65  1  0.74731082  0.82802979  0.63293652  1  0  0.327999  0  3.802581  0  0  0.301438  0  4.111178  0  0  0.327163  0  4.120421  0  0.214921  0  0.12704  0.284044  0  4.104177  0
C  C66  1  0.24730159  0.67197538  0.86706586  1  0  0.327989  0  3.802537  0  0  0.301469  0  4.111187  0  0  0.327205  0  4.120414  0  0.215197  0  0.127019  0.284073  0  4.104188  0
C  C67  1  0.25269606  0.17196833  0.36705733  1  0  0.32811  0  3.80256  0  0  0.301586  0  4.111113  0  0  0.32732  0  4.120344  0  0.214592  0  0.127097  0.28419  0  4.104115  0
C  C68  1  0.97323339  0.59443828  0.11642462  1  0  -0.105457  0  3.783373  0  0  -0.127496  0  4.04091  0  0  -0.12827  0  4.060693  0  -0.014549  0  -0.102917  -0.126719  0  4.027059  0
C  C69  1  0.52674537  0.09445472  0.61642213  1  0  -0.105332  0  3.783625  0  0  -0.127343  0  4.041142  0  0  -0.128114  0  4.060926  0  -0.015258  0  -0.102914  -0.126571  0  4.027295  0
C  C70  1  0.02674469  0.40554580  0.88357979  1  0  -0.105304  0  3.783629  0  0  -0.127371  0  4.041143  0  0  -0.128142  0  4.060922  0  -0.015604  0  -0.102956  -0.126599  0  4.027299  0
C  C71  1  0.47323910  0.90555498  0.38356650  1  0  -0.105637  0  3.783533  0  0  -0.127649  0  4.041121  0  0  -0.128424  0  4.06091  0  -0.014881  0  -0.102994  -0.126873  0  4.027261  0
C  C72  1  0.81295276  0.65199663  0.17364387  1  0  -0.073694  0  3.768204  0  0  -0.0914  0  4.026341  0  0  -0.094463  0  4.04857  0  -0.006415  0  -0.100675  -0.089019  0  4.011568  0
C  C73  1  0.68703374  0.15201635  0.67363625  1  0  -0.073885  0  3.767994  0  0  -0.091486  0  4.026165  0  0  -0.09455  0  4.048393  0  -0.006111  0  -0.100605  -0.089131  0  4.011381  0
C  C74  1  0.18702371  0.34798828  0.82636017  1  0  -0.073903  0  3.767929  0  0  -0.091559  0  4.026111  0  0  -0.094622  0  4.048338  0  -0.006069  0  -0.100693  -0.08921  0  4.011327  0
C  C75  1  0.31295394  0.84799167  0.32635070  1  0  -0.073636  0  3.768074  0  0  -0.091392  0  4.026204  0  0  -0.094457  0  4.048429  0  -0.006029  0  -0.100621  -0.089001  0  4.011436  0
C  C76  1  0.81716630  0.66206217  0.26118513  1  0  -0.057523  0  3.754869  0  0  -0.07505  0  4.009282  0  0  -0.075671  0  4.030749  0  -0.052577  0  -0.097759  -0.07475  0  3.995284  0
C  C77  1  0.68282362  0.16207856  0.76117658  1  0  -0.057544  0  3.755176  0  0  -0.075061  0  4.00956  0  0  -0.075682  0  4.031022  0  -0.051678  0  -0.097913  -0.074765  0  3.995569  0
C  C78  1  0.18281818  0.33793187  0.73881724  1  0  -0.057584  0  3.754895  0  0  -0.075128  0  4.009253  0  0  -0.075757  0  4.030744  0  -0.051857  0  -0.097792  -0.07483  0  3.995269  0
C  C79  1  0.31717205  0.83792859  0.23880469  1  0  -0.057505  0  3.754693  0  0  -0.075015  0  4.009121  0  0  -0.075638  0  4.030587  0  -0.052807  0  -0.097831  -0.074715  0  3.995119  0
S  S80  1  0.72347848  0.31339547  0.02743410  1  0  -0.406224  0  2.045437  0  0  -0.368173  0  2.359379  0  0  -0.386574  0  2.355161  0  -0.198408  0  -0.142406  -0.355535  0  2.36241  0
S  S81  1  0.77653425  0.81339575  0.52742804  1  0  -0.406166  0  2.04548  0  0  -0.368105  0  2.359415  0  0  -0.386514  0  2.35521  0  -0.19877  0  -0.142338  -0.355463  0  2.362443  0
S  S82  1  0.27651080  0.68660612  0.97257704  1  0  -0.4062  0  2.04532  0  0  -0.368139  0  2.359236  0  0  -0.386542  0  2.355019  0  -0.198567  0  -0.142342  -0.355499  0  2.362266  0
S  S83  1  0.22346463  0.18659657  0.47256780  1  0  -0.406174  0  2.045427  0  0  -0.368116  0  2.359309  0  0  -0.386516  0  2.355096  0  -0.198597  0  -0.142347  -0.355478  0  2.36234  0
S  S84  1  0.95328345  0.26761635  0.17056098  1  0  -0.468687  0  1.954588  0  0  -0.444652  0  2.27624  0  0  -0.460677  0  2.268861  0  -0.291803  0  -0.168544  -0.433406  0  2.281907  0
S  S85  1  0.54674809  0.76763741  0.67055531  1  0  -0.468662  0  1.954827  0  0  -0.444633  0  2.276478  0  0  -0.460659  0  2.2691  0  -0.291596  0  -0.168534  -0.433388  0  2.28215  0
S  S86  1  0.04672823  0.73237272  0.82944424  1  0  -0.468725  0  1.954753  0  0  -0.444715  0  2.27645  0  0  -0.460738  0  2.269066  0  -0.291965  0  -0.168538  -0.433471  0  2.282124  0
S  S87  1  0.45327319  0.23237073  0.32944437  1  0  -0.4687  0  1.954837  0  0  -0.444717  0  2.276519  0  0  -0.460738  0  2.269136  0  -0.291574  0  -0.168545  -0.433465  0  2.282176  0
S  S88  1  0.35272168  0.46716858  0.09115709  1  0  0.036079  0  2.574588  0  0  0.036199  0  2.908917  0  0  0.034689  0  2.912436  0  0.246774  0  0.082773  0.03698  0  2.908319  0
S  S89  1  0.14728004  0.96718968  0.59115748  1  0  0.035965  0  2.574489  0  0  0.036084  0  2.908885  0  0  0.034568  0  2.912418  0  0.24717  0  0.082669  0.036865  0  2.908284  0
S  S90  1  0.64726280  0.53281716  0.90884658  1  0  0.036026  0  2.57447  0  0  0.036144  0  2.908761  0  0  0.034626  0  2.912295  0  0.24641  0  0.082734  0.036925  0  2.908163  0
S  S91  1  0.85271724  0.03282011  0.40884206  1  0  0.035965  0  2.574293  0  0  0.036108  0  2.908671  0  0  0.034592  0  2.912204  0  0.246877  0  0.08271  0.036889  0  2.908073  0
N  N92  1  0.31528085  0.50174478  0.25704083  1  0  -0.501386  0  3.048807  0  0  -0.467954  0  3.326735  0  0  -0.482996  0  3.337295  0  -1.2114  0  -0.378025  -0.457397  0  3.320057  0
N  N93  1  0.18472433  0.00175283  0.75702934  1  0  -0.501271  0  3.048881  0  0  -0.467808  0  3.326807  0  0  -0.482851  0  3.337376  0  -1.211116  0  -0.377957  -0.457248  0  3.320125  0
N  N94  1  0.68471483  0.49825931  0.74297161  1  0  -0.501552  0  3.048955  0  0  -0.468081  0  3.326977  0  0  -0.483122  0  3.337535  0  -1.210605  0  -0.378091  -0.457522  0  3.320299  0
N  N95  1  0.81528735  0.99825019  0.24295561  1  0  -0.501346  0  3.04905  0  0  -0.467947  0  3.326946  0  0  -0.48299  0  3.33751  0  -1.212065  0  -0.378047  -0.457389  0  3.320271  0
N  N96  1  0.61156497  0.39236881  0.19444467  1  0  -0.375295  0  3.416161  0  0  -0.312757  0  3.65529  0  0  -0.335095  0  3.665306  0  -1.231915  0  -0.377877  -0.29747  0  3.648549  0
N  N97  1  0.88844583  0.89237155  0.69443446  1  0  -0.375628  0  3.41631  0  0  -0.312808  0  3.65525  0  0  -0.33513  0  3.665258  0  -1.232895  0  -0.378044  -0.297521  0  3.648513  0
N  N98  1  0.38843230  0.60763444  0.80556694  1  0  -0.375348  0  3.416361  0  0  -0.31285  0  3.655468  0  0  -0.335168  0  3.665487  0  -1.232569  0  -0.377975  -0.297561  0  3.648731  0
N  N99  1  0.11157225  0.10762155  0.30555617  1  0  -0.375673  0  3.416568  0  0  -0.313019  0  3.655587  0  0  -0.335353  0  3.665597  0  -1.232378  0  -0.378049  -0.297729  0  3.648851  0
O  O100  1  0.47567066  0.08620473  0.12594820  1  0  -0.869817  0  1.90758  0  0  -0.811294  0  2.085295  0  0  -0.83069  0  2.053052  0  -1.297018  0  -0.640315  -0.797489  0  2.107719  0
O  O101  1  0.02433667  0.58620258  0.62594992  1  0  -0.869784  0  1.90753  0  0  -0.811303  0  2.085262  0  0  -0.830702  0  2.053018  0  -1.297072  0  -0.640337  -0.797488  0  2.107682  0
O  O102  1  0.52434102  0.91379843  0.87405190  1  0  -0.869797  0  1.907574  0  0  -0.811317  0  2.085336  0  0  -0.830713  0  2.05309  0  -1.297073  0  -0.64036  -0.797504  0  2.107754  0
O  O103  1  0.97566060  0.41379563  0.37405484  1  0  -0.869844  0  1.907549  0  0  -0.811339  0  2.085224  0  0  -0.830732  0  2.052975  0  -1.297176  0  -0.6403  -0.797529  0  2.107656  0
O  O104  1  0.70587077  0.82530870  0.98308590  1  0  -0.834252  0  1.916851  0  0  -0.772071  0  2.089994  0  0  -0.791219  0  2.060224  0  -1.24674  0  -0.614953  -0.758561  0  2.110726  0
O  O105  1  0.79410789  0.32530758  0.48308991  1  0  -0.834236  0  1.916495  0  0  -0.772011  0  2.089858  0  0  -0.791163  0  2.060108  0  -1.246745  0  -0.614975  -0.7585  0  2.110592  0
O  O106  1  0.29412170  0.17469029  0.01691303  1  0  -0.834204  0  1.916843  0  0  -0.77207  0  2.08997  0  0  -0.791203  0  2.060167  0  -1.24673  0  -0.614938  -0.75856  0  2.110701  0
O  O107  1  0.20587819  0.67469233  0.51691895  1  0  -0.834142  0  1.916784  0  0  -0.771987  0  2.090013  0  0  -0.791104  0  2.060175  0  -1.24671  0  -0.614904  -0.75848  0  2.110761  0
O  O108  1  0.16253521  0.94461574  0.04350690  1  0  -0.915603  0  1.833761  0  0  -0.863513  0  2.010731  0  0  -0.880601  0  1.978669  0  -1.32642  0  -0.70467  -0.851466  0  2.03314  0
O  O109  1  0.33747346  0.44460646  0.54350868  1  0  -0.915601  0  1.833847  0  0  -0.863587  0  2.010705  0  0  -0.880675  0  1.978639  0  -1.32633  0  -0.704665  -0.85154  0  2.033113  0
O  O110  1  0.83747167  0.05538574  0.95649212  1  0  -0.915564  0  1.833873  0  0  -0.86352  0  2.010781  0  0  -0.880609  0  1.978719  0  -1.326639  0  -0.704673  -0.851473  0  2.03319  0
O  O111  1  0.66253182  0.55539261  0.45649934  1  0  -0.915483  0  1.833914  0  0  -0.863455  0  2.010784  0  0  -0.880543  0  1.978718  0  -1.326623  0  -0.704554  -0.851407  0  2.033191  0
