# generated using pymatgen
data_CoH13C18(NO3)2
_symmetry_space_group_name_H-M   'P 1'
_cell_length_a   8.84686440
_cell_length_b   9.77844535
_cell_length_c   10.35465396
_cell_angle_alpha   93.19828164
_cell_angle_beta   106.31443497
_cell_angle_gamma   108.81839331
_symmetry_Int_Tables_number   1
_chemical_formula_structural   CoH13C18(NO3)2
_chemical_formula_sum   'Co2 H26 C36 N4 O12'
_cell_volume   803.10629274
_cell_formula_units_Z   2
loop_
 _symmetry_equiv_pos_site_id
 _symmetry_equiv_pos_as_xyz
  1  'x, y, z'
loop_
 _atom_site_type_symbol
 _atom_site_label
 _atom_site_symmetry_multiplicity
 _atom_site_fract_x
 _atom_site_fract_y
 _atom_site_fract_z
 _atom_site_occupancy
 _atom_site_hle17_ddec_charge
 _atom_site_hle17_ddec_spin_density
 _atom_site_hle17_ddec_sum_bond_order
 _atom_site_hle17_magmom
 _atom_site_hse06_10hf_ddec_charge
 _atom_site_hse06_10hf_ddec_spin_density
 _atom_site_hse06_10hf_ddec_sum_bond_order
 _atom_site_hse06_10hf_magmom
 _atom_site_hse06_ddec_charge
 _atom_site_hse06_ddec_spin_density
 _atom_site_hse06_ddec_sum_bond_order
 _atom_site_hse06_magmom
 _atom_site_pbe_cm5_charge
 _atom_site_pbe_ddec_charge
 _atom_site_pbe_ddec_spin_density
 _atom_site_pbe_ddec_sum_bond_order
 _atom_site_pbe_magmom
Co  Co0  1  0.17549574  0.39238758  0.64094241  1  1.073275  2.935428  1.86203  2.58  1.039712  2.886689  2.280958  2.648  1.114884  2.923992  2.208248  2.722  0.66927  0.977501  2.856725  2.340684  2.576
Co  Co1  1  0.82450505  0.60761371  0.35905946  1  1.073213  -2.935433  1.862029  -2.58  1.039684  -2.886699  2.280916  -2.648  1.114862  -2.923999  2.208227  -2.722  0.669253  0.977464  -2.856734  2.340644  -2.576
H  H2  1  0.33009768  0.00292601  0.76947429  1  0.146219  -0.000267  0.953619  0.0  0.150519  -9.6e-05  1.017905  0.0  0.155742  -8e-05  1.015402  0.0  0.111868  0.146963  -0.000108  1.019576  0.0
H  H3  1  0.66989722  0.99707524  0.23052612  1  0.146219  0.000267  0.95363  0.0  0.150581  9.6e-05  1.017843  0.0  0.155804  8e-05  1.01534  0.0  0.111889  0.147026  0.000108  1.019515  0.0
H  H4  1  0.61483757  0.00965642  0.89751917  1  0.099039  0.000235  0.92523  0.0  0.110583  0.000147  0.985718  0.0  0.112876  9.2e-05  0.983498  0.0  0.128481  0.109021  0.000204  0.987247  0.0
H  H5  1  0.38515393  0.99033930  0.10248195  1  0.099044  -0.000235  0.925228  0.0  0.110605  -0.000147  0.985689  0.0  0.112904  -9.2e-05  0.983455  0.0  0.1285  0.109004  -0.000204  0.987264  0.0
H  H6  1  0.80573104  0.46567548  0.97787020  1  0.104513  0.000108  0.929878  0.0  0.113227  5.1e-05  0.992322  0.0  0.115625  5.6e-05  0.990633  0.0  0.12841  0.111707  4.1e-05  0.993163  0.0
H  H7  1  0.19426985  0.53431714  0.02212914  1  0.104558  -0.000108  0.929934  0.0  0.113335  -5.1e-05  0.992293  0.0  0.115729  -5.6e-05  0.990609  0.0  0.128453  0.111812  -4.1e-05  0.993136  0.0
H  H8  1  0.52724018  0.47993470  0.85004253  1  0.140219  -0.000157  0.967155  0.0  0.147259  -2.9e-05  1.027277  0.0  0.151315  -7.8e-05  1.026163  0.0  0.111971  0.144417  4.7e-05  1.028043  0.0
H  H9  1  0.47276824  0.52006787  0.14995648  1  0.140205  0.000157  0.967158  0.0  0.147247  2.9e-05  1.027284  0.0  0.151298  7.8e-05  1.02617  0.0  0.111969  0.144406  -4.7e-05  1.028051  0.0
H  H10  1  0.90956840  0.14454011  0.82717048  1  0.108858  -0.000103  0.973429  0.0  0.116447  -6.2e-05  1.038396  0.0  0.118611  -5.5e-05  1.03856  0.0  0.108905  0.114992  -9.3e-05  1.038622  0.0
H  H11  1  0.09043215  0.85545464  0.17283086  1  0.108847  0.000103  0.973486  0.0  0.116449  6.1e-05  1.038419  0.0  0.118613  5.5e-05  1.038582  0.0  0.10891  0.114994  9.3e-05  1.038652  0.0
H  H12  1  0.19175366  0.13576061  0.94505558  1  0.095771  4.5e-05  0.957611  0.0  0.107533  -2.5e-05  1.014611  0.0  0.110161  -4e-05  1.014409  0.0  0.102318  0.105321  -2e-06  1.015261  0.0
H  H13  1  0.80824610  0.86423517  0.05494757  1  0.095779  -4.6e-05  0.957612  0.0  0.107488  2.5e-05  1.014659  0.0  0.110159  4e-05  1.014405  0.0  0.102296  0.105269  2e-06  1.01532  0.0
H  H14  1  0.32276010  0.22472623  0.19664926  1  0.102834  -0.000193  0.95595  0.0  0.112994  -0.000213  1.016288  0.0  0.116991  -0.000132  1.013087  0.0  0.106482  0.109955  -0.000291  1.018889  0.0
H  H15  1  0.67723861  0.77527282  0.80335386  1  0.102813  0.000193  0.955958  0.0  0.112986  0.000213  1.016285  0.0  0.116987  0.000133  1.013079  0.0  0.106464  0.109941  0.000291  1.0189  0.0
H  H16  1  0.99314511  0.06125900  0.59009415  1  0.082114  0.000404  0.953898  0.002  0.089426  0.000122  1.018545  0.001  0.092496  4.3e-05  1.015239  0.001  0.11575  0.086602  0.000225  1.022076  0.001
H  H17  1  0.00685222  0.93874238  0.40990301  1  0.082071  -0.000406  0.953889  -0.002  0.089391  -0.000122  1.018529  -0.001  0.092456  -4.4e-05  1.015229  -0.001  0.11574  0.086567  -0.000226  1.022063  -0.001
H  H18  1  0.70119985  0.88322243  0.51351986  1  0.111685  0.000108  0.987732  0.0  0.119872  0.000277  1.050128  0.0  0.123082  0.000226  1.049569  0.0  0.106641  0.117188  0.000319  1.05123  0.0
H  H19  1  0.29879849  0.11678132  0.48647095  1  0.111738  -0.000107  0.98767  0.0  0.119901  -0.000277  1.050082  0.0  0.12311  -0.000225  1.049522  0.0  0.106649  0.117223  -0.000319  1.051177  0.0
H  H20  1  0.53551104  0.25185668  0.54727000  1  0.116437  5.5e-05  0.974661  0.0  0.126017  0.000188  1.034352  0.0  0.129572  0.00014  1.032868  0.0  0.106989  0.122888  0.000242  1.036559  0.0
H  H21  1  0.46448721  0.74814693  0.45272561  1  0.116394  -5.5e-05  0.974773  0.0  0.125994  -0.000188  1.034444  0.0  0.129545  -0.000141  1.032958  0.0  0.106986  0.122863  -0.000242  1.036648  0.0
H  H22  1  0.83412796  0.41096647  0.62136417  1  0.082882  0.000496  0.978311  0.002  0.088687  0.000241  1.046246  0.001  0.091594  0.00016  1.04335  0.001  0.114102  0.08586  0.000335  1.049556  0.001
H  H23  1  0.16587087  0.58903585  0.37863922  1  0.082808  -0.000497  0.978363  -0.002  0.088652  -0.000241  1.046272  -0.001  0.091556  -0.00016  1.043375  -0.001  0.11409  0.085825  -0.000335  1.049584  -0.001
H  H24  1  0.48257453  0.59161589  0.63164523  1  0.44103  0.000704  0.859099  0.002  0.411793  0.000827  0.920487  0.002  0.42322  0.000622  0.904085  0.002  0.293156  0.403777  0.000998  0.931899  0.002
H  H25  1  0.51742393  0.40838542  0.36835510  1  0.441013  -0.000703  0.859118  -0.002  0.411767  -0.000827  0.920523  -0.002  0.423195  -0.000622  0.90412  -0.002  0.293153  0.40375  -0.000998  0.931936  -0.002
H  H26  1  0.36475464  0.65646254  0.69917063  1  0.411691  0.000288  0.903118  0.0  0.380651  0.000578  0.968029  0.001  0.392765  0.000366  0.950748  0.001  0.284434  0.372183  0.000786  0.980007  0.001
H  H27  1  0.63524783  0.34353994  0.30082883  1  0.411703  -0.000288  0.903107  0.0  0.380675  -0.000578  0.968008  -0.001  0.392778  -0.000367  0.950738  -0.001  0.284431  0.372207  -0.000786  0.979986  -0.001
C  C28  1  0.40101456  0.24281242  0.79558230  1  0.427968  -0.00197  3.857172  -0.004  0.417487  0.002112  4.122665  0.002  0.444301  0.001919  4.130234  0.003  0.113835  0.398519  0.002088  4.115491  0.001
C  C29  1  0.59898640  0.75719221  0.20441791  1  0.427912  0.00197  3.857257  0.004  0.417388  -0.002112  4.122825  -0.002  0.444189  -0.001916  4.130409  -0.003  0.113716  0.398425  -0.002088  4.115642  -0.001
C  C30  1  0.43075140  0.10833859  0.81293633  1  -0.245257  0.006329  3.687026  0.009  -0.265984  0.002843  3.951606  0.004  -0.280308  0.00168  3.96909  0.003  -0.097026  -0.255685  0.004467  3.939031  0.006
C  C31  1  0.56924471  0.89166273  0.18706246  1  -0.245347  -0.006328  3.687125  -0.009  -0.26612  -0.002843  3.951722  -0.004  -0.280441  -0.00168  3.969208  -0.003  -0.097023  -0.255819  -0.004467  3.939131  -0.006
C  C32  1  0.58743139  0.10951073  0.88276728  1  0.103684  -0.001377  3.66513  -0.002  0.056961  0.000459  3.927519  0.0  0.068914  0.000475  3.942397  0.001  0.050559  0.049065  0.00041  3.917584  0.0
C  C33  1  0.41256423  0.89048942  0.11723419  1  0.103763  0.001376  3.665028  0.002  0.057039  -0.000459  3.927388  0.0  0.068978  -0.000474  3.942292  -0.001  0.050574  0.049175  -0.00041  3.917465  0.0
C  C34  1  0.69552050  0.36832715  0.92862615  1  0.111558  -0.002353  3.648175  -0.003  0.06832  -0.000547  3.903297  -0.001  0.080026  -0.000301  3.91896  -0.001  0.05063  0.060005  -0.000875  3.893737  -0.001
C  C35  1  0.30448056  0.63166879  0.07137154  1  0.111412  0.002354  3.648195  0.003  0.068105  0.000547  3.903374  0.001  0.079838  0.000302  3.918983  0.001  0.050536  0.059788  0.000875  3.893822  0.001
C  C36  1  0.54173563  0.37425004  0.85986420  1  -0.243698  0.003941  3.673809  0.005  -0.262275  0.001747  3.926998  0.002  -0.277122  0.000943  3.946022  0.001  -0.09731  -0.252026  0.002833  3.913952  0.004
C  C37  1  0.45826639  0.62575132  0.14013604  1  -0.243573  -0.003941  3.673761  -0.005  -0.262136  -0.001747  3.926982  -0.002  -0.276979  -0.000943  3.946006  -0.001  -0.097245  -0.251892  -0.002833  3.913934  -0.004
C  C38  1  0.88388761  0.23415006  0.01110509  1  0.120032  -0.000977  3.758922  -0.001  0.107085  -0.000882  4.014838  -0.001  0.109808  -0.00067  4.036948  -0.001  0.08742  0.105131  -0.001206  3.999453  -0.002
C  C39  1  0.11611168  0.76584457  0.98889980  1  0.120079  0.000989  3.758908  0.001  0.107115  0.000882  4.014841  0.001  0.109834  0.000669  4.036956  0.001  0.087438  0.10516  0.001206  3.999452  0.002
C  C40  1  0.96772640  0.18124374  0.93646712  1  -0.10976  -0.000286  3.724388  0.0  -0.138553  -6.1e-05  3.987793  0.0  -0.138072  8.2e-05  4.005628  0.0  -0.08203  -0.13874  -0.0003  3.975716  0.0
C  C41  1  0.03226968  0.81874872  0.06353585  1  -0.109785  0.000273  3.724507  0.0  -0.138571  6.1e-05  3.98789  0.0  -0.138092  -7.9e-05  4.005737  0.0  -0.082059  -0.138758  0.000299  3.975817  0.0
C  C42  1  0.12633074  0.17735888  0.00329592  1  -0.051136  -0.00089  3.761507  -0.001  -0.063912  -0.000825  4.014517  -0.001  -0.066611  -0.000637  4.035075  -0.001  -0.087344  -0.062236  -0.001278  4.001249  -0.001
C  C43  1  0.87366621  0.82263576  0.99670742  1  -0.051112  0.000904  3.761506  0.001  -0.063838  0.000825  4.014502  0.001  -0.066565  0.000636  4.035038  0.001  -0.087308  -0.062157  0.001278  4.001237  0.001
C  C44  1  0.19899888  0.22720974  0.14288135  1  -0.075523  0.000414  3.737923  0.001  -0.102011  0.000428  3.989917  0.001  -0.101814  0.000422  4.009679  0.001  -0.083594  -0.102209  0.000181  3.977212  0.0
C  C45  1  0.80099898  0.77278714  0.85712045  1  -0.075553  -0.000428  3.73797  -0.001  -0.102036  -0.000427  3.989941  -0.001  -0.101851  -0.000422  4.009708  -0.001  -0.083564  -0.102224  -0.000182  3.97724  0.0
C  C46  1  0.11519835  0.28086277  0.21839923  1  -0.071548  0.002832  3.717943  0.004  -0.055278  0.001143  3.948552  0.002  -0.062772  0.000696  3.970418  0.001  -0.013585  -0.050747  0.001451  3.935156  0.003
C  C47  1  0.88480359  0.71913848  0.78160485  1  -0.071377  -0.002819  3.717774  -0.004  -0.055148  -0.001144  3.94845  -0.002  -0.062617  -0.00069  3.970279  -0.001  -0.013618  -0.050651  -0.001451  3.93509  -0.003
C  C48  1  0.95368173  0.28358277  0.15205699  1  -0.099068  -0.003148  3.671734  -0.005  -0.09327  -0.001513  3.909692  -0.002  -0.094488  -0.000755  3.924955  -0.001  0.002356  -0.092742  -0.002487  3.900138  -0.004
C  C49  1  0.04632133  0.71641529  0.84794423  1  -0.099195  0.003136  3.671572  0.005  -0.093391  0.001514  3.909575  0.002  -0.094614  0.000755  3.924835  0.001  0.002336  -0.092849  0.002488  3.900025  0.004
C  C50  1  0.85183339  0.33822003  0.22383512  1  0.680744  -0.000231  3.899487  0.001  0.627702  -0.002928  4.211248  -0.003  0.665424  -0.00232  4.199832  -0.003  0.212779  0.600969  -0.003545  4.217687  -0.003
C  C51  1  0.14816817  0.66177709  0.77615987  1  0.680815  0.000232  3.89943  -0.001  0.627771  0.002929  4.211184  0.003  0.665492  0.002317  4.199772  0.003  0.212805  0.601037  0.003546  4.217626  0.003
C  C52  1  0.19751010  0.32777538  0.37024637  1  0.644814  -0.001835  3.901636  -0.004  0.59925  0.001322  4.202447  0.001  0.635046  0.001207  4.195634  0.001  0.212254  0.573804  0.001203  4.205651  0.001
C  C53  1  0.80249275  0.67222811  0.62975616  1  0.644747  0.001834  3.901597  0.004  0.599187  -0.001321  4.202423  -0.001  0.634976  -0.001208  4.195611  -0.001  0.212263  0.57375  -0.001202  4.205622  -0.001
C  C54  1  0.88679336  0.09795663  0.57802087  1  0.119676  -0.011029  3.713913  -0.015  0.094975  -0.002883  3.966483  -0.004  0.103288  -0.002749  3.981053  -0.004  0.040936  0.08808  -0.003639  3.959338  -0.005
C  C55  1  0.11320637  0.90204482  0.42197495  1  0.119993  0.011045  3.713853  0.015  0.095295  0.002883  3.966405  0.004  0.103615  0.002753  3.980979  0.004  0.041101  0.088392  0.003639  3.959259  0.005
C  C56  1  0.72255539  0.99919949  0.53572356  1  -0.160148  0.011172  3.698523  0.015  -0.176724  0.003184  3.942191  0.004  -0.18393  0.002947  3.962184  0.004  -0.086783  -0.172985  0.003943  3.931584  0.006
C  C57  1  0.27744593  0.00080301  0.46427465  1  -0.160327  -0.011188  3.698428  -0.015  -0.176879  -0.003184  3.942108  -0.004  -0.184083  -0.002949  3.962101  -0.004  -0.086804  -0.173143  -0.003944  3.931511  -0.006
C  C58  1  0.58831669  0.05027723  0.52302865  1  0.08608  -0.011856  3.765802  -0.016  0.099785  -0.003675  3.991902  -0.005  0.104103  -0.003035  4.012636  -0.004  0.005094  0.095647  -0.005317  3.980332  -0.007
C  C59  1  0.41168501  0.94972319  0.47696565  1  0.086112  0.011866  3.765826  0.016  0.099812  0.003673  3.991927  0.005  0.10413  0.003034  4.012661  0.004  0.005096  0.095672  0.005316  3.980363  0.007
C  C60  1  0.63087158  0.20200070  0.55579606  1  -0.155299  0.011321  3.688677  0.015  -0.172586  0.003305  3.933046  0.005  -0.179544  0.003177  3.952717  0.004  -0.083319  -0.169241  0.003794  3.923399  0.006
C  C61  1  0.36912650  0.79799959  0.44420120  1  -0.15521  -0.011336  3.688732  -0.015  -0.172514  -0.003304  3.933123  -0.005  -0.179464  -0.003177  3.952787  -0.004  -0.083292  -0.169165  -0.003794  3.923476  -0.006
C  C62  1  0.79852628  0.29309863  0.59692678  1  0.134737  -0.010122  3.687054  -0.014  0.105503  -0.002188  3.9457  -0.003  0.114133  -0.002228  3.95987  -0.004  0.043161  0.098154  -0.002703  3.93957  -0.004
C  C63  1  0.20147097  0.70690264  0.40307422  1  0.134823  0.010138  3.687028  0.014  0.10555  0.002188  3.945698  0.003  0.114187  0.002229  3.959871  0.004  0.043153  0.098195  0.002703  3.939563  0.004
N  N64  1  0.92628568  0.24343086  0.60884859  1  -0.311676  0.043012  3.296634  0.076  -0.264382  0.027598  3.57775  0.048  -0.285018  0.023087  3.589713  0.041  -0.326019  -0.25068  0.031868  3.572253  0.055
N  N65  1  0.07371201  0.75657150  0.39115259  1  -0.311931  -0.043025  3.296768  -0.076  -0.264662  -0.027598  3.577942  -0.048  -0.285302  -0.023087  3.589913  -0.041  -0.326145  -0.250934  -0.031867  3.572423  -0.055
N  N66  1  0.71973060  0.23758151  0.93976285  1  -0.083972  0.001453  3.600021  0.003  0.004792  0.001028  3.811937  0.002  -0.01244  0.000777  3.838588  0.001  -0.219515  0.016422  0.001385  3.793501  0.002
N  N67  1  0.28027129  0.76241657  0.06023712  1  -0.083989  -0.001454  3.599916  -0.003  0.004782  -0.001028  3.81186  -0.002  -0.012453  -0.000777  3.838516  -0.001  -0.219533  0.016417  -0.001385  3.79341  -0.002
O  O68  1  0.09841962  0.33845629  0.43706238  1  -0.620416  0.045914  2.115893  0.073  -0.588929  0.03227  2.402669  0.047  -0.62695  0.024707  2.39209  0.035  -0.306888  -0.55664  0.040565  2.406902  0.06
O  O69  1  0.90158304  0.66154385  0.56294277  1  -0.620375  -0.04591  2.115988  -0.073  -0.58889  -0.032269  2.40275  -0.047  -0.626911  -0.024708  2.392179  -0.035  -0.306844  -0.556604  -0.040564  2.406983  -0.06
O  O70  1  0.89702751  0.47819059  0.24681114  1  -0.647383  -0.038813  2.089814  -0.06  -0.61643  -0.027987  2.37932  -0.039  -0.653387  -0.021967  2.365289  -0.029  -0.316596  -0.585614  -0.034975  2.386917  -0.049
O  O71  1  0.10297362  0.52180543  0.75318367  1  -0.647493  0.038817  2.089961  0.06  -0.616513  0.027991  2.37943  0.039  -0.653475  0.021972  2.365398  0.029  -0.316604  -0.585699  0.03498  2.387031  0.049
O  O72  1  0.39163354  0.56747455  0.67529907  1  -0.880502  0.028899  2.010862  0.046  -0.831232  0.02884  2.223307  0.04  -0.859605  0.024019  2.183079  0.032  -0.583806  -0.808331  0.033462  2.251551  0.047
O  O73  1  0.60836730  0.43252680  0.32470088  1  -0.880512  -0.028901  2.010894  -0.046  -0.831253  -0.028841  2.223312  -0.04  -0.859611  -0.02402  2.1831  -0.032  -0.583809  -0.808352  -0.033464  2.251556  -0.047
O  O74  1  0.25333930  0.23956603  0.72645410  1  -0.58296  0.04698  2.100421  0.076  -0.556333  0.03182  2.387743  0.048  -0.592414  0.02364  2.376169  0.034  -0.311216  -0.525274  0.041947  2.393523  0.064
O  O75  1  0.74666168  0.76043862  0.27354515  1  -0.582887  -0.046978  2.100408  -0.076  -0.556238  -0.031818  2.387708  -0.048  -0.592328  -0.023643  2.376172  -0.034  -0.311144  -0.52518  -0.041945  2.393489  -0.064
O  O76  1  0.35156647  0.34879037  0.42372045  1  -0.615265  -0.000214  1.991537  0.0  -0.567264  0.000705  2.21804  0.001  -0.591686  0.000528  2.20812  0.001  -0.309227  -0.549241  0.000715  2.224475  0.001
O  O77  1  0.64843089  0.65121415  0.57628177  1  -0.615286  0.000214  1.991393  0.0  -0.567303  -0.000706  2.217929  -0.001  -0.591723  -0.000532  2.208012  -0.001  -0.309272  -0.549276  -0.000716  2.224357  -0.001
O  O78  1  0.72716654  0.24530563  0.24357989  1  -0.592184  -0.002367  1.936468  -0.004  -0.54138  -0.002516  2.149724  -0.004  -0.567784  -0.001571  2.141403  -0.003  -0.30354  -0.521738  -0.003558  2.154639  -0.006
O  O79  1  0.27283513  0.75469785  0.75642235  1  -0.592172  0.002367  1.93647  0.004  -0.541346  0.002517  2.14971  0.004  -0.567756  0.001572  2.141396  0.003  -0.303544  -0.521701  0.003559  2.154619  0.006
