# generated using pymatgen
data_BaH15C8NO12
_symmetry_space_group_name_H-M   'P 1'
_cell_length_a   7.00986713
_cell_length_b   11.04717023
_cell_length_c   11.11025757
_cell_angle_alpha   116.51525694
_cell_angle_beta   103.68111079
_cell_angle_gamma   99.23974912
_symmetry_Int_Tables_number   1
_chemical_formula_structural   BaH15C8NO12
_chemical_formula_sum   'Ba2 H30 C16 N2 O24'
_cell_volume   712.11582597
_cell_formula_units_Z   2
loop_
 _symmetry_equiv_pos_site_id
 _symmetry_equiv_pos_as_xyz
  1  'x, y, z'
loop_
 _atom_site_type_symbol
 _atom_site_label
 _atom_site_symmetry_multiplicity
 _atom_site_fract_x
 _atom_site_fract_y
 _atom_site_fract_z
 _atom_site_occupancy
 _atom_site_hle17_bader_spin_density
 _atom_site_hle17_ddec_charge
 _atom_site_hle17_ddec_spin_density
 _atom_site_hle17_ddec_sum_bond_order
 _atom_site_hle17_magmom
 _atom_site_hse06_10hf_bader_spin_density
 _atom_site_hse06_10hf_ddec_charge
 _atom_site_hse06_10hf_ddec_spin_density
 _atom_site_hse06_10hf_ddec_sum_bond_order
 _atom_site_hse06_10hf_magmom
 _atom_site_hse06_bader_spin_density
 _atom_site_hse06_ddec_charge
 _atom_site_hse06_ddec_spin_density
 _atom_site_hse06_ddec_sum_bond_order
 _atom_site_hse06_magmom
 _atom_site_pbe_bader_spin_density
 _atom_site_pbe_cm5_charge
 _atom_site_pbe_ddec_charge
 _atom_site_pbe_ddec_spin_density
 _atom_site_pbe_ddec_sum_bond_order
 _atom_site_pbe_magmom
Ba  Ba0  1  0.82999226  0.55639456  0.32715490  1  0  1.690743  0  1.082305  0  0  1.552767  0  1.482952  0  0  1.5899  0  1.435423  0  0  0.899262  1.525379  0  1.516895  0
Ba  Ba1  1  0.00304739  0.22937960  0.67289670  1  0  1.690425  0  1.082093  0  0  1.552295  0  1.482941  0  0  1.589134  0  1.435915  0  0  0.898837  1.524784  0  1.517025  0
H  H2  1  0.18861560  0.45892751  0.54306713  1  0  0.432898  0  0.859358  0  0  0.406597  0  0.915353  0  0  0.416711  0  0.900325  0  0  0.302741  0.399351  0  0.926146  0
H  H3  1  0.14503833  0.91584208  0.45705840  1  0  0.432025  0  0.860723  0  0  0.405921  0  0.916333  0  0  0.415999  0  0.901348  0  0  0.302861  0.398676  0  0.927107  0
H  H4  1  0.24183338  0.61366093  0.57154150  1  0  0.395893  0  0.899891  0  0  0.367995  0  0.969222  0  0  0.376368  0  0.956878  0  0  0.298947  0.362078  0  0.977979  0
H  H5  1  0.17029970  0.04216492  0.42874310  1  0  0.39574  0  0.899711  0  0  0.367975  0  0.96911  0  0  0.376274  0  0.956887  0  0  0.299156  0.362046  0  0.977922  0
H  H6  1  0.92672534  0.30207423  0.15790597  1  0  0.397874  0  0.912261  0  0  0.367627  0  0.980433  0  0  0.376855  0  0.96701  0  0  0.289253  0.361065  0  0.989983  0
H  H7  1  0.26916679  0.14422238  0.84216717  1  0  0.397313  0  0.914129  0  0  0.367267  0  0.981346  0  0  0.376545  0  0.967803  0  0  0.288984  0.360738  0  0.990852  0
H  H8  1  0.90827235  0.33590852  0.03037236  1  0  0.419613  0  0.887483  0  0  0.389842  0  0.949411  0  0  0.401057  0  0.932992  0  0  0.290253  0.381829  0  0.961146  0
H  H9  1  0.37809531  0.30554437  0.96988926  1  0  0.42021  0  0.886453  0  0  0.390681  0  0.947992  0  0  0.401854  0  0.931632  0  0  0.290595  0.382745  0  0.959582  0
H  H10  1  0.26721259  0.39009399  0.14611537  1  0  0.429494  0  0.865329  0  0  0.399838  0  0.927834  0  0  0.410004  0  0.912715  0  0  0.297666  0.392591  0  0.938638  0
H  H11  1  0.62142979  0.24428384  0.85394423  1  0  0.428557  0  0.867274  0  0  0.398373  0  0.930294  0  0  0.408606  0  0.915076  0  0  0.296872  0.391066  0  0.941162  0
H  H12  1  0.36366387  0.50671102  0.11949678  1  0  0.415289  0  0.896483  0  0  0.382417  0  0.962635  0  0  0.394422  0  0.945348  0  0  0.294804  0.373886  0  0.974907  0
H  H13  1  0.74456903  0.38743865  0.88040772  1  0  0.415177  0  0.896613  0  0  0.382222  0  0.963035  0  0  0.39426  0  0.945693  0  0  0.294548  0.373702  0  0.975295  0
H  H14  1  0.53706734  0.73875317  0.27540053  1  0  0.409947  0  0.901454  0  0  0.38002  0  0.965182  0  0  0.389714  0  0.951012  0  0  0.293904  0.373113  0  0.975289  0
H  H15  1  0.76201576  0.46373998  0.72467297  1  0  0.410057  0  0.901584  0  0  0.379796  0  0.965638  0  0  0.389485  0  0.951502  0  0  0.293191  0.372909  0  0.975705  0
H  H16  1  0.65819773  0.86412629  0.43281213  1  0  0.432851  0  0.861368  0  0  0.407519  0  0.915407  0  0  0.417279  0  0.900871  0  0  0.301709  0.400534  0  0.92582  0
H  H17  1  0.72523826  0.43151382  0.56720286  1  0  0.432183  0  0.862485  0  0  0.406773  0  0.916668  0  0  0.416558  0  0.902073  0  0  0.301094  0.399783  0  0.927106  0
H  H18  1  0.32486348  0.75174679  0.43119100  1  0  0.418801  0  0.866106  0  0  0.384201  0  0.945912  0  0  0.394716  0  0.930018  0  0  0.306462  0.376629  0  0.957385  0
H  H19  1  0.39360349  0.32029997  0.56865961  1  0  0.418473  0  0.866959  0  0  0.384139  0  0.945847  0  0  0.394603  0  0.930042  0  0  0.306364  0.376599  0  0.957271  0
H  H20  1  0.21140083  0.70860058  0.27208965  1  0  0.429011  0  0.870207  0  0  0.396628  0  0.936573  0  0  0.406895  0  0.921649  0  0  0.302693  0.389321  0  0.947205  0
H  H21  1  0.43962420  0.43645986  0.72768471  1  0  0.429429  0  0.869686  0  0  0.396768  0  0.936302  0  0  0.407099  0  0.921308  0  0  0.302164  0.389462  0  0.946879  0
H  H22  1  0.44158149  0.45377910  0.42518803  1  0  0.430468  0  0.850857  0  0  0.394616  0  0.930854  0  0  0.405114  0  0.914992  0  0  0.312672  0.387069  0  0.942291  0
H  H23  1  0.51712776  0.02827698  0.57495038  1  0  0.430114  0  0.852241  0  0  0.394389  0  0.931453  0  0  0.404943  0  0.915471  0  0  0.312789  0.386855  0  0.942892  0
H  H24  1  0.58190532  0.60822820  0.53991732  1  0  0.423168  0  0.871593  0  0  0.393111  0  0.935795  0  0  0.402332  0  0.922107  0  0  0.311102  0.386481  0  0.945689  0
H  H25  1  0.54158433  0.06792317  0.45998948  1  0  0.423951  0  0.87181  0  0  0.393824  0  0.935194  0  0  0.403017  0  0.921551  0  0  0.311314  0.387286  0  0.94494  0
H  H26  1  0.59355536  0.66469780  0.77003902  1  0  0.114954  0  0.964549  0  0  0.11916  0  1.03539  0  0  0.124103  0  1.030065  0  0  0.11767  0.11543  0  1.039476  0
H  H27  1  0.32294562  0.89425506  0.22999484  1  0  0.114027  0  0.965301  0  0  0.117924  0  1.036579  0  0  0.122797  0  1.031361  0  0  0.11772  0.114097  0  1.040966  0
H  H28  1  0.63085882  0.10812571  0.99833487  1  0  0.122429  0  0.954986  0  0  0.125033  0  1.025901  0  0  0.130186  0  1.020287  0  0  0.121492  0.121376  0  1.029692  0
H  H29  1  0.13260681  0.10956255  0.00168592  1  0  0.122469  0  0.954323  0  0  0.125464  0  1.024801  0  0  0.130638  0  1.019135  0  0  0.121964  0.12162  0  1.028926  0
H  H30  1  0.81472892  0.89754816  0.23132776  1  0  0.116432  0  0.947964  0  0  0.121116  0  1.019038  0  0  0.126548  0  1.013054  0  0  0.11953  0.116874  0  1.023811  0
H  H31  1  0.08403855  0.66620190  0.76862559  1  0  0.116489  0  0.947609  0  0  0.120868  0  1.019157  0  0  0.126352  0  1.013131  0  0  0.119569  0.116763  0  1.023595  0
C  C32  1  0.70611011  0.76698684  0.00057729  1  0  -0.058876  0  3.717603  0  0  -0.03223  0  3.95523  0  0  -0.042358  0  3.979093  0  0  -0.010371  -0.025946  0  3.939266  0
C  C33  1  0.20553378  0.76620439  0.99939358  1  0  -0.059752  0  3.718755  0  0  -0.033455  0  3.95715  0  0  -0.043731  0  3.981233  0  0  -0.01068  -0.027007  0  3.941132  0
C  C34  1  0.63184516  0.76306896  0.87040099  1  0  -0.084726  0  3.682294  0  0  -0.123123  0  3.941573  0  0  -0.118914  0  3.958256  0  0  -0.067403  -0.125734  0  3.930794  0
C  C35  1  0.26109008  0.89232525  0.12962202  1  0  -0.079593  0  3.681875  0  0  -0.117555  0  3.940653  0  0  -0.113556  0  3.957275  0  0  -0.066164  -0.120592  0  3.930434  0
C  C36  1  0.60719121  0.88655866  0.87225617  1  0  0.068961  0  3.729889  0  0  0.053846  0  3.995923  0  0  0.047583  0  4.020099  0  0  0.077872  0.057641  0  3.979859  0
C  C37  1  0.23461294  0.01392175  0.12774236  1  0  0.064838  0  3.733707  0  0  0.050604  0  3.999471  0  0  0.045327  0  4.023019  0  0  0.076942  0.054422  0  3.983344  0
C  C38  1  0.65489519  0.01396987  0.99988990  1  0  -0.081924  0  3.681153  0  0  -0.118175  0  3.940645  0  0  -0.114174  0  3.957423  0  0  -0.064624  -0.120207  0  3.928941  0
C  C39  1  0.15506083  0.01381846  0.00009774  1  0  -0.081455  0  3.680997  0  0  -0.118743  0  3.94041  0  0  -0.114883  0  3.957142  0  0  -0.065429  -0.120506  0  3.928504  0
C  C40  1  0.73267053  0.01869145  0.13014269  1  0  -0.071832  0  3.719  0  0  -0.049303  0  3.962574  0  0  -0.059845  0  3.986906  0  0  -0.018125  -0.042709  0  3.946208  0
C  C41  1  0.10297167  0.88840936  0.86980861  1  0  -0.070344  0  3.717881  0  0  -0.046361  0  3.9599  0  0  -0.057136  0  3.984577  0  0  -0.016874  -0.039867  0  3.943618  0
C  C42  1  0.75673113  0.89476119  0.12960421  1  0  -0.028897  0  3.626844  0  0  -0.070091  0  3.879337  0  0  -0.065614  0  3.895687  0  0  -0.054268  -0.07258  0  3.868805  0
C  C43  1  0.12751943  0.76503696  0.87036069  1  0  -0.028974  0  3.627188  0  0  -0.070493  0  3.879953  0  0  -0.065974  0  3.896352  0  0  -0.054695  -0.072999  0  3.869138  0
C  C44  1  0.73296759  0.63358553  0.00046509  1  0  0.672563  0  3.899643  0  0  0.614964  0  4.203102  0  0  0.6486  0  4.196132  0  0  0.222014  0.592363  0  4.206812  0
C  C45  1  0.23255513  0.63290052  0.99935547  1  0  0.671484  0  3.900952  0  0  0.613928  0  4.204842  0  0  0.647543  0  4.197918  0  0  0.221004  0.591275  0  4.208538  0
C  C46  1  0.79337895  0.15912838  0.27070905  1  0  0.66173  0  3.942046  0  0  0.609191  0  4.246941  0  0  0.642745  0  4.240322  0  0  0.206745  0.58658  0  4.250388  0
C  C47  1  0.02355767  0.88836351  0.72922412  1  0  0.658629  0  3.948067  0  0  0.605414  0  4.253567  0  0  0.639037  0  4.24699  0  0  0.205559  0.582745  0  4.257023  0
N  N48  1  0.52934213  0.88361795  0.73754831  1  0  0.486722  0  3.902382  0  0  0.525464  0  4.176199  0  0  0.546848  0  4.186196  0  0  0.066694  0.511084  0  4.169557  0
N  N49  1  0.29132251  0.14565464  0.26247866  1  0  0.486604  0  3.902825  0  0  0.524057  0  4.178304  0  0  0.543466  0  4.18859  0  0  0.06504  0.509652  0  4.171723  0
O  O50  1  0.80393464  0.63919679  0.11792021  1  0  -0.642603  0  1.939163  0  0  -0.58977  0  2.179068  0  0  -0.614761  0  2.171112  0  0  -0.339425  -0.572336  0  2.183928  0
O  O51  1  0.18730074  0.52135328  0.88187644  1  0  -0.643665  0  1.939163  0  0  -0.590425  0  2.178683  0  0  -0.615424  0  2.170835  0  0  -0.340191  -0.573014  0  2.183613  0
O  O52  1  0.15579003  0.51689158  0.49889294  1  0  -0.859968  0  1.817041  0  0  -0.811481  0  1.992917  0  0  -0.829348  0  1.96333  0  0  -0.614391  -0.798594  0  2.013854  0
O  O53  1  0.15648861  0.01796962  0.50123419  1  0  -0.859034  0  1.81843  0  0  -0.810909  0  1.994826  0  0  -0.828639  0  1.965284  0  0  -0.61484  -0.797978  0  2.01587  0
O  O54  1  0.99539298  0.36659244  0.13125645  1  0  -0.875683  0  1.849824  0  0  -0.818789  0  2.020713  0  0  -0.838608  0  1.989367  0  0  -0.606006  -0.80457  0  2.042885  0
O  O55  1  0.36465459  0.23548611  0.86910193  1  0  -0.875796  0  1.850899  0  0  -0.81928  0  2.020674  0  0  -0.838987  0  1.989321  0  0  -0.605985  -0.80518  0  2.042623  0
O  O56  1  0.39541825  0.42673419  0.13324573  1  0  -0.871915  0  1.832189  0  0  -0.812211  0  2.00286  0  0  -0.833673  0  1.971162  0  0  -0.594217  -0.796841  0  2.025089  0
O  O57  1  0.76254343  0.29373749  0.86675936  1  0  -0.870504  0  1.833022  0  0  -0.810091  0  2.003001  0  0  -0.831581  0  1.971259  0  0  -0.59303  -0.794684  0  2.025435  0
O  O58  1  0.63966025  0.76354463  0.36704932  1  0  -0.89586  0  1.825841  0  0  -0.847599  0  2.006721  0  0  -0.865888  0  1.975472  0  0  -0.642243  -0.833728  0  2.028835  0
O  O59  1  0.77283167  0.39686026  0.63308369  1  0  -0.895155  0  1.826003  0  0  -0.846435  0  2.007396  0  0  -0.864876  0  1.976216  0  0  -0.64087  -0.833047  0  2.029431  0
O  O60  1  0.19391213  0.74288534  0.36683369  1  0  -0.863577  0  1.863575  0  0  -0.804714  0  2.049557  0  0  -0.824419  0  2.017741  0  0  -0.605762  -0.79052  0  2.072128  0
O  O61  1  0.32712229  0.37579025  0.63296224  1  0  -0.863538  0  1.864528  0  0  -0.804273  0  2.050868  0  0  -0.824076  0  2.019051  0  0  -0.604909  -0.790097  0  2.073444  0
O  O62  1  0.58628460  0.51275189  0.47807053  1  0  -0.857814  0  1.885422  0  0  -0.802108  0  2.072254  0  0  -0.820699  0  2.040829  0  0  -0.602656  -0.788966  0  2.094796  0
O  O63  1  0.60843883  0.03446977  0.52187060  1  0  -0.858234  0  1.886857  0  0  -0.802575  0  2.071952  0  0  -0.821059  0  2.040524  0  0  -0.603087  -0.789427  0  2.094198  0
O  O64  1  0.68081091  0.52201037  0.87585685  1  0  -0.681694  0  2.066848  0  0  -0.603701  0  2.280496  0  0  -0.631608  0  2.270389  0  0  -0.308027  -0.583992  0  2.28692  0
O  O65  1  0.30410339  0.64568737  0.12394157  1  0  -0.67989  0  2.066981  0  0  -0.602272  0  2.280807  0  0  -0.630131  0  2.270734  0  0  -0.306376  -0.582584  0  2.287243  0
O  O66  1  0.86543670  0.15766415  0.38528119  1  0  -0.673537  0  1.927945  0  0  -0.618243  0  2.168185  0  0  -0.644311  0  2.160463  0  0  -0.361912  -0.599652  0  2.172784  0
O  O67  1  0.98177452  0.77245207  0.61470121  1  0  -0.672807  0  1.931527  0  0  -0.616882  0  2.171313  0  0  -0.643003  0  2.163637  0  0  -0.361803  -0.598194  0  2.175819  0
O  O68  1  0.76658275  0.26488472  0.25821175  1  0  -0.695041  0  1.945017  0  0  -0.635331  0  2.178133  0  0  -0.661667  0  2.169442  0  0  -0.354606  -0.616648  0  2.183446  0
O  O69  1  0.00897178  0.00653370  0.74167611  1  0  -0.693523  0  1.946548  0  0  -0.633888  0  2.179908  0  0  -0.660214  0  2.171206  0  0  -0.353621  -0.615163  0  2.185346  0
O  O70  1  0.50195610  0.99218614  0.73969317  1  0  -0.31634  0  1.838781  0  0  -0.283179  0  2.03995  0  0  -0.295105  0  2.036958  0  0  -0.075545  -0.275489  0  2.042394  0
O  O71  1  0.26175964  0.25198801  0.26014740  1  0  -0.316359  0  1.840883  0  0  -0.283086  0  2.042852  0  0  -0.29369  0  2.039449  0  0  -0.075444  -0.2755  0  2.045485  0
O  O72  1  0.48956546  0.76979787  0.62223046  1  0  -0.410086  0  1.890119  0  0  -0.372709  0  2.097897  0  0  -0.388047  0  2.092218  0  0  -0.113875  -0.362585  0  2.1023  0
O  O73  1  0.36681759  0.14726811  0.37791397  1  0  -0.409039  0  1.887441  0  0  -0.371154  0  2.095229  0  0  -0.385518  0  2.089537  0  0  -0.112599  -0.360966  0  2.099469  0
