# generated using pymatgen
data_Zn6H38C43(SO11)3
_symmetry_space_group_name_H-M   'P 1'
_cell_length_a   18.79677198
_cell_length_b   18.81817672
_cell_length_c   18.84241639
_cell_angle_alpha   109.30335586
_cell_angle_beta   109.33259936
_cell_angle_gamma   109.33401842
_symmetry_Int_Tables_number   1
_chemical_formula_structural   Zn6H38C43(SO11)3
_chemical_formula_sum   'Zn6 H38 C43 S3 O33'
_cell_volume   5158.58952626
_cell_formula_units_Z   1
loop_
 _symmetry_equiv_pos_site_id
 _symmetry_equiv_pos_as_xyz
  1  'x, y, z'
loop_
 _atom_site_type_symbol
 _atom_site_label
 _atom_site_symmetry_multiplicity
 _atom_site_fract_x
 _atom_site_fract_y
 _atom_site_fract_z
 _atom_site_occupancy
 _atom_site_pbe_bader_charge
 _atom_site_pbe_bader_spin_density
 _atom_site_pbe_cm5_charge
 _atom_site_pbe_ddec_charge
 _atom_site_pbe_ddec_spin_density
 _atom_site_pbe_ddec_sum_bond_order
 _atom_site_pbe_magmom
Zn  Zn0  1  0.94714339  0.00001585  0.43574125  1  1.299444  0  0.727548  0.95107  0  2.134432  0
Zn  Zn1  1  0.06776574  0.00375535  0.56627215  1  1.312133  0  0.718905  0.946442  0  2.163037  0
Zn  Zn2  1  0.04975248  0.56405217  0.98801370  1  1.304533  0  0.731349  0.961868  0  2.104961  0
Zn  Zn3  1  0.92790124  0.42630157  0.97388018  1  1.309569  0  0.719929  0.947403  0  2.160547  0
Zn  Zn4  1  0.47666072  0.56519390  0.53758118  1  1.309087  0  0.717129  0.951498  0  2.149682  0
Zn  Zn5  1  0.49278150  0.44521993  0.42712170  1  1.307978  0  0.718194  0.951873  0  2.167479  0
H  H6  1  0.98128561  0.21780285  0.61036780  1  0.101576  0  0.104078  0.125139  0  0.981405  0
H  H7  1  0.00196779  0.83345627  0.26509388  1  0.127991  0  0.119751  0.120869  0  0.960312  0
H  H8  1  0.08789744  0.29526010  0.69799871  1  0.074571  0  0.099638  0.110603  0  0.986627  0
H  H9  1  0.72933653  0.64331437  0.48443070  1  0.108733  0  0.11873  0.122799  0  0.963551  0
H  H10  1  0.68215814  0.78440130  0.55110726  1  0.080791  0  0.110785  0.129151  0  0.987424  0
H  H11  1  0.86557879  0.77385351  0.52446829  1  0.112211  0  0.118737  0.123643  0  0.960829  0
H  H12  1  0.72854832  0.81887612  0.44000440  1  0.086981  0  0.113634  0.134916  0  0.98122  0
H  H13  1  0.64866061  0.36902312  0.59257530  1  0.090861  0  0.11654  0.116555  0  0.967072  0
H  H14  1  0.68844689  0.54666210  0.72371421  1  0.105713  0  0.112183  0.13115  0  0.981969  0
H  H15  1  0.73678168  0.37689034  0.73445521  1  0.083155  0  0.11392  0.111817  0  0.968624  0
H  H16  1  0.84635469  0.56516221  0.78061044  1  0.096225  0  0.115832  0.137655  0  0.975953  0
H  H17  1  0.09791568  0.30186538  0.91815867  1  0.098007  0  0.120473  0.116701  0  0.979553  0
H  H18  1  0.37568644  0.62261074  0.34440039  1  0.119926  0  0.11441  0.11488  0  0.972052  0
H  H19  1  0.31727106  0.44540766  0.19622715  1  0.117537  0  0.115254  0.140542  0  0.97855  0
H  H20  1  0.30160752  0.64267225  0.21625443  1  0.108555  0  0.11839  0.116748  0  0.963739  0
H  H21  1  0.17390915  0.45480006  0.15657956  1  0.083935  0  0.111409  0.129092  0  0.982563  0
H  H22  1  0.91406591  0.26531877  0.68552020  1  0.092301  0  0.116978  0.114811  0  0.957606  0
H  H23  1  0.88518125  0.11373436  0.64583637  1  0.045889  0  0.09742  0.106707  0  0.971682  0
H  H24  1  0.87481850  0.19924617  0.76013619  1  0.041621  0  0.100148  0.07485  0  0.97474  0
H  H25  1  0.10157968  0.18766265  0.82862937  1  0.05743  0  0.102378  0.112776  0  0.970886  0
H  H26  1  0.16265953  0.25604670  0.80175624  1  0.057139  0  0.098988  0.098362  0  1.004983  0
H  H27  1  0.93678341  0.06822356  0.92444332  1  0.012071  0  0.084052  0.108257  0  1.004284  0
H  H28  1  0.93506265  0.08211922  0.71755807  1  0.038306  0  0.097299  0.101956  0  0.982967  0
H  H29  1  0.90976547  0.14503140  0.97471066  1  0.031255  0  0.085986  0.112036  0  1.000312  0
H  H30  1  0.82769588  0.03532327  0.90034215  1  0.025146  0  0.087478  0.113154  0  1.003061  0
H  H31  1  0.82040957  0.12725030  0.82965026  1  0.007628  0  0.088496  0.077336  0  0.973446  0
H  H32  1  0.84633709  0.05015358  0.77909620  1  0.005503  0  0.085452  0.071375  0  0.981996  0
H  H33  1  0.00436300  0.16406223  0.86962966  1  0.015372  0  0.087464  0.078984  0  1.00248  0
H  H34  1  0.97585944  0.23965952  0.91895210  1  0.042935  0  0.090746  0.09335  0  1.005844  0
H  H35  1  0.12616327  0.84673720  0.51307155  1  0.648929  0  0.315424  0.381027  0  0.931671  0
H  H36  1  0.97909345  0.46639129  0.79589467  1  0.644349  0  0.31828  0.381915  0  0.925372  0
H  H37  1  0.27345694  0.40402629  0.85529507  1  0.630213  0  0.355018  0.401049  0  0.837689  0
H  H38  1  0.21856840  0.40247038  0.52251465  1  0.106639  0  0.121744  0.123851  0  0.960146  0
H  H39  1  0.27799681  0.27586394  0.44736107  1  0.083175  0  0.110181  0.126086  0  0.988292  0
H  H40  1  0.08661899  0.25539361  0.46311225  1  0.114453  0  0.120447  0.121431  0  0.960125  0
H  H41  1  0.23427108  0.21623231  0.53147918  1  0.077586  0  0.11231  0.132733  0  0.983255  0
H  H42  1  0.02492773  0.73376432  0.16741381  1  0.116322  0  0.11468  0.116632  0  0.976118  0
H  H43  1  0.91868238  0.59595483  0.19933069  1  0.129735  0  0.12137  0.146018  0  0.971356  0
C  C44  1  0.10148300  0.12538396  0.48771759  1  1.507327  0  0.214312  0.646231  0  4.145552  0
C  C45  1  0.95337558  0.62580725  0.17185408  1  0.066528  0  -0.070532  -0.184591  0  3.827206  0
C  C46  1  0.00588712  0.78084619  0.27614287  1  -0.043726  0  -0.045764  0.006422  0  3.933107  0
C  C47  1  0.03213517  0.11563606  0.64526189  1  1.537106  0  0.224891  0.600649  0  4.058807  0
C  C48  1  0.02350675  0.79578748  0.35705024  1  -0.138679  0  -0.022977  -0.258555  0  3.8593  0
C  C49  1  0.73405557  0.70692511  0.50248455  1  -0.054899  0  -0.061823  -0.017598  0  3.967934  0
C  C50  1  0.67743038  0.72086848  0.52594564  1  -0.016687  0  -0.088803  -0.231245  0  3.885151  0
C  C51  1  0.80257770  0.77115354  0.50221769  1  0.030412  0  -0.055882  -0.001538  0  3.953488  0
C  C52  1  0.79179969  0.82416183  0.47119369  1  -0.077347  0  -0.09171  -0.241689  0  3.893559  0
C  C53  1  0.89104846  0.50982216  0.86003801  1  1.489607  0  0.214409  0.640066  0  4.148048  0
C  C54  1  0.98620728  0.36340579  0.86970753  1  1.56446  0  0.225651  0.588021  0  4.075036  0
C  C55  1  0.00493963  0.29963068  0.81284374  1  0.028494  0  0.002251  -0.002331  0  3.657546  0
C  C56  1  0.13156658  0.52280382  0.09497791  1  1.522989  0  0.214237  0.644593  0  4.146557  0
C  C57  1  0.95246452  0.56724582  0.09577093  1  1.544021  0  0.21816  0.642  0  4.133571  0
C  C58  1  0.59293102  0.48349462  0.58747673  1  1.527312  0  0.212479  0.643208  0  4.15403  0
C  C59  1  0.86399730  0.88739362  0.47198148  1  1.497212  0  0.213572  0.644172  0  4.143567  0
C  C60  1  0.35292777  0.41033177  0.48687601  1  1.51777  0  0.212679  0.640913  0  4.155688  0
C  C61  1  0.39712360  0.48961789  0.33425995  1  1.515394  0  0.21177  0.64357  0  4.150477  0
C  C62  1  0.60783621  0.65033290  0.52150830  1  1.525407  0  0.208262  0.638956  0  4.156574  0
C  C63  1  0.68343219  0.42833413  0.65502547  1  -0.027238  0  -0.062271  -0.021965  0  3.970599  0
C  C64  1  0.66050832  0.48986349  0.66129201  1  -0.049992  0  -0.08688  -0.223947  0  3.887379  0
C  C65  1  0.74933251  0.43507302  0.72838683  1  -0.020694  0  -0.059641  -0.001703  0  3.952058  0
C  C66  1  0.93895361  0.20387447  0.78423388  1  0.01282  0  -0.081068  -0.003428  0  3.756766  0
C  C67  1  0.82639183  0.50761275  0.78755988  1  -0.003068  0  -0.088957  -0.231917  0  3.875262  0
C  C68  1  0.33804890  0.56931670  0.27751485  1  -0.05353  0  -0.062589  -0.0173  0  3.971771  0
C  C69  1  0.34621572  0.49792360  0.26176649  1  -0.045071  0  -0.087952  -0.235089  0  3.8789  0
C  C70  1  0.28037525  0.57967457  0.21323537  1  -0.029272  0  -0.055276  -0.00412  0  3.945204  0
C  C71  1  0.03121527  0.87699647  0.41756906  1  1.574098  0  0.226013  0.633689  0  4.131628  0
C  C72  1  0.19801804  0.51566583  0.15582019  1  -0.011396  0  -0.085065  -0.220317  0  3.890288  0
C  C73  1  0.02208311  0.25009255  0.68053781  1  -0.052469  0  -0.163601  -0.218673  0  3.887518  0
C  C74  1  0.98521271  0.29948203  0.72552782  1  -0.136313  0  -0.074432  -0.179732  0  3.774257  0
C  C75  1  0.94003862  0.13844487  0.70926677  1  -0.059826  0  -0.156606  -0.222911  0  3.846763  0
C  C76  1  0.10141651  0.23174116  0.80246183  1  -0.030877  0  -0.158725  -0.203129  0  3.870408  0
C  C77  1  0.09544782  0.30777897  0.86132810  1  -0.107755  0  -0.065258  -0.164881  0  3.695751  0
C  C78  1  0.02564353  0.18356463  0.70987683  1  0.043977  0  -0.014728  0.046262  0  3.806627  0
C  C79  1  0.95344225  0.18251893  0.85840574  1  -0.027492  0  -0.170954  -0.19431  0  3.927038  0
C  C80  1  0.87124401  0.10873485  0.83994586  1  0.004991  0  -0.164392  -0.083659  0  3.966651  0
C  C81  1  0.88700211  0.08800589  0.91372524  1  -0.06009  0  -0.24371  -0.354676  0  3.984259  0
C  C82  1  0.21990218  0.34176217  0.49857695  1  -0.041212  0  -0.061043  -0.02385  0  3.955241  0
C  C83  1  0.28120048  0.33806632  0.47790291  1  0.003575  0  -0.084698  -0.217198  0  3.888043  0
C  C84  1  0.15221131  0.26445100  0.48534459  1  -0.065382  0  -0.056381  -0.006964  0  3.945287  0
C  C85  1  0.16814170  0.20488190  0.50137998  1  0.000632  0  -0.091784  -0.239899  0  3.895019  0
C  C86  1  0.99666682  0.71210546  0.20376098  1  -0.087049  0  -0.066299  -0.027596  0  3.971988  0
S  S87  1  0.03744782  0.72690695  0.40065351  1  3.128346  0  0.531354  1.175857  0  6.052085  0
S  S88  1  0.01380522  0.39608458  0.71351570  1  3.056177  0  0.523078  1.154166  0  5.955158  0
S  S89  1  0.20127511  0.40628316  0.92058335  1  3.005982  0  0.530519  1.146142  0  5.899188  0
O  O90  1  0.02147055  0.09475960  0.43187252  1  -1.129451  0  -0.320315  -0.532105  0  2.241504  0
O  O91  1  0.57127695  0.42988646  0.51020411  1  -1.134523  0  -0.322778  -0.538704  0  2.23205  0
O  O92  1  0.37453817  0.48939627  0.53504559  1  -1.127196  0  -0.319781  -0.532471  0  2.206818  0
O  O93  1  0.12707380  0.09144841  0.53203376  1  -1.168503  0  -0.319611  -0.574142  0  2.264404  0
O  O94  1  0.38997361  0.38749178  0.44521896  1  -1.160091  0  -0.316772  -0.573802  0  2.28929  0
O  O95  1  0.41067973  0.53645297  0.40898022  1  -1.180579  0  -0.316367  -0.583063  0  2.321153  0
O  O96  1  0.42402919  0.43431540  0.31728267  1  -1.124351  0  -0.324791  -0.533891  0  2.190594  0
O  O97  1  0.56877846  0.67238113  0.56253689  1  -1.12576  0  -0.325795  -0.535453  0  2.193154  0
O  O98  1  0.59036743  0.57309506  0.47759210  1  -1.173253  0  -0.313659  -0.579103  0  2.312541  0
O  O99  1  0.98229013  0.08623706  0.56578653  1  -1.191268  0  -0.310443  -0.575754  0  2.339374  0
O  O100  1  0.08554870  0.08967707  0.67291990  1  -1.126069  0  -0.31549  -0.517794  0  2.208931  0
O  O101  1  0.86582042  0.45470920  0.88348427  1  -1.166314  0  -0.31232  -0.568719  0  2.314963  0
O  O102  1  0.84281032  0.91635366  0.41911743  1  -1.101672  0  -0.324343  -0.530723  0  2.210826  0
O  O103  1  0.94146729  0.90995780  0.52275776  1  -1.171333  0  -0.313292  -0.57586  0  2.311743  0
O  O104  1  0.98860094  0.90890978  0.38658299  1  -1.163712  0  -0.296417  -0.544688  0  2.274379  0
O  O105  1  0.08279114  0.91032755  0.49999525  1  -1.150392  0  -0.308102  -0.541872  0  2.308624  0
O  O106  1  0.97132320  0.56819999  0.89384019  1  -1.132428  0  -0.322951  -0.542115  0  2.218357  0
O  O107  1  0.97015827  0.70437971  0.42316276  1  -1.282665  0  -0.323577  -0.53936  0  2.079249  0
O  O108  1  0.04783654  0.66094500  0.34750198  1  -1.292273  0  -0.303397  -0.509953  0  2.130467  0
O  O109  1  0.12963190  0.79300694  0.48562553  1  -1.222453  0  -0.365716  -0.524621  0  2.138751  0
O  O110  1  0.10250772  0.46218769  0.77463607  1  -1.294773  0  -0.314738  -0.517351  0  2.158048  0
O  O111  1  0.98093301  0.36215553  0.62197340  1  -1.282465  0  -0.3282  -0.528275  0  2.081443  0
O  O112  1  0.02635062  0.44257648  0.89193477  1  -1.171354  0  -0.301775  -0.579722  0  2.431546  0
O  O113  1  0.95035481  0.42942826  0.73256442  1  -1.216525  0  -0.373997  -0.544203  0  2.192335  0
O  O114  1  0.19820184  0.48207661  0.96552315  1  -1.273189  0  -0.293306  -0.489125  0  2.218263  0
O  O115  1  0.26052018  0.38392904  0.96736767  1  -1.301229  0  -0.34054  -0.565967  0  2.077919  0
O  O116  1  0.22397476  0.41387602  0.84648759  1  -1.170247  0  -0.356391  -0.51971  0  2.170079  0
O  O117  1  0.92874002  0.33166067  0.88961942  1  -1.136432  0  -0.305036  -0.50943  0  2.29809  0
O  O118  1  0.15329899  0.58692868  0.08041105  1  -1.11692  0  -0.312248  -0.515874  0  2.226869  0
O  O119  1  0.05362734  0.46253671  0.05975007  1  -1.175021  0  -0.320174  -0.582647  0  2.296707  0
O  O120  1  0.99768355  0.60079539  0.06627875  1  -1.189141  0  -0.316416  -0.585626  0  2.324221  0
O  O121  1  0.90622346  0.48491008  0.06453981  1  -1.130157  0  -0.317096  -0.522975  0  2.18321  0
O  O122  1  0.56135997  0.53272301  0.60623988  1  -1.146339  0  -0.317158  -0.572116  0  2.269369  0
