# generated using pymatgen
data_MgH6C11NO4
_symmetry_space_group_name_H-M   'P 1'
_cell_length_a   6.83388975
_cell_length_b   34.28142540
_cell_length_c   34.27500357
_cell_angle_alpha   119.57539123
_cell_angle_beta   93.80265366
_cell_angle_gamma   93.80175595
_symmetry_Int_Tables_number   1
_chemical_formula_structural   MgH6C11NO4
_chemical_formula_sum   'Mg6 H36 C66 N6 O24'
_cell_volume   6922.66361559
_cell_formula_units_Z   6
loop_
 _symmetry_equiv_pos_site_id
 _symmetry_equiv_pos_as_xyz
  1  'x, y, z'
loop_
 _atom_site_type_symbol
 _atom_site_label
 _atom_site_symmetry_multiplicity
 _atom_site_fract_x
 _atom_site_fract_y
 _atom_site_fract_z
 _atom_site_occupancy
 _atom_site_pbe_bader_charge
 _atom_site_pbe_bader_spin_density
 _atom_site_pbe_cm5_charge
 _atom_site_pbe_ddec_charge
 _atom_site_pbe_ddec_spin_density
 _atom_site_pbe_ddec_sum_bond_order
 _atom_site_pbe_magmom
Mg  Mg0  1  0.80139582  0.69480268  0.32818578  1  1.683946  0  0.910763  1.410006  0  1.327549  0
Mg  Mg1  1  0.42501840  0.30365338  0.66869786  1  1.683264  0  0.908725  1.409085  0  1.331398  0
Mg  Mg2  1  0.47323358  0.67179842  0.36663605  1  1.682962  0  0.910622  1.409986  0  1.328116  0
Mg  Mg3  1  0.75641674  0.33127889  0.63489150  1  1.683036  0  0.908568  1.408843  0  1.331765  0
Mg  Mg4  1  0.10676084  0.63335352  0.30515477  1  1.681207  0  0.9107  1.410538  0  1.326677  0
Mg  Mg5  1  0.12131226  0.36511722  0.69636771  1  1.681163  0  0.908814  1.409532  0  1.330698  0
H  H6  1  0.66483726  0.45304035  0.01786597  1  0.095533  0  0.107873  0.111819  0  0.999257  0
H  H7  1  0.92403332  0.47486225  0.08285067  1  0.104419  0  0.113893  0.121353  0  0.990294  0
H  H8  1  0.35674457  0.50163474  0.01047502  1  0.11132  0  0.102713  0.102225  0  1.033837  0
H  H9  1  0.10891720  0.48083788  0.94808908  1  0.065457  0  0.103582  0.097354  0  1.006804  0
H  H10  1  0.49237618  0.53974996  0.07526984  1  0.448626  0  0.317531  0.271146  0  0.948053  0
H  H11  1  0.85177010  0.56372095  0.11684321  1  0.090591  0  0.10048  0.104198  0  1.011107  0
H  H12  1  0.03865308  0.61475464  0.19208519  1  0.096917  0  0.106977  0.124568  0  0.99641  0
H  H13  1  0.32648258  0.56801697  0.18110476  1  0.153434  0  0.111743  0.129577  0  1.023821  0
H  H14  1  0.91076974  0.43462384  0.89726590  1  0.442857  0  0.319962  0.271456  0  0.946132  0
H  H15  1  0.36433639  0.41251904  0.88045999  1  0.1227  0  0.105509  0.11977  0  1.029301  0
H  H16  1  0.18009636  0.37313298  0.80310864  1  0.07234  0  0.104177  0.118507  0  1.008161  0
H  H17  1  0.90126866  0.41578303  0.82262955  1  0.091978  0  0.106506  0.1156  0  1.016154  0
H  H18  1  0.64651060  0.98201713  0.43516451  1  0.100028  0  0.107789  0.111516  0  0.999059  0
H  H19  1  0.84099882  0.91707822  0.39197397  1  0.110801  0  0.11402  0.122033  0  0.989552  0
H  H20  1  0.34609856  0.98950718  0.49108301  1  0.087719  0  0.102878  0.102481  0  1.033502  0
H  H21  1  0.16036038  0.05182939  0.53270080  1  0.064652  0  0.10355  0.097501  0  1.007207  0
H  H22  1  0.41699220  0.92471589  0.46442637  1  0.460908  0  0.318013  0.272034  0  0.947109  0
H  H23  1  0.73463139  0.88304836  0.44671190  1  0.054674  0  0.100399  0.104709  0  1.011036  0
H  H24  1  0.84614419  0.80779865  0.42250986  1  0.080199  0  0.106925  0.124894  0  0.996468  0
H  H25  1  0.14488892  0.81890989  0.38699276  1  0.159637  0  0.112005  0.12969  0  1.02447  0
H  H26  1  0.01372196  0.10258789  0.53728733  1  0.434651  0  0.319909  0.271303  0  0.945978  0
H  H27  1  0.48448215  0.11956304  0.53212426  1  0.123587  0  0.105699  0.120197  0  1.029554  0
H  H28  1  0.37771306  0.19692531  0.57003520  1  0.081543  0  0.104024  0.11819  0  1.008187  0
H  H29  1  0.07934783  0.17735102  0.59310638  1  0.077806  0  0.106684  0.116314  0  1.015514  0
H  H30  1  0.21168935  0.56485020  0.54699430  1  0.119374  0  0.107711  0.111357  0  0.999024  0
H  H31  1  0.44895077  0.60796622  0.52511092  1  0.138014  0  0.114227  0.122335  0  0.990344  0
H  H32  1  0.85541909  0.50895043  0.49854787  1  0.105085  0  0.102899  0.10289  0  1.033487  0
H  H33  1  0.62831200  0.46738174  0.51932419  1  0.063412  0  0.103622  0.097344  0  1.007585  0
H  H34  1  0.95289138  0.53558533  0.46029972  1  0.432096  0  0.317894  0.271547  0  0.946966  0
H  H35  1  0.28822283  0.55322005  0.43632305  1  0.058614  0  0.100484  0.104602  0  1.010467  0
H  H36  1  0.42418888  0.57745911  0.38533471  1  0.094677  0  0.10695  0.124532  0  0.996257  0
H  H37  1  0.75847569  0.61309020  0.43197318  1  0.130291  0  0.111971  0.1298  0  1.02471  0
H  H38  1  0.47660836  0.46273466  0.56543774  1  0.433816  0  0.320212  0.271728  0  0.94592  0
H  H39  1  0.95216759  0.46791629  0.58747121  1  0.147566  0  0.105569  0.120103  0  1.029653  0
H  H40  1  0.80746696  0.42995227  0.62685403  1  0.084802  0  0.104084  0.118546  0  1.008309  0
H  H41  1  0.48597640  0.40687865  0.58421208  1  0.089859  0  0.106514  0.115948  0  1.015922  0
C  C42  1  0.70405939  0.45171571  0.94125792  1  1.394989  0  0.236827  0.472132  0  4.139576  0
C  C43  1  0.86688673  0.46539560  0.97855737  1  -0.083993  0  -0.01876  -0.0418  0  4.018062  0
C  C44  1  0.81696866  0.46412514  0.01704246  1  0.024451  0  -0.083888  -0.099871  0  3.981045  0
C  C45  1  0.95982226  0.47624877  0.05302385  1  -0.0272  0  -0.076561  -0.08815  0  3.961665  0
C  C46  1  0.15515845  0.49120380  0.05216870  1  -0.047506  0  -0.009873  -0.022354  0  3.974965  0
C  C47  1  0.20561096  0.49229973  0.01374670  1  -0.07889  0  -0.086496  -0.102499  0  3.983435  0
C  C48  1  0.06316988  0.47914330  0.97717996  1  -0.050574  0  -0.08952  -0.108588  0  3.991933  0
C  C49  1  0.29293861  0.50620286  0.09428537  1  1.396416  0  0.234049  0.462916  0  4.140915  0
C  C50  1  0.57397392  0.56202652  0.14339465  1  0.284422  0  0.07538  0.206188  0  4.067203  0
C  C51  1  0.77621725  0.57571616  0.14714572  1  -0.082184  0  -0.088859  -0.141485  0  3.994427  0
C  C52  1  0.88169590  0.60434883  0.18928142  1  -0.029192  0  -0.105951  -0.202025  0  3.971735  0
C  C53  1  0.79224281  0.62063053  0.22969236  1  0.624756  0  0.092563  0.357707  0  4.087505  0
C  C54  1  0.58589753  0.60671910  0.22530353  1  -0.024298  0  -0.038963  -0.193219  0  3.978795  0
C  C55  1  0.48232596  0.57791579  0.18259079  1  0.016037  0  -0.084509  -0.152007  0  3.960574  0
C  C56  1  0.46884177  0.62088863  0.26373393  1  1.523569  0  0.240857  0.682188  0  4.117898  0
C  C57  1  0.64670532  0.41627215  0.85704710  1  0.348656  0  0.084825  0.22385  0  4.056929  0
C  C58  1  0.44052047  0.40467592  0.85103446  1  -0.033381  0  -0.086653  -0.13423  0  3.962057  0
C  C59  1  0.33892599  0.38275820  0.80795986  1  -0.028695  0  -0.106993  -0.204128  0  3.990698  0
C  C60  1  0.43387750  0.37081994  0.76889337  1  0.579771  0  0.09015  0.355891  0  4.085524  0
C  C61  1  0.64191498  0.38392217  0.77534618  1  -0.015005  0  -0.040292  -0.188745  0  3.985139  0
C  C62  1  0.74259716  0.40642238  0.81917665  1  -0.013825  0  -0.092932  -0.181439  0  3.979924  0
C  C63  1  0.75959576  0.37476590  0.73779053  1  1.52139  0  0.237657  0.676215  0  4.124161  0
C  C64  1  0.76271057  0.05872554  0.51048782  1  1.332948  0  0.235736  0.470549  0  4.138954  0
C  C65  1  0.88788799  0.02135825  0.48682550  1  -0.074474  0  -0.019184  -0.04137  0  4.01682  0
C  C66  1  0.79949039  0.98286625  0.44707984  1  0.05884  0  -0.083243  -0.099097  0  3.978761  0
C  C67  1  0.90649220  0.94690717  0.42319737  1  -0.083968  0  -0.076861  -0.089567  0  3.96118  0
C  C68  1  0.10280184  0.94779563  0.43896402  1  -0.095455  0  -0.010273  -0.021601  0  3.974484  0
C  C69  1  0.19165934  0.98620476  0.47847677  1  -0.025517  0  -0.085773  -0.10192  0  3.983811  0
C  C70  1  0.08561776  0.02274111  0.50190824  1  -0.025994  0  -0.089588  -0.109632  0  3.993436  0
C  C71  1  0.19854606  0.90568450  0.41185253  1  1.39201  0  0.2336  0.461877  0  4.140675  0
C  C72  1  0.43017020  0.85656151  0.41862951  1  0.345325  0  0.074741  0.205848  0  4.068138  0
C  C73  1  0.62868255  0.85277054  0.42848134  1  -0.067745  0  -0.088752  -0.14215  0  3.995747  0
C  C74  1  0.69192109  0.81063374  0.41499165  1  0.029957  0  -0.105477  -0.201986  0  3.972085  0
C  C75  1  0.56198913  0.77025841  0.39092873  1  0.581875  0  0.092126  0.356604  0  4.088192  0
C  C76  1  0.36002079  0.77467341  0.38146617  1  -0.048464  0  -0.03868  -0.191055  0  3.975666  0
C  C77  1  0.29921012  0.81739930  0.39539873  1  -0.000284  0  -0.08457  -0.152828  0  3.96061  0
C  C78  1  0.20470273  0.73623212  0.35716419  1  1.506989  0  0.240673  0.681818  0  4.117789  0
C  C79  1  0.79032425  0.14295875  0.55920775  1  0.332758  0  0.084834  0.224807  0  4.055475  0
C  C80  1  0.59016154  0.14898670  0.55363970  1  -0.050799  0  -0.087487  -0.136049  0  3.962371  0
C  C81  1  0.53173083  0.19206489  0.57476738  1  0.011091  0  -0.10627  -0.202865  0  3.990862  0
C  C82  1  0.66571197  0.23112137  0.60186707  1  0.542935  0  0.090348  0.356095  0  4.085262  0
C  C83  1  0.86731561  0.22465842  0.60849795  1  0.034856  0  -0.040998  -0.18958  0  3.98503  0
C  C84  1  0.92417575  0.18081763  0.58718255  1  -0.030041  0  -0.092685  -0.182075  0  3.979975  0
C  C85  1  0.02232606  0.26221910  0.63694514  1  1.518213  0  0.237221  0.675828  0  4.122662  0
C  C86  1  0.25261109  0.48958919  0.54836752  1  1.362376  0  0.237131  0.473139  0  4.13775  0
C  C87  1  0.40158259  0.51324545  0.53472106  1  -0.064739  0  -0.018738  -0.042665  0  4.018556  0
C  C88  1  0.35283477  0.55296153  0.53594820  1  -0.039468  0  -0.083431  -0.098093  0  3.979042  0
C  C89  1  0.48350369  0.57679818  0.52379726  1  -0.028381  0  -0.077353  -0.090455  0  3.9623  0
C  C90  1  0.66406627  0.56101770  0.50888497  1  -0.0817  0  -0.010048  -0.022223  0  3.975824  0
C  C91  1  0.71354758  0.52154301  0.50785001  1  -0.023697  0  -0.08701  -0.103845  0  3.983955  0
C  C92  1  0.58421066  0.49815279  0.52100774  1  -0.056757  0  -0.089204  -0.107537  0  3.991718  0
C  C93  1  0.78654190  0.58808272  0.49378688  1  1.382067  0  0.233514  0.461193  0  4.141062  0
C  C94  1  0.01195277  0.58139331  0.43796321  1  0.309274  0  0.075152  0.20683  0  4.067141  0
C  C95  1  0.20066476  0.57151751  0.42432607  1  0.046625  0  -0.08851  -0.142571  0  3.995409  0
C  C96  1  0.27752604  0.58501525  0.39569912  1  -0.062828  0  -0.105939  -0.201432  0  3.970225  0
C  C97  1  0.17169226  0.60909360  0.37938387  1  0.583227  0  0.092689  0.357549  0  4.085671  0
C  C98  1  0.97921876  0.61860961  0.39328007  1  -0.054478  0  -0.038852  -0.191938  0  3.976267  0
C  C99  1  0.90442252  0.60467872  0.42206468  1  0.032667  0  -0.085015  -0.153168  0  3.961516  0
C  C100  1  0.84798047  0.64285381  0.37908911  1  1.508238  0  0.241032  0.682221  0  4.116486  0
C  C101  1  0.23094430  0.44081079  0.58375707  1  0.353557  0  0.085228  0.225519  0  4.055327  0
C  C102  1  0.03630806  0.44636631  0.59533053  1  -0.041768  0  -0.086943  -0.135291  0  3.96256  0
C  C103  1  0.95673153  0.42520995  0.61724963  1  0.00668  0  -0.107003  -0.204479  0  3.992824  0
C  C104  1  0.06355143  0.39809463  0.62919032  1  0.585571  0  0.090234  0.355618  0  4.087634  0
C  C105  1  0.25849654  0.39144572  0.61607512  1  -0.071074  0  -0.040159  -0.188378  0  3.984566  0
C  C106  1  0.33669262  0.41279269  0.59359592  1  -0.03307  0  -0.093007  -0.182401  0  3.979631  0
C  C107  1  0.38524953  0.36303698  0.62521302  1  1.517684  0  0.23744  0.675935  0  4.122965  0
N  N108  1  0.46117551  0.53423929  0.10079324  1  -1.239035  0  -0.403372  -0.389977  0  3.573194  0
N  N109  1  0.76332255  0.43551455  0.89899747  1  -1.255491  0  -0.398901  -0.372285  0  3.588682  0
N  N110  1  0.36016543  0.89917507  0.43340917  1  -1.243409  0  -0.403918  -0.390853  0  3.572735  0
N  N111  1  0.86456449  0.10094895  0.53650018  1  -1.227573  0  -0.398089  -0.371127  0  3.586269  0
N  N112  1  0.92688844  0.56658102  0.46575509  1  -1.217043  0  -0.403135  -0.389293  0  3.570117  0
N  N113  1  0.32824269  0.46353749  0.56453898  1  -1.232587  0  -0.3991  -0.372809  0  3.588101  0
O  O114  1  0.28912343  0.60499116  0.25778738  1  -1.241571  0  -0.353683  -0.635754  0  2.155232  0
O  O115  1  0.55215532  0.65041547  0.30365909  1  -1.309158  0  -0.40621  -0.772132  0  2.42533  0
O  O116  1  0.90136132  0.64774052  0.26955385  1  -1.308648  0  -0.441678  -0.774753  0  2.290514  0
O  O117  1  0.94033846  0.39069568  0.74524351  1  -1.245326  0  -0.355235  -0.642303  0  2.148106  0
O  O118  1  0.67498461  0.34945841  0.69693840  1  -1.298141  0  -0.401139  -0.764913  0  2.417588  0
O  O119  1  0.32700691  0.34776986  0.72812817  1  -1.31033  0  -0.451509  -0.782851  0  2.312582  0
O  O120  1  0.52848156  0.45410471  0.94842570  1  -1.138439  0  -0.295415  -0.485431  0  2.131968  0
O  O121  1  0.24839821  0.49556681  0.12240989  1  -1.118351  0  -0.295196  -0.463375  0  2.075508  0
O  O122  1  0.03092324  0.74217345  0.34720244  1  -1.235836  0  -0.353619  -0.635531  0  2.154908  0
O  O123  1  0.24830109  0.69632652  0.34675951  1  -1.302066  0  -0.405948  -0.772252  0  2.425049  0
O  O124  1  0.63132561  0.73040161  0.37814982  1  -1.307153  0  -0.441883  -0.774711  0  2.292206  0
O  O125  1  0.19561668  0.25478608  0.64545790  1  -1.240957  0  -0.355755  -0.642427  0  2.14767  0
O  O126  1  0.97828161  0.30305392  0.65250669  1  -1.293857  0  -0.400265  -0.764034  0  2.416532  0
O  O127  1  0.59938123  0.27186512  0.61956214  1  -1.311181  0  -0.451524  -0.782869  0  2.311888  0
O  O128  1  0.57992856  0.05163528  0.50575837  1  -1.107899  0  -0.295158  -0.48524  0  2.130722  0
O  O129  1  0.12591024  0.87754436  0.37308701  1  -1.117365  0  -0.294681  -0.462647  0  2.075662  0
O  O130  1  0.68408855  0.65279816  0.39497830  1  -1.23634  0  -0.353252  -0.635434  0  2.155345  0
O  O131  1  0.90181019  0.65321623  0.34954405  1  -1.299869  0  -0.406754  -0.772672  0  2.423824  0
O  O132  1  0.25365879  0.62181637  0.35225264  1  -1.308171  0  -0.441829  -0.775072  0  2.290541  0
O  O133  1  0.55012428  0.35456176  0.60929574  1  -1.24109  0  -0.355778  -0.64254  0  2.148803  0
O  O134  1  0.32566734  0.34748327  0.65049265  1  -1.291108  0  -0.400724  -0.764501  0  2.416124  0
O  O135  1  0.97954274  0.38040930  0.65224680  1  -1.313968  0  -0.451576  -0.782372  0  2.312582  0
O  O136  1  0.07454557  0.49429981  0.54594747  1  -1.133312  0  -0.295862  -0.486327  0  2.129973  0
O  O137  1  0.75223989  0.62680417  0.50435649  1  -1.115059  0  -0.294693  -0.462401  0  2.075666  0
