# generated using pymatgen
data_CdH10C14S4N2O5
_symmetry_space_group_name_H-M   'P 1'
_cell_length_a   7.59369849
_cell_length_b   7.59367881
_cell_length_c   16.53961681
_cell_angle_alpha   81.58882750
_cell_angle_beta   81.58884968
_cell_angle_gamma   71.44675272
_symmetry_Int_Tables_number   1
_chemical_formula_structural   CdH10C14S4N2O5
_chemical_formula_sum   'Cd2 H20 C28 S8 N4 O10'
_cell_volume   889.37718038
_cell_formula_units_Z   2
loop_
 _symmetry_equiv_pos_site_id
 _symmetry_equiv_pos_as_xyz
  1  'x, y, z'
loop_
 _atom_site_type_symbol
 _atom_site_label
 _atom_site_symmetry_multiplicity
 _atom_site_fract_x
 _atom_site_fract_y
 _atom_site_fract_z
 _atom_site_occupancy
 _atom_site_hle17_bader_spin_density
 _atom_site_hle17_ddec_charge
 _atom_site_hle17_ddec_spin_density
 _atom_site_hle17_ddec_sum_bond_order
 _atom_site_hle17_magmom
 _atom_site_hse06_10hf_bader_spin_density
 _atom_site_hse06_10hf_ddec_charge
 _atom_site_hse06_10hf_ddec_spin_density
 _atom_site_hse06_10hf_ddec_sum_bond_order
 _atom_site_hse06_10hf_magmom
 _atom_site_hse06_bader_spin_density
 _atom_site_hse06_ddec_charge
 _atom_site_hse06_ddec_spin_density
 _atom_site_hse06_ddec_sum_bond_order
 _atom_site_hse06_magmom
 _atom_site_pbe_bader_spin_density
 _atom_site_pbe_cm5_charge
 _atom_site_pbe_ddec_charge
 _atom_site_pbe_ddec_spin_density
 _atom_site_pbe_ddec_sum_bond_order
 _atom_site_pbe_magmom
Cd  Cd0  1  0.12677712  0.87322543  0.74999600  1  0  1.04877  0  1.804677  0  0  0.888699  0  2.271174  0  0  0.935686  0  2.22562  0  0  0.660614  0.855349  0  2.302596  0
Cd  Cd1  1  0.87321403  0.12677950  0.25000017  1  0  1.048631  0  1.804924  0  0  0.888565  0  2.271434  0  0  0.935545  0  2.22589  0  0  0.660611  0.855218  0  2.302857  0
H  H2  1  0.83534011  0.26813883  0.47850726  1  0  0.103863  0  0.969572  0  0  0.114507  0  1.03312  0  0  0.118063  0  1.03077  0  0  0.095569  0.111946  0  1.034873  0
H  H3  1  0.73188046  0.16465435  0.02148743  1  0  0.104022  0  0.969535  0  0  0.114605  0  1.033146  0  0  0.118163  0  1.030794  0  0  0.095597  0.112044  0  1.034898  0
H  H4  1  0.16466041  0.73187207  0.52148024  1  0  0.104007  0  0.969684  0  0  0.11459  0  1.033272  0  0  0.118146  0  1.030927  0  0  0.095634  0.11203  0  1.035023  0
H  H5  1  0.26812939  0.83533048  0.97851911  1  0  0.104005  0  0.969686  0  0  0.114596  0  1.033266  0  0  0.118149  0  1.030925  0  0  0.095619  0.112035  0  1.035016  0
H  H6  1  0.64823351  0.56997172  0.40666551  1  0  0.111998  0  0.950311  0  0  0.122768  0  1.007108  0  0  0.126196  0  1.005376  0  0  0.106183  0.120275  0  1.008484  0
H  H7  1  0.43005669  0.35175583  0.09333743  1  0  0.111929  0  0.950335  0  0  0.122743  0  1.007104  0  0  0.126172  0  1.00537  0  0  0.10612  0.12025  0  1.008479  0
H  H8  1  0.35175120  0.43004169  0.59332874  1  0  0.111969  0  0.950263  0  0  0.122695  0  1.007115  0  0  0.126137  0  1.005343  0  0  0.106154  0.120199  0  1.008493  0
H  H9  1  0.56995664  0.64823855  0.90667265  1  0  0.112045  0  0.950302  0  0  0.122748  0  1.007173  0  0  0.126184  0  1.00542  0  0  0.106196  0.120253  0  1.00855  0
H  H10  1  0.56122828  0.86188735  0.47065329  1  0  0.090492  0  0.954038  0  0  0.10233  0  1.013312  0  0  0.105028  0  1.012118  0  0  0.103364  0.100386  0  1.01427  0
H  H11  1  0.13813554  0.43875727  0.02935619  1  0  0.090455  0  0.954014  0  0  0.10225  0  1.013351  0  0  0.104946  0  1.012162  0  0  0.103351  0.100305  0  1.014309  0
H  H12  1  0.43874986  0.13812433  0.52934806  1  0  0.090425  0  0.954111  0  0  0.102262  0  1.013386  0  0  0.104957  0  1.012198  0  0  0.103352  0.10032  0  1.014343  0
H  H13  1  0.86187792  0.56124136  0.97065245  1  0  0.090403  0  0.954088  0  0  0.102293  0  1.01331  0  0  0.10499  0  1.012117  0  0  0.103356  0.100351  0  1.014267  0
H  H14  1  0.65665653  0.86547979  0.60969919  1  0  0.110342  0  0.932255  0  0  0.119592  0  0.993843  0  0  0.123362  0  0.990912  0  0  0.108625  0.116832  0  0.996047  0
H  H15  1  0.13452597  0.34333675  0.89030949  1  0  0.110407  0  0.932154  0  0  0.119576  0  0.993835  0  0  0.123342  0  0.990903  0  0  0.108637  0.116817  0  0.996037  0
H  H16  1  0.34334157  0.13451949  0.39029813  1  0  0.110378  0  0.932212  0  0  0.119555  0  0.993893  0  0  0.12332  0  0.990961  0  0  0.108594  0.116796  0  0.996093  0
H  H17  1  0.86548116  0.65666040  0.10970138  1  0  0.110332  0  0.932271  0  0  0.119568  0  0.993882  0  0  0.123339  0  0.990951  0  0  0.10859  0.116804  0  0.996088  0
H  H18  1  0.38730046  0.49565294  0.73656898  1  0  0.436189  0  0.860697  0  0  0.404935  0  0.924653  0  0  0.414615  0  0.910615  0  0  0.296148  0.398076  0  0.934593  0
H  H19  1  0.50434473  0.61269164  0.76343293  1  0  0.436146  0  0.860754  0  0  0.404867  0  0.924741  0  0  0.414543  0  0.910702  0  0  0.296121  0.398005  0  0.934687  0
H  H20  1  0.61268421  0.50435036  0.26343247  1  0  0.436163  0  0.860762  0  0  0.404892  0  0.924745  0  0  0.414573  0  0.910696  0  0  0.296135  0.398028  0  0.934691  0
H  H21  1  0.49564762  0.38730491  0.23656363  1  0  0.436214  0  0.860673  0  0  0.404976  0  0.924632  0  0  0.414656  0  0.910584  0  0  0.296166  0.398112  0  0.934579  0
C  C22  1  0.96007398  0.24233852  0.63758880  1  0  0.294697  0  3.823946  0  0  0.276195  0  4.107308  0  0  0.299895  0  4.116791  0  0  0.138094  0.260351  0  4.100195  0
C  C23  1  0.75766764  0.03991555  0.86240978  1  0  0.294784  0  3.824308  0  0  0.276288  0  4.107593  0  0  0.299991  0  4.117073  0  0  0.13814  0.260443  0  4.10048  0
C  C24  1  0.03992450  0.75766525  0.36240221  1  0  0.294401  0  3.824244  0  0  0.275881  0  4.107645  0  0  0.299579  0  4.117134  0  0  0.137955  0.260037  0  4.100529  0
C  C25  1  0.24233740  0.96007624  0.13759725  1  0  0.294426  0  3.824211  0  0  0.275923  0  4.107599  0  0  0.29962  0  4.117086  0  0  0.13796  0.260079  0  4.100481  0
C  C26  1  0.85037386  0.39995378  0.58298219  1  0  -0.003807  0  3.797713  0  0  0.009776  0  4.027022  0  0  0.004741  0  4.051626  0  0  -0.009388  0.012976  0  4.010525  0
C  C27  1  0.60005967  0.14962011  0.91701516  1  0  -0.003777  0  3.79819  0  0  0.009868  0  4.027368  0  0  0.004832  0  4.051972  0  0  -0.00942  0.013069  0  4.010866  0
C  C28  1  0.14962844  0.60005163  0.41700369  1  0  -0.003447  0  3.79747  0  0  0.010121  0  4.026784  0  0  0.005088  0  4.051392  0  0  -0.009317  0.013321  0  4.010287  0
C  C29  1  0.39995080  0.85037588  0.08299075  1  0  -0.003485  0  3.797536  0  0  0.010059  0  4.026855  0  0  0.005026  0  4.05146  0  0  -0.009375  0.013256  0  4.010355  0
C  C30  1  0.79642215  0.39856102  0.50626947  1  0  -0.060063  0  3.684225  0  0  -0.081527  0  3.93097  0  0  -0.082131  0  3.950194  0  0  -0.075202  -0.081059  0  3.918012  0
C  C31  1  0.60145885  0.20356686  0.99372659  1  0  -0.060093  0  3.68429  0  0  -0.081541  0  3.93101  0  0  -0.082147  0  3.950236  0  0  -0.07512  -0.081072  0  3.918049  0
C  C32  1  0.20357133  0.60144539  0.49372469  1  0  -0.060186  0  3.68422  0  0  -0.081604  0  3.930947  0  0  -0.082213  0  3.950175  0  0  -0.075135  -0.081136  0  3.917986  0
C  C33  1  0.39855246  0.79642222  0.00627844  1  0  -0.060267  0  3.684093  0  0  -0.081701  0  3.930841  0  0  -0.082309  0  3.950064  0  0  -0.075176  -0.081232  0  3.917876  0
C  C34  1  0.69168528  0.56689047  0.46677664  1  0  -0.04591  0  3.700194  0  0  -0.064068  0  3.955508  0  0  -0.0651  0  3.974629  0  0  -0.079479  -0.063349  0  3.942552  0
C  C35  1  0.43313717  0.30830163  0.03322647  1  0  -0.046088  0  3.700236  0  0  -0.064285  0  3.955559  0  0  -0.065318  0  3.974684  0  0  -0.079597  -0.063567  0  3.942599  0
C  C36  1  0.30830713  0.43312445  0.53321470  1  0  -0.046152  0  3.70038  0  0  -0.064264  0  3.955731  0  0  -0.065292  0  3.974858  0  0  -0.079686  -0.06354  0  3.942774  0
C  C37  1  0.56688106  0.69169001  0.96678229  1  0  -0.046125  0  3.70005  0  0  -0.064226  0  3.955444  0  0  -0.065252  0  3.974563  0  0  -0.079637  -0.063503  0  3.942486  0
C  C38  1  0.64186035  0.73310813  0.50340923  1  0  -0.049049  0  3.71346  0  0  -0.065198  0  3.970097  0  0  -0.066583  0  3.989624  0  0  -0.077691  -0.064251  0  3.956866  0
C  C39  1  0.26691520  0.35812313  0.99659904  1  0  -0.048855  0  3.713428  0  0  -0.064976  0  3.970057  0  0  -0.06636  0  3.989586  0  0  -0.077631  -0.064029  0  3.956822  0
C  C40  1  0.35812863  0.26690373  0.49658791  1  0  -0.04894  0  3.713299  0  0  -0.065079  0  3.969873  0  0  -0.066466  0  3.989407  0  0  -0.077656  -0.064117  0  3.956603  0
C  C41  1  0.73310212  0.64187123  0.00341083  1  0  -0.048931  0  3.713383  0  0  -0.065115  0  3.96999  0  0  -0.066503  0  3.989522  0  0  -0.077701  -0.064153  0  3.956715  0
C  C42  1  0.69464721  0.73648776  0.58081383  1  0  -0.04345  0  3.727009  0  0  -0.070646  0  3.983168  0  0  -0.069385  0  4.000403  0  0  -0.074896  -0.071446  0  3.971589  0
C  C43  1  0.26352327  0.30534567  0.91919399  1  0  -0.043502  0  3.726767  0  0  -0.070659  0  3.982954  0  0  -0.069383  0  4.000159  0  0  -0.07488  -0.071462  0  3.971377  0
C  C44  1  0.30534839  0.26351580  0.41918158  1  0  -0.043525  0  3.726901  0  0  -0.070689  0  3.98307  0  0  -0.069413  0  4.000277  0  0  -0.074837  -0.071488  0  3.971497  0
C  C45  1  0.73648791  0.69465153  0.08081545  1  0  -0.043464  0  3.727069  0  0  -0.070668  0  3.983178  0  0  -0.069412  0  4.000419  0  0  -0.074826  -0.071465  0  3.971597  0
C  C46  1  0.79834654  0.56771614  0.61875803  1  0  -0.15104  0  3.742828  0  0  -0.130083  0  3.986152  0  0  -0.135681  0  4.007911  0  0  -0.015312  -0.126382  0  3.971678  0
C  C47  1  0.43229219  0.20164483  0.88124517  1  0  -0.151265  0  3.743066  0  0  -0.13031  0  3.986345  0  0  -0.135906  0  4.008099  0  0  -0.015382  -0.126612  0  3.971874  0
C  C48  1  0.20165266  0.43228471  0.38123552  1  0  -0.151026  0  3.742885  0  0  -0.130017  0  3.986119  0  0  -0.135613  0  4.007883  0  0  -0.015284  -0.126321  0  3.971648  0
C  C49  1  0.56771847  0.79835960  0.11875907  1  0  -0.151049  0  3.742868  0  0  -0.129981  0  3.986052  0  0  -0.135577  0  4.007813  0  0  -0.015256  -0.126284  0  3.971577  0
S  S50  1  0.04154318  0.02120855  0.61023420  1  0  -0.3562  0  2.092004  0  0  -0.324817  0  2.437977  0  0  -0.349643  0  2.433241  0  0  -0.142982  -0.307454  0  2.440745  0
S  S51  1  0.97879446  0.95844129  0.88976118  1  0  -0.356213  0  2.092136  0  0  -0.324852  0  2.438113  0  0  -0.349676  0  2.433375  0  0  -0.142973  -0.307489  0  2.440882  0
S  S52  1  0.95844258  0.97878808  0.38976150  1  0  -0.35618  0  2.092133  0  0  -0.324809  0  2.438144  0  0  -0.349633  0  2.433408  0  0  -0.142992  -0.307448  0  2.440916  0
S  S53  1  0.02121362  0.04155499  0.11023939  1  0  -0.356196  0  2.092206  0  0  -0.324806  0  2.438186  0  0  -0.34963  0  2.43345  0  0  -0.142973  -0.307443  0  2.440955  0
S  S54  1  0.88936846  0.51172263  0.71563972  1  0  1.246278  0  5.312052  0  0  1.158217  0  5.816065  0  0  1.204093  0  5.798425  0  0  0.569607  1.126482  0  5.827479  0
S  S55  1  0.48827818  0.11062645  0.78436188  1  0  1.246684  0  5.311892  0  0  1.158621  0  5.815881  0  0  1.204503  0  5.798234  0  0  0.569773  1.126886  0  5.827296  0
S  S56  1  0.11063346  0.48827828  0.28435246  1  0  1.245923  0  5.312352  0  0  1.157815  0  5.81639  0  0  1.203687  0  5.798762  0  0  0.569536  1.126081  0  5.827797  0
S  S57  1  0.51172651  0.88936679  0.21564389  1  0  1.245986  0  5.312159  0  0  1.157873  0  5.816173  0  0  1.203747  0  5.798545  0  0  0.569515  1.126139  0  5.827581  0
N  N58  1  0.98765468  0.28700636  0.70825825  1  0  -0.563384  0  2.904441  0  0  -0.52382  0  3.201448  0  0  -0.546121  0  3.205396  0  0  -0.358343  -0.5087  0  3.198424  0
N  N59  1  0.71299265  0.01233683  0.79174121  1  0  -0.563444  0  2.904483  0  0  -0.523873  0  3.201462  0  0  -0.546173  0  3.205407  0  0  -0.358345  -0.508752  0  3.198438  0
N  N60  1  0.01233211  0.71299591  0.29173589  1  0  -0.563076  0  2.904204  0  0  -0.523489  0  3.201182  0  0  -0.545787  0  3.205132  0  0  -0.358163  -0.508367  0  3.19815  0
N  N61  1  0.28700451  0.98765919  0.20826541  1  0  -0.563091  0  2.904211  0  0  -0.523515  0  3.201184  0  0  -0.545809  0  3.205131  0  0  -0.358152  -0.508394  0  3.198152  0
O  O62  1  0.74090339  0.54012623  0.78358221  1  0  -0.600757  0  1.952079  0  0  -0.5436  0  2.185313  0  0  -0.56558  0  2.173096  0  0  -0.301228  -0.528063  0  2.193199  0
O  O63  1  0.45986834  0.25909218  0.71642151  1  0  -0.601008  0  1.952072  0  0  -0.543859  0  2.185317  0  0  -0.565848  0  2.173094  0  0  -0.301352  -0.528325  0  2.193206  0
O  O64  1  0.25909388  0.45988592  0.21640842  1  0  -0.600778  0  1.95236  0  0  -0.543574  0  2.185583  0  0  -0.565561  0  2.173373  0  0  -0.301281  -0.528028  0  2.193446  0
O  O65  1  0.54013897  0.74089277  0.28358274  1  0  -0.600666  0  1.952085  0  0  -0.543502  0  2.185331  0  0  -0.565496  0  2.173128  0  0  -0.30121  -0.52796  0  2.1932  0
O  O66  1  0.03378878  0.59773910  0.71889126  1  0  -0.619997  0  2.018163  0  0  -0.556694  0  2.283865  0  0  -0.580617  0  2.269932  0  0  -0.312676  -0.539703  0  2.292882  0
O  O67  1  0.40225431  0.96621080  0.78110986  1  0  -0.620062  0  2.018122  0  0  -0.556771  0  2.283838  0  0  -0.580697  0  2.269903  0  0  -0.312706  -0.539779  0  2.292856  0
O  O68  1  0.96622048  0.40225060  0.28110174  1  0  -0.619799  0  2.018167  0  0  -0.55653  0  2.28393  0  0  -0.580441  0  2.269995  0  0  -0.312663  -0.539539  0  2.292946  0
O  O69  1  0.59773658  0.03379205  0.21889975  1  0  -0.61991  0  2.018197  0  0  -0.556608  0  2.283941  0  0  -0.580522  0  2.270005  0  0  -0.312697  -0.539618  0  2.292961  0
O  O70  1  0.37983953  0.62015585  0.75000184  1  0  -0.849047  0  1.925691  0  0  -0.78421  0  2.130163  0  0  -0.805787  0  2.097983  0  0  -0.601343  -0.768972  0  2.152541  0
O  O71  1  0.62014680  0.37984595  0.25000142  1  0  -0.849059  0  1.925733  0  0  -0.784279  0  2.13011  0  0  -0.80585  0  2.097939  0  0  -0.601351  -0.76905  0  2.152514  0
