# generated using pymatgen
data_CuH4C16(N2Cl)4
_symmetry_space_group_name_H-M   'P 1'
_cell_length_a   3.85817390
_cell_length_b   15.36357058
_cell_length_c   15.35209714
_cell_angle_alpha   89.07729776
_cell_angle_beta   82.77529907
_cell_angle_gamma   82.78242206
_symmetry_Int_Tables_number   1
_chemical_formula_structural   CuH4C16(N2Cl)4
_chemical_formula_sum   'Cu2 H8 C32 N16 Cl8'
_cell_volume   895.62224392
_cell_formula_units_Z   2
loop_
 _symmetry_equiv_pos_site_id
 _symmetry_equiv_pos_as_xyz
  1  'x, y, z'
loop_
 _atom_site_type_symbol
 _atom_site_label
 _atom_site_symmetry_multiplicity
 _atom_site_fract_x
 _atom_site_fract_y
 _atom_site_fract_z
 _atom_site_occupancy
 _atom_site_pbe_cm5_charge
 _atom_site_pbe_ddec_charge
 _atom_site_pbe_ddec_spin_density
 _atom_site_pbe_ddec_sum_bond_order
 _atom_site_pbe_magmom
Cu  Cu0  1  0.87615725  0.74996066  0.24989731  1  0.758136  0.811412  -0.007234  2.607766  -0.003
Cu  Cu1  1  0.12384749  0.25003910  0.75010818  1  0.758082  0.811347  -0.007241  2.607716  -0.003
H  H2  1  0.70513951  0.55410486  0.14635016  1  0.111556  0.146618  0.000101  1.013126  0.0
H  H3  1  0.75969781  0.14636833  0.94590992  1  0.111443  0.146907  8.1e-05  1.012284  0.0
H  H4  1  0.40579881  0.94604814  0.35351617  1  0.111485  0.146758  3.9e-05  1.01258  0.0
H  H5  1  0.85134633  0.35361000  0.55377513  1  0.111176  0.146226  9.5e-05  1.012987  0.0
H  H6  1  0.29490143  0.44589662  0.85364745  1  0.111506  0.146629  0.000102  1.013062  0.0
H  H7  1  0.24027497  0.85362354  0.05408638  1  0.111459  0.146974  8.1e-05  1.012207  0.0
H  H8  1  0.59424454  0.05395154  0.64649063  1  0.111496  0.146827  4e-05  1.012531  0.0
H  H9  1  0.14860151  0.64639448  0.44621985  1  0.111188  0.146328  9.4e-05  1.012783  0.0
C  C10  1  0.74513350  0.57625575  0.00585060  1  0.127825  0.220372  -0.008921  4.05978  -0.004
C  C11  1  0.82099071  0.00597417  0.92376072  1  0.129594  0.222227  -0.007625  4.05891  -0.004
C  C12  1  0.32791504  0.92370444  0.49404583  1  0.128837  0.220741  -0.004947  4.059083  -0.002
C  C13  1  0.75037827  0.49396326  0.57619277  1  0.129078  0.221996  -0.008169  4.057239  -0.004
C  C14  1  0.25490049  0.42374483  0.99414701  1  0.127947  0.220411  -0.008922  4.059894  -0.004
C  C15  1  0.17896707  0.99402062  0.07623886  1  0.129646  0.222345  -0.007629  4.058843  -0.004
C  C16  1  0.67212008  0.07629694  0.50595835  1  0.128904  0.220854  -0.004947  4.059045  -0.002
C  C17  1  0.24957844  0.50603951  0.42380353  1  0.128927  0.22153  -0.008171  4.05757  -0.004
C  C18  1  0.83413390  0.52934594  0.08282907  1  -0.097041  -0.232983  -0.00243  3.937823  -0.001
C  C19  1  0.86357427  0.08285788  0.97071794  1  -0.096993  -0.233156  -0.002174  3.938484  -0.001
C  C20  1  0.44619086  0.97079087  0.41707370  1  -0.096596  -0.231835  -0.001192  3.938016  0.0
C  C21  1  0.91679789  0.41713573  0.52911517  1  -0.096486  -0.231768  -0.001896  3.937065  -0.001
C  C22  1  0.16589061  0.47065301  0.91716985  1  -0.097071  -0.233019  -0.00243  3.937742  -0.001
C  C23  1  0.13638799  0.91713504  0.02928164  1  -0.097103  -0.233366  -0.002171  3.938685  -0.001
C  C24  1  0.55384204  0.02920913  0.58293244  1  -0.096621  -0.231888  -0.00119  3.937992  0.0
C  C25  1  0.08313802  0.58286696  0.47087587  1  -0.096406  -0.231654  -0.001896  3.936872  -0.001
C  C26  1  0.92289679  0.54409502  0.92174781  1  0.023616  0.091289  -0.006412  4.008868  -0.004
C  C27  1  0.96636293  0.92181781  0.95587956  1  0.023282  0.090459  -0.005376  4.009371  -0.003
C  C28  1  0.38928842  0.95574061  0.57825414  1  0.023921  0.090064  -0.003556  4.012027  -0.002
C  C29  1  0.84399539  0.57812425  0.54420031  1  0.023163  0.089653  -0.006093  4.010866  -0.003
C  C30  1  0.07713746  0.45590760  0.07825045  1  0.023565  0.091404  -0.006413  4.008821  -0.004
C  C31  1  0.03361290  0.07817755  0.04411937  1  0.023291  0.090441  -0.005375  4.009222  -0.003
C  C32  1  0.61074259  0.04425801  0.42175332  1  0.023809  0.09006  -0.003557  4.012088  -0.002
C  C33  1  0.15596450  0.42187730  0.45579730  1  0.023232  0.089853  -0.006093  4.010642  -0.003
C  C34  1  0.33605439  0.68158134  0.07946871  1  0.305833  0.44954  0.001391  4.203868  0.002
C  C35  1  0.51641670  0.07969518  0.81848401  1  0.305804  0.449097  0.001198  4.207312  0.002
C  C36  1  0.09836052  0.81838875  0.42030901  1  0.306074  0.447723  0.000716  4.203143  0.001
C  C37  1  0.41466056  0.42016514  0.68147556  1  0.306386  0.449771  0.001297  4.201537  0.002
C  C38  1  0.66397228  0.31841509  0.92053612  1  0.305864  0.449638  0.001394  4.203699  0.002
C  C39  1  0.48355131  0.92030051  0.18150900  1  0.30572  0.448847  0.001196  4.207085  0.002
C  C40  1  0.90169929  0.18161540  0.57969254  1  0.306075  0.447915  0.000718  4.203065  0.001
C  C41  1  0.58531312  0.57983828  0.31852730  1  0.306332  0.449607  0.001297  4.20133  0.002
N  N42  1  0.17240704  0.72169458  0.13941139  1  -0.399877  -0.530061  -0.013116  3.27448  -0.01
N  N43  1  0.38984826  0.13943054  0.77865884  1  -0.398981  -0.52837  -0.011374  3.276809  -0.009
N  N44  1  0.03248818  0.77853883  0.36047446  1  -0.397909  -0.526274  -0.006828  3.272861  -0.005
N  N45  1  0.30826170  0.36039374  0.72126714  1  -0.399867  -0.529275  -0.011595  3.275776  -0.009
N  N46  1  0.82760577  0.27830200  0.86058950  1  -0.399888  -0.530052  -0.013119  3.274369  -0.01
N  N47  1  0.61017552  0.86057044  0.22134271  1  -0.398934  -0.528218  -0.011386  3.27637  -0.009
N  N48  1  0.96754411  0.22146443  0.63952643  1  -0.397942  -0.526294  -0.006822  3.272758  -0.005
N  N49  1  0.69175469  0.63961171  0.27873507  1  -0.39985  -0.529184  -0.011609  3.275479  -0.009
N  N50  1  0.50565421  0.64753046  0.00794216  1  -0.292934  -0.333055  -0.01671  3.447123  -0.013
N  N51  1  0.65282008  0.00819704  0.85244895  1  -0.294016  -0.3342  -0.014387  3.448347  -0.011
N  N52  1  0.16285720  0.85232654  0.49186654  1  -0.29209  -0.330345  -0.008875  3.446206  -0.007
N  N53  1  0.51341131  0.49169193  0.64755273  1  -0.293303  -0.333183  -0.015127  3.445746  -0.011
N  N54  1  0.49436269  0.35246759  0.99205807  1  -0.293006  -0.333224  -0.016708  3.447403  -0.013
N  N55  1  0.34713484  0.99179768  0.14755129  1  -0.293984  -0.334125  -0.014381  3.448326  -0.011
N  N56  1  0.83718078  0.14767493  0.50813698  1  -0.292122  -0.330592  -0.008873  3.446178  -0.007
N  N57  1  0.48653678  0.50831458  0.35244291  1  -0.293277  -0.332982  -0.015126  3.445974  -0.011
Cl  Cl58  1  0.82500710  0.59861077  0.82807390  1  0.02923  -0.017541  -0.002112  1.65885  -0.002
Cl  Cl59  1  0.92191209  0.82832675  0.90133884  1  0.030052  -0.015995  -0.001825  1.657413  -0.001
Cl  Cl60  1  0.25223774  0.90108100  0.67181308  1  0.030181  -0.01582  -0.001376  1.658712  -0.001
Cl  Cl61  1  0.65166915  0.67157518  0.59885389  1  0.029554  -0.01701  -0.002225  1.658803  -0.002
Cl  Cl62  1  0.17501612  0.40139013  0.17192371  1  0.029238  -0.017538  -0.002113  1.658763  -0.002
Cl  Cl63  1  0.07804622  0.17167276  0.09866074  1  0.030051  -0.015979  -0.001824  1.657259  -0.001
Cl  Cl64  1  0.74779516  0.09891835  0.32819438  1  0.030226  -0.015801  -0.001376  1.658702  -0.001
Cl  Cl65  1  0.34828729  0.32842491  0.40114306  1  0.029514  -0.017077  -0.002224  1.658688  -0.002
