# generated using pymatgen
data_CuH26C40(NO2)4
_symmetry_space_group_name_H-M   'P 1'
_cell_length_a   8.83548718
_cell_length_b   14.39584709
_cell_length_c   16.28260742
_cell_angle_alpha   96.91766117
_cell_angle_beta   93.47415350
_cell_angle_gamma   99.62213252
_symmetry_Int_Tables_number   1
_chemical_formula_structural   CuH26C40(NO2)4
_chemical_formula_sum   'Cu2 H52 C80 N8 O16'
_cell_volume   2020.14685196
_cell_formula_units_Z   2
loop_
 _symmetry_equiv_pos_site_id
 _symmetry_equiv_pos_as_xyz
  1  'x, y, z'
loop_
 _atom_site_type_symbol
 _atom_site_label
 _atom_site_symmetry_multiplicity
 _atom_site_fract_x
 _atom_site_fract_y
 _atom_site_fract_z
 _atom_site_occupancy
 _atom_site_pbe_bader_charge
 _atom_site_pbe_bader_spin_density
 _atom_site_pbe_cm5_charge
 _atom_site_pbe_ddec_charge
 _atom_site_pbe_ddec_spin_density
 _atom_site_pbe_ddec_sum_bond_order
 _atom_site_pbe_magmom
Cu  Cu0  1  0.85937514  0.42260864  0.03968747  1  1.082535  0.563859  0.739848  0.783434  0.753167  2.218677  0.563
Cu  Cu1  1  0.14062326  0.57746087  0.96024967  1  1.082567  -0.563966  0.740014  0.78394  -0.753281  2.219067  -0.563
H  H2  1  0.82498642  0.05417713  0.73223420  1  0.098857  -7.5e-05  0.118628  0.106371  -3.6e-05  0.982009  0.0
H  H3  1  0.17499964  0.94581311  0.26775568  1  0.098561  7.5e-05  0.118568  0.106239  3.6e-05  0.982151  0.0
H  H4  1  0.63939884  0.03147632  0.77221631  1  0.119782  -0.00017  0.123402  0.117  -9.1e-05  0.967901  0.0
H  H5  1  0.36058387  0.96851783  0.22779297  1  0.119587  0.000169  0.123356  0.11693  9.1e-05  0.96809  0.0
H  H6  1  0.38146911  0.47117418  0.05624749  1  0.097861  0.000143  0.104844  0.12882  0.000153  1.027196  0.0
H  H7  1  0.61863283  0.52882492  0.94375565  1  0.094416  -0.000146  0.104855  0.128822  -0.000154  1.027595  0.0
H  H8  1  0.91490311  0.65550185  0.63560433  1  0.118736  -2.4e-05  0.11059  0.113227  -1.6e-05  0.984677  0.0
H  H9  1  0.08509238  0.34450593  0.36440269  1  0.118665  2.4e-05  0.11055  0.113174  1.6e-05  0.984664  0.0
H  H10  1  0.35225311  0.27225591  0.11303819  1  0.101095  0.001675  0.109003  0.125354  0.00081  0.982619  0.001
H  H11  1  0.64769697  0.72772650  0.88698279  1  0.101729  -0.001671  0.109066  0.12551  -0.000808  0.982731  -0.001
H  H12  1  0.90535465  0.75761619  0.37490285  1  0.123132  -9.4e-05  0.118075  0.121473  -5e-05  1.028068  0.0
H  H13  1  0.09465459  0.24238380  0.62510550  1  0.123205  9.4e-05  0.118076  0.121484  5e-05  1.02829  0.0
H  H14  1  0.72721957  0.77076151  0.32308939  1  0.088556  2.8e-05  0.114383  0.102041  2.8e-05  1.011736  0.0
H  H15  1  0.27279820  0.22924071  0.67691581  1  0.088271  -2.8e-05  0.114414  0.102088  -2.8e-05  1.012045  0.0
H  H16  1  0.00491744  0.46686356  0.21415713  1  0.125091  0.002281  0.121131  0.094706  0.001078  1.006316  0.001
H  H17  1  0.99512797  0.53314023  0.78584728  1  0.125314  -0.002275  0.121099  0.094579  -0.001074  1.006496  -0.001
H  H18  1  0.98048631  0.58295925  0.33979431  1  0.094161  0.001218  0.109534  0.123395  0.000632  1.003081  0.001
H  H19  1  0.01951377  0.41703228  0.66020721  1  0.094208  -0.001216  0.10957  0.123462  -0.000631  1.003197  -0.001
H  H20  1  0.73645534  0.40063484  0.86797252  1  0.111673  0.002131  0.120375  0.094247  0.000995  0.996777  0.002
H  H21  1  0.26357585  0.59936690  0.13202383  1  0.111416  -0.002126  0.120393  0.094295  -0.000992  0.996752  -0.002
H  H22  1  0.18606034  0.05816955  0.61491238  1  0.109329  0.0  0.11452  0.118815  1e-06  0.983941  0.0
H  H23  1  0.81393238  0.94182410  0.38508793  1  0.109414  -0.0  0.114521  0.118797  -1e-06  0.983921  0.0
H  H24  1  0.65649954  0.69667621  0.18904341  1  0.086399  0.001048  0.115856  0.130972  0.000549  0.979822  0.001
H  H25  1  0.34354174  0.30333356  0.81094377  1  0.086104  -0.001049  0.115861  0.130981  -0.000549  0.980099  -0.001
H  H26  1  0.24359413  0.61424901  0.40434105  1  0.119324  3e-05  0.10851  0.107027  2.1e-05  0.999225  0.0
H  H27  1  0.75641642  0.38575200  0.59565027  1  0.119431  -3e-05  0.108519  0.107032  -2.1e-05  0.999217  0.0
H  H28  1  0.21734058  0.12362176  0.36404636  1  0.055749  -2e-06  0.109852  0.111466  -1e-06  0.980187  0.0
H  H29  1  0.78267047  0.87636831  0.63596024  1  0.055593  2e-06  0.109853  0.111454  1e-06  0.980012  0.0
H  H30  1  0.77306536  0.62072223  0.75943229  1  0.140445  -8.9e-05  0.100724  0.112006  -7.3e-05  1.058925  0.0
H  H31  1  0.22693110  0.37928931  0.24056292  1  0.140369  8.9e-05  0.100739  0.11202  7.3e-05  1.058762  0.0
H  H32  1  0.69569188  0.57854934  0.07048783  1  0.115871  0.001966  0.118656  0.091889  0.000847  1.036407  0.002
H  H33  1  0.30438298  0.42147109  0.92950844  1  0.115096  -0.001964  0.118672  0.092034  -0.000845  1.036269  -0.002
H  H34  1  0.09806585  0.56956287  0.52453110  1  0.106813  -1e-06  0.102536  0.106665  -1e-06  1.027509  0.0
H  H35  1  0.90195191  0.43043954  0.47546368  1  0.106726  1e-06  0.102556  0.106707  0.0  1.027399  0.0
H  H36  1  0.88396712  0.18312452  0.47573778  1  0.100636  -0.0  0.108637  0.111746  1e-06  1.030359  0.0
H  H37  1  0.11602704  0.81688263  0.52426420  1  0.101395  0.0  0.108683  0.111807  -1e-06  1.03036  0.0
H  H38  1  0.66597116  0.27182381  0.74954571  1  0.139822  0.000903  0.106326  0.128627  0.000476  1.052917  0.001
H  H39  1  0.33401258  0.72816229  0.25043683  1  0.139604  -0.000903  0.106397  0.128596  -0.000476  1.053265  -0.001
H  H40  1  0.24018196  0.55904483  0.65918075  1  0.08636  -7e-06  0.104188  0.104649  -3e-06  1.023067  0.0
H  H41  1  0.75981485  0.44096398  0.34080862  1  0.086514  7e-06  0.104212  0.104663  3e-06  1.022962  0.0
H  H42  1  0.48660405  0.57863595  0.74535576  1  0.08197  1.9e-05  0.10658  0.111956  2.6e-05  1.007714  0.0
H  H43  1  0.51341347  0.42138195  0.25464764  1  0.081949  -1.9e-05  0.106594  0.111949  -2.6e-05  1.007544  0.0
H  H44  1  0.94729225  0.23056048  0.00913902  1  0.152064  0.002236  0.123541  0.10496  0.001082  1.004109  0.001
H  H45  1  0.05270501  0.76943315  0.99086390  1  0.152104  -0.002228  0.123513  0.104827  -0.001078  1.004404  -0.001
H  H46  1  0.75967136  0.19899300  0.33691633  1  0.11704  1.6e-05  0.115595  0.121192  1.2e-05  0.964822  0.0
H  H47  1  0.24032387  0.80100549  0.66309263  1  0.117024  -1.6e-05  0.115651  0.121316  -1.2e-05  0.96478  0.0
H  H48  1  0.05885346  0.07421564  0.47772428  1  0.061669  -0.0  0.106351  0.107781  0.0  1.011026  0.0
H  H49  1  0.94114067  0.92576677  0.52226859  1  0.062085  0.0  0.106394  0.107778  -0.0  1.011057  0.0
H  H50  1  0.88576999  0.09227632  0.89590461  1  0.09723  0.001291  0.114308  0.123086  0.000687  0.976842  0.001
H  H51  1  0.11419456  0.90771764  0.10411084  1  0.097133  -0.001288  0.114349  0.123052  -0.000686  0.977205  -0.001
H  H52  1  0.47599887  0.16860500  0.31201086  1  0.066452  -3e-06  0.113008  0.114687  -3e-06  0.977126  0.0
H  H53  1  0.52400164  0.83139214  0.68799503  1  0.066308  3e-06  0.112896  0.114479  3e-06  0.977102  0.0
C  C54  1  0.54783756  0.65815478  0.39975106  1  1.354704  -2.9e-05  0.241416  0.436488  -2.9e-05  4.104137  0.0
C  C55  1  0.45217060  0.34185405  0.60023989  1  1.355208  2.9e-05  0.2412  0.436136  2.9e-05  4.104843  0.0
C  C56  1  0.72241481  0.08447126  0.74732344  1  0.274289  0.000136  -0.049449  -0.110653  0.0001  3.925228  0.0
C  C57  1  0.27757685  0.91553091  0.25267787  1  0.27413  -0.000135  -0.049396  -0.110327  -0.0001  3.924404  0.0
C  C58  1  0.15721854  0.39197108  0.08460718  1  1.547791  -0.000174  0.189684  0.593106  0.000712  4.240439  -0.002
C  C59  1  0.84274688  0.60803882  0.91539240  1  1.547615  0.000168  0.18984  0.593498  -0.000715  4.240741  0.002
C  C60  1  0.54735964  0.61987170  0.54557993  1  -0.096034  -1e-06  0.000858  0.029107  0.0  3.997846  0.0
C  C61  1  0.45263908  0.38013988  0.45441413  1  -0.095932  2e-06  0.00076  0.028903  -0.0  3.997234  0.0
C  C62  1  0.32637616  0.40555005  0.07754340  1  -0.106593  0.00939  -0.101154  -0.218694  0.006848  3.926847  0.007
C  C63  1  0.67362161  0.59445764  0.92246859  1  -0.102632  -0.009374  -0.101021  -0.21859  -0.006837  3.927931  -0.007
C  C64  1  0.81494794  0.64862755  0.27423096  1  -0.031089  -0.003753  0.015507  0.1578  -0.002531  3.928774  -0.002
C  C65  1  0.18507797  0.35137545  0.72577274  1  -0.031283  0.003753  0.015423  0.157554  0.002532  3.928452  0.002
C  C66  1  0.78938908  0.63815214  0.63019644  1  -0.065222  -2e-05  -0.068898  -0.063363  -1.7e-05  3.938431  0.0
C  C67  1  0.21060594  0.36184579  0.36980385  1  -0.064612  2e-05  -0.068895  -0.063217  1.7e-05  3.938396  0.0
C  C68  1  0.50735629  0.12271410  0.51431150  1  0.014106  -1e-06  -0.000151  0.029634  -1e-06  3.987214  0.0
C  C69  1  0.49263632  0.87728726  0.48569527  1  0.013938  1e-06  -1.2e-05  0.029714  1e-06  3.987081  0.0
C  C70  1  0.40801645  0.33747843  0.09142126  1  -0.030239  0.009503  -0.078252  -0.148686  0.006919  3.886809  0.008
C  C71  1  0.59198399  0.66251021  0.90858299  1  -0.030666  -0.009476  -0.078212  -0.148752  -0.006898  3.887514  -0.008
C  C72  1  0.71029783  0.63991488  0.55409932  1  0.005153  -0.0  -0.021008  -0.097347  0.0  4.056786  0.0
C  C73  1  0.28968013  0.36007874  0.44589869  1  0.004394  0.0  -0.021002  -0.097477  -0.0  4.056751  0.0
C  C74  1  0.79318924  0.71987976  0.34596644  1  0.299881  0.000104  -0.060663  -0.124093  6.3e-05  3.894827  0.0
C  C75  1  0.20682289  0.28010627  0.65402743  1  0.3  -0.000104  -0.06065  -0.124173  -6.3e-05  3.894962  0.0
C  C76  1  0.67028972  0.13980410  0.52705834  1  -0.049942  4e-06  -0.018271  -0.091726  3e-06  4.016379  0.0
C  C77  1  0.32969815  0.86019650  0.47295003  1  -0.050114  -4e-06  -0.018372  -0.091802  -3e-06  4.016552  0.0
C  C78  1  0.46446171  0.62618634  0.46974155  1  -0.026479  -4e-06  -0.01822  -0.09675  -3e-06  4.028704  0.0
C  C79  1  0.53553003  0.37380382  0.53025463  1  -0.026281  4e-06  -0.01819  -0.09673  4e-06  4.028888  0.0
C  C80  1  0.48693197  0.08987546  0.66138463  1  1.337418  0.0  0.24189  0.439272  6e-06  4.096837  0.0
C  C81  1  0.51306389  0.91010887  0.33862080  1  1.337087  -0.0  0.241731  0.439162  -6e-06  4.097129  0.0
C  C82  1  0.79613629  0.66512545  0.48315967  1  1.291863  8e-06  0.239936  0.427729  1.4e-05  4.125273  0.0
C  C83  1  0.20385607  0.33487122  0.51683056  1  1.2919  -7e-06  0.240053  0.427818  -1.4e-05  4.125284  0.0
C  C84  1  0.93060168  0.51999882  0.21185959  1  0.471843  -0.001001  0.050522  0.092002  0.000132  3.944755  -0.001
C  C85  1  0.06940250  0.47998726  0.78812911  1  0.47232  0.001004  0.050348  0.091995  -0.000129  3.94406  0.001
C  C86  1  0.91530463  0.58370341  0.28092122  1  -0.013826  0.005153  -0.083789  -0.18365  0.003603  3.938554  0.004
C  C87  1  0.08468461  0.41628187  0.71906877  1  -0.014371  -0.005147  -0.083754  -0.183498  -0.003598  3.938399  -0.004
C  C88  1  0.76794217  0.33112291  0.87125881  1  0.427886  -0.000966  0.051416  0.111337  -8.4e-05  3.926743  -0.001
C  C89  1  0.23205039  0.66887418  0.12874806  1  0.428124  0.00095  0.051214  0.11093  7.2e-05  3.926446  0.001
C  C90  1  0.25517311  0.07836553  0.56459678  1  -0.011694  -2e-06  -0.065299  -0.06306  -1e-06  3.939115  0.0
C  C91  1  0.74481926  0.92163088  0.43540815  1  -0.017498  3e-06  -0.065305  -0.063083  1e-06  3.93881  0.0
C  C92  1  0.73590374  0.64751999  0.19716667  1  0.018671  0.005293  -0.076072  -0.164938  0.003717  3.91988  0.004
C  C93  1  0.26412515  0.35247740  0.80283338  1  0.019548  -0.005294  -0.075959  -0.164783  -0.003718  3.920318  -0.004
C  C94  1  0.30461509  0.60710708  0.46280900  1  -0.037322  -7e-06  -0.063169  -0.047977  -1e-06  3.926177  0.0
C  C95  1  0.69537734  0.39289807  0.53718471  1  -0.040032  7e-06  -0.063226  -0.047996  1e-06  3.926282  0.0
C  C96  1  0.27228790  0.11514555  0.42390727  1  -0.002793  -8e-06  -0.074892  -0.107663  -4e-06  3.947315  0.0
C  C97  1  0.72771605  0.88485591  0.57609679  1  -0.002621  8e-06  -0.074856  -0.107532  4e-06  3.947154  0.0
C  C98  1  0.46533642  0.59529238  0.61509029  1  -0.060557  -1e-06  -0.006122  0.061706  1e-06  4.014396  0.0
C  C99  1  0.53466435  0.40471424  0.38490324  1  -0.060814  1e-06  -0.006004  0.062104  -1e-06  4.014266  0.0
C  C100  1  0.57767659  0.34936730  0.08567289  1  1.544833  -0.000896  0.181096  0.585972  0.000255  4.255637  -0.003
C  C101  1  0.42235187  0.65064481  0.91433936  1  1.544638  0.000895  0.18112  0.586058  -0.000258  4.255915  0.003
C  C102  1  0.70899561  0.61656224  0.69934744  1  -0.008311  -0.000119  -0.088962  -0.090172  -9.1e-05  3.980389  0.0
C  C103  1  0.29098551  0.38344699  0.30065378  1  -0.008556  0.000119  -0.088835  -0.089965  9.2e-05  3.980131  0.0
C  C104  1  0.43547807  0.13269710  0.43545538  1  -0.035429  -1e-06  -0.008269  0.059663  0.0  4.014015  0.0
C  C105  1  0.56451762  0.86731140  0.56455112  1  -0.034833  1e-06  -0.008248  0.059546  0.0  4.014317  0.0
C  C106  1  0.76849562  0.16976320  0.81302859  1  -0.065463  -0.003072  0.017813  0.161444  -0.002089  3.928758  -0.002
C  C107  1  0.23148254  0.83021067  0.18696030  1  -0.064605  0.003069  0.017842  0.161138  0.002087  3.928691  0.002
C  C108  1  0.75739571  0.58217655  0.13093553  1  0.479532  -0.001673  0.048477  0.10173  -0.000552  3.921453  -0.001
C  C109  1  0.24265443  0.41782812  0.86906114  1  0.479328  0.001664  0.048402  0.101579  0.000545  3.92104  0.001
C  C110  1  0.22342708  0.58140063  0.53075778  1  0.011391  2e-06  -0.088332  -0.086821  1e-06  3.998716  0.0
C  C111  1  0.77657362  0.41859737  0.46924024  1  0.014332  -2e-06  -0.088306  -0.08681  -0.0  3.998752  0.0
C  C112  1  0.74589419  0.12690864  0.60701619  1  1.291326  1e-06  0.244055  0.438516  1e-06  4.091405  0.0
C  C113  1  0.25409185  0.87307707  0.39298911  1  1.29121  -1e-06  0.244007  0.438742  -1e-06  4.091674  0.0
C  C114  1  0.75915482  0.16712702  0.46366634  1  0.059047  -9e-06  -0.062829  -0.054531  -6e-06  3.921182  0.0
C  C115  1  0.24084083  0.83287714  0.53634393  1  0.058638  9e-06  -0.062978  -0.054641  6e-06  3.921721  0.0
C  C116  1  0.72893598  0.25836944  0.80524694  1  0.082953  0.005149  -0.087861  -0.187274  0.003662  3.921771  0.004
C  C117  1  0.27106184  0.74162206  0.19475574  1  0.082635  -0.005151  -0.087799  -0.18675  -0.00366  3.922462  -0.004
C  C118  1  0.41463139  0.09645279  0.57866303  1  -0.021808  -2e-06  -0.017942  -0.094276  -2e-06  4.018737  0.0
C  C119  1  0.58536117  0.90354445  0.42133526  1  -0.021394  2e-06  -0.017868  -0.094121  2e-06  4.01873  0.0
C  C120  1  0.30210795  0.57620176  0.60553948  1  -0.065881  -2.8e-05  -0.07336  -0.100201  -2.1e-05  3.93469  0.0
C  C121  1  0.69788766  0.42379831  0.39446108  1  -0.066056  2.8e-05  -0.073391  -0.100344  2.2e-05  3.934784  0.0
C  C122  1  0.54965490  0.59447318  0.69173331  1  -0.009961  5e-06  -0.06709  -0.08262  1.3e-05  3.902608  0.0
C  C123  1  0.45032748  0.40552829  0.30826517  1  -0.009748  -5e-06  -0.067196  -0.082912  -1.3e-05  3.902755  0.0
C  C124  1  0.88586833  0.23569764  0.95011766  1  0.42829  -0.000338  0.051975  0.097596  0.000439  3.930438  0.0
C  C125  1  0.11409045  0.76430848  0.04989293  1  0.428448  0.000338  0.051808  0.097606  -0.000437  3.929737  0.0
C  C126  1  0.68880217  0.17710643  0.38609619  1  -0.065769  3e-06  -0.077906  -0.07258  3e-06  3.978151  0.0
C  C127  1  0.31118859  0.82290056  0.61391366  1  -0.0662  -3e-06  -0.077975  -0.072912  -3e-06  3.978339  0.0
C  C128  1  0.18409246  0.08779710  0.48707382  1  -0.040601  3e-06  -0.086819  -0.082225  3e-06  3.991891  0.0
C  C129  1  0.81590746  0.91219800  0.51292689  1  -0.035524  -3e-06  -0.08698  -0.08238  -3e-06  3.992048  0.0
C  C130  1  0.85062021  0.15968391  0.88680666  1  -0.020022  0.005217  -0.084042  -0.185563  0.003672  3.942501  0.004
C  C131  1  0.14933044  0.84032137  0.11320849  1  -0.021045  -0.005208  -0.084008  -0.185278  -0.003665  3.943072  -0.004
C  C132  1  0.53011759  0.16015389  0.37207871  1  -0.036757  -1e-05  -0.067381  -0.093533  -7e-06  3.925814  0.0
C  C133  1  0.46988002  0.83985748  0.62792635  1  -0.036834  1e-05  -0.067216  -0.093113  7e-06  3.925621  0.0
N  N134  1  0.70915812  0.67832220  0.41184545  1  -1.204735  -0.000231  -0.243207  -0.173114  -0.00016  3.583187  0.0
N  N135  1  0.29084333  0.32167447  0.58814751  1  -1.204632  0.000231  -0.243321  -0.17296  0.00016  3.58299  0.0
N  N136  1  0.84383716  0.32020932  0.94260566  1  -1.205891  0.084095  -0.345293  -0.222804  0.058279  3.600128  0.073
N  N137  1  0.15614068  0.67977174  0.05737856  1  -1.204821  -0.084079  -0.345051  -0.222763  -0.058264  3.598527  -0.073
N  N138  1  0.85239012  0.51922240  0.13823256  1  -1.229771  0.083941  -0.342675  -0.213139  0.058227  3.612626  0.073
N  N139  1  0.14764021  0.48078835  0.86177651  1  -1.229195  -0.083943  -0.342566  -0.213185  -0.05822  3.611238  -0.073
N  N140  1  0.64921672  0.10264466  0.66937927  1  -1.189325  9.7e-05  -0.247727  -0.183324  6.2e-05  3.59111  0.0
N  N141  1  0.35076532  0.89733896  0.33062197  1  -1.188976  -9.7e-05  -0.247748  -0.183585  -6.2e-05  3.590837  0.0
O  O142  1  0.08874948  0.45076807  0.04707285  1  -1.138849  0.095411  -0.338825  -0.598854  0.063982  2.458404  0.086
O  O143  1  0.91128845  0.54925054  0.95289626  1  -1.139091  -0.095368  -0.338882  -0.599082  -0.063943  2.458918  -0.086
O  O144  1  0.63080454  0.40001369  0.02907350  1  -1.098529  0.124429  -0.334381  -0.557545  0.082913  2.316178  0.112
O  O145  1  0.36914756  0.60000980  0.97091869  1  -1.098106  -0.124454  -0.334384  -0.557651  -0.082917  2.316482  -0.112
O  O146  1  0.08851332  0.32852820  0.12187360  1  -1.178478  0.001315  -0.332739  -0.564951  0.000572  2.103374  0.001
O  O147  1  0.91152572  0.67146043  0.87814107  1  -1.178878  -0.001305  -0.332884  -0.565163  -0.000565  2.103654  -0.001
O  O148  1  0.48295062  0.66928450  0.33306155  1  -1.129359  -3.9e-05  -0.277295  -0.459952  -2.4e-05  2.165258  0.0
O  O149  1  0.51706577  0.33071311  0.66692217  1  -1.129962  3.9e-05  -0.277111  -0.459735  2.4e-05  2.165681  0.0
O  O150  1  0.93831216  0.67633803  0.48459787  1  -1.092262  0.000115  -0.273817  -0.458769  7.8e-05  2.187054  0.0
O  O151  1  0.06168290  0.32366417  0.51540232  1  -1.092353  -0.000115  -0.273856  -0.458825  -7.8e-05  2.186987  0.0
O  O152  1  0.65688882  0.31379226  0.13538822  1  -1.152654  0.001372  -0.340782  -0.561225  0.000569  2.032623  0.002
O  O153  1  0.34308396  0.68619024  0.86463347  1  -1.152613  -0.001358  -0.340997  -0.56144  -0.00056  2.032997  -0.002
O  O154  1  0.41310472  0.07365086  0.72153375  1  -1.1155  -1.6e-05  -0.284937  -0.44833  -1.5e-05  2.071589  0.0
O  O155  1  0.58686682  0.92634410  0.27846729  1  -1.115298  1.6e-05  -0.284811  -0.448237  1.5e-05  2.071739  0.0
O  O156  1  0.88709048  0.13525526  0.62077838  1  -1.102534  -3e-06  -0.275831  -0.450434  -5e-06  2.153852  0.0
O  O157  1  0.11290213  0.86474595  0.37923697  1  -1.102659  3e-06  -0.275792  -0.450539  5e-06  2.154147  0.0
