# generated using pymatgen
data_TbH6C6(NO4)2
_symmetry_space_group_name_H-M   'P 1'
_cell_length_a   6.95119496
_cell_length_b   11.57507793
_cell_length_c   14.05434439
_cell_angle_alpha   109.45659219
_cell_angle_beta   90.01725123
_cell_angle_gamma   107.44770579
_symmetry_Int_Tables_number   1
_chemical_formula_structural   TbH6C6(NO4)2
_chemical_formula_sum   'Tb4 H24 C24 N8 O32'
_cell_volume   1010.86059878
_cell_formula_units_Z   4
loop_
 _symmetry_equiv_pos_site_id
 _symmetry_equiv_pos_as_xyz
  1  'x, y, z'
loop_
 _atom_site_type_symbol
 _atom_site_label
 _atom_site_symmetry_multiplicity
 _atom_site_fract_x
 _atom_site_fract_y
 _atom_site_fract_z
 _atom_site_occupancy
 _atom_site_hle17_bader_spin_density
 _atom_site_hle17_ddec_charge
 _atom_site_hle17_ddec_spin_density
 _atom_site_hle17_ddec_sum_bond_order
 _atom_site_hle17_magmom
 _atom_site_hse06_10hf_bader_spin_density
 _atom_site_hse06_10hf_ddec_charge
 _atom_site_hse06_10hf_ddec_spin_density
 _atom_site_hse06_10hf_ddec_sum_bond_order
 _atom_site_hse06_10hf_magmom
 _atom_site_hse06_bader_spin_density
 _atom_site_hse06_ddec_charge
 _atom_site_hse06_ddec_spin_density
 _atom_site_hse06_ddec_sum_bond_order
 _atom_site_hse06_magmom
 _atom_site_pbe_bader_spin_density
 _atom_site_pbe_cm5_charge
 _atom_site_pbe_ddec_charge
 _atom_site_pbe_ddec_spin_density
 _atom_site_pbe_ddec_sum_bond_order
 _atom_site_pbe_magmom
Tb  Tb0  1  0.49565453  0.23294033  0.19404608  1  0  2.251607  0  1.676907  0  0  2.096175  0  2.157662  0  0  2.21715  0  1.973229  0  0  1.528678  2.062763  0  2.188035  0
Tb  Tb1  1  0.26230401  0.76687300  0.30596359  1  0  2.251234  0  1.676507  0  0  2.09611  0  2.15717  0  0  2.216735  0  1.972877  0  0  1.52763  2.0625  0  2.187746  0
Tb  Tb2  1  0.50434771  0.76705884  0.80595374  1  0  2.251689  0  1.676893  0  0  2.096204  0  2.157743  0  0  2.217241  0  1.973201  0  0  1.528668  2.062793  0  2.188109  0
Tb  Tb3  1  0.73769104  0.23312617  0.69403766  1  0  2.251228  0  1.676461  0  0  2.096157  0  2.157034  0  0  2.21673  0  1.972824  0  0  1.527619  2.062514  0  2.187644  0
H  H4  1  0.77646644  0.56925678  0.59891795  1  0  0.324902  0  0.879287  0  0  0.300099  0  0.94877  0  0  0.310039  0  0.939656  0  0  0.324408  0.293227  0  0.954757  0
H  H5  1  0.20707554  0.43074358  0.90101490  1  0  0.325197  0  0.880176  0  0  0.300222  0  0.949538  0  0  0.310153  0  0.94047  0  0  0.324652  0.293366  0  0.955497  0
H  H6  1  0.22352813  0.43074143  0.40107948  1  0  0.324819  0  0.879338  0  0  0.300032  0  0.948808  0  0  0.309971  0  0.939693  0  0  0.324356  0.293163  0  0.954796  0
H  H7  1  0.79291471  0.56925174  0.09898743  1  0  0.3253  0  0.880145  0  0  0.300261  0  0.949522  0  0  0.310214  0  0.94045  0  0  0.324653  0.293406  0  0.955485  0
H  H8  1  0.57934707  0.33703785  0.49104380  1  0  0.111051  0  0.935309  0  0  0.115087  0  1.004809  0  0  0.119232  0  0.999836  0  0  0.144282  0.112092  0  1.008253  0
H  H9  1  0.24145895  0.66285469  0.00895527  1  0  0.110832  0  0.934534  0  0  0.114575  0  1.004653  0  0  0.118581  0  0.99979  0  0  0.14379  0.111735  0  1.007999  0
H  H10  1  0.42064991  0.66296229  0.50895416  1  0  0.111044  0  0.935291  0  0  0.115066  0  1.004816  0  0  0.119212  0  0.999843  0  0  0.144272  0.112075  0  1.008262  0
H  H11  1  0.75853464  0.33713870  0.99104796  1  0  0.110772  0  0.934464  0  0  0.114513  0  1.004602  0  0  0.118516  0  0.999744  0  0  0.143758  0.111673  0  1.007945  0
H  H12  1  0.81348170  0.11082974  0.18479603  1  0  0.453303  0  0.796262  0  0  0.436146  0  0.844369  0  0  0.444839  0  0.831881  0  0  0.339571  0.430213  0  0.853087  0
H  H13  1  0.70225552  0.88905180  0.31534755  1  0  0.453152  0  0.79659  0  0  0.436037  0  0.844567  0  0  0.444699  0  0.83212  0  0  0.339217  0.430088  0  0.853312  0
H  H14  1  0.18652248  0.88917330  0.81520556  1  0  0.453314  0  0.796211  0  0  0.436154  0  0.844349  0  0  0.444847  0  0.831861  0  0  0.339596  0.43022  0  0.853067  0
H  H15  1  0.29774435  0.11095415  0.68465555  1  0  0.453184  0  0.79657  0  0  0.436072  0  0.844526  0  0  0.444735  0  0.832074  0  0  0.339254  0.430122  0  0.853275  0
H  H16  1  0.83768373  0.17969687  0.30450009  1  0  0.461972  0  0.829724  0  0  0.428297  0  0.895505  0  0  0.43967  0  0.878951  0  0  0.30485  0.420657  0  0.906607  0
H  H17  1  0.65760979  0.82002973  0.19565934  1  0  0.461894  0  0.829822  0  0  0.428154  0  0.895637  0  0  0.439503  0  0.879127  0  0  0.304066  0.420469  0  0.906805  0
H  H18  1  0.16232378  0.82030134  0.69550090  1  0  0.461974  0  0.829725  0  0  0.428304  0  0.89549  0  0  0.439677  0  0.87894  0  0  0.304879  0.420664  0  0.906592  0
H  H19  1  0.34239104  0.17997525  0.80434350  1  0  0.461947  0  0.829765  0  0  0.428187  0  0.895606  0  0  0.439553  0  0.879073  0  0  0.304077  0.4205  0  0.906775  0
H  H20  1  0.32533341  0.09264624  0.33718801  1  0  0.45406  0  0.841133  0  0  0.423446  0  0.90229  0  0  0.435602  0  0.884772  0  0  0.303761  0.415092  0  0.914418  0
H  H21  1  0.23252098  0.90728148  0.16273689  1  0  0.453935  0  0.841081  0  0  0.423085  0  0.902545  0  0  0.435243  0  0.885025  0  0  0.304087  0.414724  0  0.914712  0
H  H22  1  0.67465826  0.90734616  0.66280640  1  0  0.45397  0  0.84121  0  0  0.423399  0  0.902297  0  0  0.435554  0  0.884781  0  0  0.30377  0.415049  0  0.91442  0
H  H23  1  0.76748363  0.09271093  0.83726037  1  0  0.454078  0  0.840908  0  0  0.423242  0  0.902359  0  0  0.435401  0  0.884836  0  0  0.304079  0.414879  0  0.91453  0
H  H24  1  0.19561593  0.18642163  0.34070194  1  0  0.445115  0  0.85639  0  0  0.412556  0  0.921846  0  0  0.423976  0  0.905238  0  0  0.298665  0.404659  0  0.933423  0
H  H25  1  0.00898753  0.81365402  0.15927960  1  0  0.444944  0  0.856289  0  0  0.412112  0  0.922194  0  0  0.423499  0  0.905644  0  0  0.298752  0.404238  0  0.933721  0
H  H26  1  0.80438824  0.81357851  0.65929672  1  0  0.445089  0  0.856447  0  0  0.412571  0  0.921841  0  0  0.423991  0  0.905233  0  0  0.298672  0.404674  0  0.933419  0
H  H27  1  0.99100946  0.18634902  0.84071772  1  0  0.44493  0  0.856322  0  0  0.412098  0  0.922231  0  0  0.423485  0  0.905679  0  0  0.298727  0.404222  0  0.933759  0
C  C28  1  0.81421667  0.52592702  0.25889841  1  0  0.695218  0  3.881354  0  0  0.647127  0  4.17773  0  0  0.683156  0  4.169536  0  0  0.232571  0.622901  0  4.18601  0
C  C29  1  0.28830212  0.47385914  0.24097174  1  0  0.695185  0  3.879823  0  0  0.647881  0  4.175187  0  0  0.68389  0  4.167006  0  0  0.232981  0.623597  0  4.183465  0
C  C30  1  0.18578657  0.47407989  0.74110709  1  0  0.695409  0  3.881595  0  0  0.647271  0  4.177996  0  0  0.683299  0  4.169798  0  0  0.232625  0.623048  0  4.186278  0
C  C31  1  0.71170012  0.52613714  0.75902871  1  0  0.695374  0  3.879596  0  0  0.647967  0  4.175143  0  0  0.683977  0  4.166961  0  0  0.233058  0.623684  0  4.183424  0
C  C32  1  0.41172207  0.95410910  0.01702027  1  0  0.577996  0  3.898152  0  0  0.529344  0  4.201596  0  0  0.560447  0  4.196517  0  0  0.224993  0.508144  0  4.209005  0
C  C33  1  0.45786153  0.04594832  0.48289309  1  0  0.57775  0  3.896397  0  0  0.528955  0  4.200205  0  0  0.560089  0  4.19485  0  0  0.22485  0.507774  0  4.207342  0
C  C34  1  0.58830229  0.04590554  0.98298592  1  0  0.578214  0  3.898135  0  0  0.529439  0  4.201692  0  0  0.560532  0  4.196608  0  0  0.224975  0.508227  0  4.209125  0
C  C35  1  0.54211821  0.95405763  0.51711499  1  0  0.577652  0  3.896768  0  0  0.529022  0  4.200389  0  0  0.560158  0  4.195034  0  0  0.224982  0.507844  0  4.207523  0
C  C36  1  0.66163538  0.41124083  0.46138477  1  0  0.27466  0  3.614595  0  0  0.209849  0  3.903176  0  0  0.223829  0  3.914827  0  0  0.165599  0.201024  0  3.896234  0
C  C37  1  0.24968945  0.58861829  0.03857922  1  0  0.276647  0  3.614141  0  0  0.211576  0  3.902854  0  0  0.225695  0  3.914497  0  0  0.166797  0.202661  0  3.895886  0
C  C38  1  0.33836926  0.58875738  0.53861835  1  0  0.274678  0  3.614576  0  0  0.209851  0  3.903184  0  0  0.223831  0  3.914837  0  0  0.165653  0.201021  0  3.896248  0
C  C39  1  0.75030849  0.41138090  0.96142630  1  0  0.276775  0  3.614225  0  0  0.21161  0  3.902883  0  0  0.225763  0  3.91454  0  0  0.166824  0.202698  0  3.895907  0
C  C40  1  0.79187097  0.51506850  0.36077293  1  0  0.008643  0  3.732918  0  0  0.002952  0  3.99066  0  0  0.000625  0  4.01278  0  0  0.089227  0.004219  0  3.97822  0
C  C41  1  0.27658162  0.48476636  0.13913716  1  0  0.007846  0  3.731891  0  0  0.001331  0  3.990488  0  0  -0.001031  0  4.012618  0  0  0.08836  0.002617  0  3.978038  0
C  C42  1  0.20813751  0.48493164  0.63922431  1  0  0.008462  0  3.732997  0  0  0.002858  0  3.990667  0  0  0.000532  0  4.012793  0  0  0.089249  0.004103  0  3.978247  0
C  C43  1  0.72342158  0.51522895  0.86086446  1  0  0.007909  0  3.731796  0  0  0.001393  0  3.990544  0  0  -0.000962  0  4.012661  0  0  0.088415  0.002677  0  3.978096  0
C  C44  1  0.99081605  0.73707566  0.50558170  1  0  0.700986  0  3.912472  0  0  0.647277  0  4.21659  0  0  0.683196  0  4.204941  0  0  0.23298  0.623317  0  4.22465  0
C  C45  1  0.25433483  0.26289434  0.99430130  1  0  0.702495  0  3.909967  0  0  0.649084  0  4.213759  0  0  0.68501  0  4.20209  0  0  0.233928  0.625133  0  4.221745  0
C  C46  1  0.00918333  0.26292642  0.49442177  1  0  0.70094  0  3.912544  0  0  0.647223  0  4.216689  0  0  0.683137  0  4.205052  0  0  0.232936  0.623255  0  4.224756  0
C  C47  1  0.74566454  0.73710483  0.00569924  1  0  0.702423  0  3.909887  0  0  0.649102  0  4.213597  0  0  0.685024  0  4.201931  0  0  0.23401  0.625144  0  4.221597  0
C  C48  1  0.85507552  0.60211448  0.46002137  1  0  0.007569  0  3.654164  0  0  -0.007388  0  3.915284  0  0  -0.008096  0  3.931879  0  0  0.095647  -0.006791  0  3.903477  0
C  C49  1  0.25309614  0.39780244  0.03988997  1  0  0.009526  0  3.652524  0  0  -0.005752  0  3.913881  0  0  -0.006448  0  3.930471  0  0  0.096327  -0.005162  0  3.902067  0
C  C50  1  0.14491569  0.39788276  0.53997651  1  0  0.007657  0  3.65418  0  0  -0.007359  0  3.915331  0  0  -0.008074  0  3.931936  0  0  0.095661  -0.006752  0  3.903523  0
C  C51  1  0.74690131  0.60219577  0.96010888  1  0  0.009716  0  3.652155  0  0  -0.005773  0  3.913596  0  0  -0.006438  0  3.9302  0  0  0.096326  -0.00518  0  3.901792  0
N  N52  1  0.67218814  0.39757253  0.36384892  1  0  -0.490745  0  3.21548  0  0  -0.441433  0  3.496761  0  0  -0.466575  0  3.515449  0  0  -0.40915  -0.430584  0  3.484813  0
N  N53  1  0.27396240  0.60222912  0.13608417  1  0  -0.491382  0  3.215271  0  0  -0.441836  0  3.496743  0  0  -0.466898  0  3.515315  0  0  -0.409238  -0.430967  0  3.484903  0
N  N54  1  0.32782273  0.60242664  0.63614949  1  0  -0.490636  0  3.2157  0  0  -0.441319  0  3.496933  0  0  -0.466466  0  3.515622  0  0  -0.409196  -0.430465  0  3.484991  0
N  N55  1  0.72603840  0.39776716  0.86391628  1  0  -0.491508  0  3.215219  0  0  -0.441964  0  3.496734  0  0  -0.467018  0  3.515291  0  0  -0.409307  -0.43109  0  3.484889  0
N  N56  1  0.76915881  0.53312669  0.52090789  1  0  -0.285592  0  3.429349  0  0  -0.224254  0  3.671557  0  0  -0.239848  0  3.684619  0  0  -0.360983  -0.213404  0  3.661356  0
N  N57  1  0.23581919  0.46680051  0.97903501  1  0  -0.288332  0  3.430964  0  0  -0.226161  0  3.672776  0  0  -0.241752  0  3.685797  0  0  -0.362111  -0.215291  0  3.66256  0
N  N58  1  0.23083863  0.46686862  0.47909088  1  0  -0.285601  0  3.429192  0  0  -0.224241  0  3.671392  0  0  -0.239832  0  3.684454  0  0  -0.360971  -0.213391  0  3.661194  0
N  N59  1  0.76417538  0.53319481  0.02097016  1  0  -0.28864  0  3.431056  0  0  -0.226132  0  3.672596  0  0  -0.241824  0  3.685693  0  0  -0.362123  -0.215265  0  3.662386  0
O  O60  1  0.36757703  0.00202016  0.10657825  1  0  -0.670989  0  2.104589  0  0  -0.611224  0  2.340201  0  0  -0.645212  0  2.32621  0  0  -0.355177  -0.593711  0  2.347723  0
O  O61  1  0.36560751  0.99798066  0.39335776  1  0  -0.671193  0  2.103165  0  0  -0.611611  0  2.338955  0  0  -0.645519  0  2.32484  0  0  -0.354587  -0.593843  0  2.346335  0
O  O62  1  0.63244972  0.99799349  0.89341415  1  0  -0.671309  0  2.104223  0  0  -0.6115  0  2.339886  0  0  -0.645499  0  2.325886  0  0  -0.355163  -0.593981  0  2.347421  0
O  O63  1  0.63437316  0.00201851  0.60663993  1  0  -0.671004  0  2.103824  0  0  -0.611493  0  2.339539  0  0  -0.64539  0  2.325427  0  0  -0.354486  -0.593721  0  2.346915  0
O  O64  1  0.71480803  0.42494146  0.18444273  1  0  -0.719221  0  2.01115  0  0  -0.671518  0  2.26821  0  0  -0.707077  0  2.255193  0  0  -0.394066  -0.654018  0  2.274269  0
O  O65  1  0.28993168  0.57484715  0.31547411  1  0  -0.719699  0  2.008983  0  0  -0.673009  0  2.266919  0  0  -0.708384  0  2.253722  0  0  -0.394889  -0.655459  0  2.273114  0
O  O66  1  0.28519278  0.57505772  0.81556137  1  0  -0.719269  0  2.011214  0  0  -0.671566  0  2.268331  0  0  -0.707136  0  2.255311  0  0  -0.394105  -0.654065  0  2.274387  0
O  O67  1  0.71006868  0.42515975  0.68452569  1  0  -0.719731  0  2.009089  0  0  -0.673005  0  2.267076  0  0  -0.708373  0  2.25388  0  0  -0.394862  -0.655433  0  2.273221  0
O  O68  1  0.92076164  0.62892489  0.24610672  1  0  -0.713882  0  2.034811  0  0  -0.662077  0  2.282329  0  0  -0.695697  0  2.267143  0  0  -0.379127  -0.645344  0  2.290067  0
O  O69  1  0.29188658  0.37079544  0.25368894  1  0  -0.713621  0  2.033944  0  0  -0.661815  0  2.281025  0  0  -0.69557  0  2.266007  0  0  -0.379263  -0.645117  0  2.288898  0
O  O70  1  0.07924064  0.37108588  0.75389201  1  0  -0.713947  0  2.035059  0  0  -0.662153  0  2.282601  0  0  -0.695762  0  2.267413  0  0  -0.379142  -0.645429  0  2.290362  0
O  O71  1  0.70812479  0.62920760  0.74631337  1  0  -0.71377  0  2.033727  0  0  -0.661924  0  2.280885  0  0  -0.695682  0  2.265848  0  0  -0.379326  -0.645227  0  2.288758  0
O  O72  1  0.99861282  0.79052242  0.60153380  1  0  -0.642844  0  1.992297  0  0  -0.580627  0  2.209359  0  0  -0.602547  0  2.191818  0  0  -0.312222  -0.564763  0  2.219847  0
O  O73  1  0.20877410  0.20956718  0.89833212  1  0  -0.644187  0  1.99146  0  0  -0.581649  0  2.208159  0  0  -0.603568  0  2.190602  0  0  -0.312641  -0.565726  0  2.218584  0
O  O74  1  0.00139230  0.20947676  0.39846602  1  0  -0.642841  0  1.992159  0  0  -0.5806  0  2.209231  0  0  -0.602521  0  2.191694  0  0  -0.31219  -0.564734  0  2.219724  0
O  O75  1  0.79121759  0.79043102  0.10166032  1  0  -0.644145  0  1.991756  0  0  -0.581622  0  2.208409  0  0  -0.603517  0  2.19084  0  0  -0.312671  -0.5657  0  2.218844  0
O  O76  1  0.32723193  0.84166130  0.95489243  1  0  -0.634498  0  2.019857  0  0  -0.589237  0  2.260362  0  0  -0.619929  0  2.248202  0  0  -0.348576  -0.573519  0  2.266746  0
O  O77  1  0.48638038  0.15854525  0.54486849  1  0  -0.633869  0  2.019316  0  0  -0.58858  0  2.26  0  0  -0.61924  0  2.247812  0  0  -0.348324  -0.572686  0  2.266205  0
O  O78  1  0.67276453  0.15832918  0.04510288  1  0  -0.634341  0  2.0204  0  0  -0.589075  0  2.260972  0  0  -0.619747  0  2.248811  0  0  -0.348517  -0.573359  0  2.267365  0
O  O79  1  0.51359692  0.84145006  0.45513526  1  0  -0.633989  0  2.019182  0  0  -0.588731  0  2.259781  0  0  -0.619402  0  2.247591  0  0  -0.348488  -0.572838  0  2.265988  0
O  O80  1  0.09397226  0.79120091  0.44915126  1  0  -0.730721  0  2.067573  0  0  -0.680708  0  2.323402  0  0  -0.716679  0  2.30635  0  0  -0.404124  -0.663562  0  2.331587  0
O  O81  1  0.30347467  0.20868554  0.05065710  1  0  -0.731015  0  2.067024  0  0  -0.681228  0  2.322914  0  0  -0.717221  0  2.305879  0  0  -0.404171  -0.663877  0  2.330844  0
O  O82  1  0.90601608  0.20879923  0.55084527  1  0  -0.730688  0  2.067591  0  0  -0.68067  0  2.32342  0  0  -0.71663  0  2.306376  0  0  -0.404107  -0.663518  0  2.331606  0
O  O83  1  0.69653622  0.79131942  0.94933720  1  0  -0.731053  0  2.066749  0  0  -0.681284  0  2.322599  0  0  -0.717292  0  2.305568  0  0  -0.404272  -0.663926  0  2.330529  0
O  O84  1  0.75370109  0.16012525  0.23979669  1  0  -0.927294  0  1.839451  0  0  -0.880754  0  2.034599  0  0  -0.909706  0  1.996213  0  0  -0.643766  -0.867782  0  2.055551  0
O  O85  1  0.59325293  0.83931722  0.26037346  1  0  -0.927055  0  1.840213  0  0  -0.880686  0  2.035483  0  0  -0.909565  0  1.997137  0  0  -0.6427  -0.867662  0  2.056537  0
O  O86  1  0.24630211  0.83987296  0.76020500  1  0  -0.927265  0  1.839393  0  0  -0.880715  0  2.034586  0  0  -0.909681  0  1.996181  0  0  -0.643806  -0.867744  0  2.05554  0
O  O87  1  0.40674550  0.16068872  0.73962822  1  0  -0.927146  0  1.840186  0  0  -0.880784  0  2.035504  0  0  -0.909661  0  1.997116  0  0  -0.642766  -0.867757  0  2.056565  0
O  O88  1  0.30478181  0.15475734  0.30561576  1  0  -0.951378  0  1.838944  0  0  -0.898722  0  2.044242  0  0  -0.929984  0  2.002635  0  0  -0.677815  -0.884716  0  2.068363  0
O  O89  1  0.14987025  0.84517340  0.19428657  1  0  -0.950255  0  1.838256  0  0  -0.897269  0  2.043937  0  0  -0.928377  0  2.002292  0  0  -0.677764  -0.883277  0  2.068033  0
O  O90  1  0.69521994  0.84523797  0.69438301  1  0  -0.951258  0  1.839053  0  0  -0.898652  0  2.044269  0  0  -0.929924  0  2.002667  0  0  -0.677806  -0.884649  0  2.068387  0
O  O91  1  0.85013437  0.15481901  0.80570642  1  0  -0.950352  0  1.838094  0  0  -0.897375  0  2.043728  0  0  -0.928483  0  2.002099  0  0  -0.677765  -0.883379  0  2.067829  0
