# generated using pymatgen
data_Al2H16C22N4O11
_symmetry_space_group_name_H-M   'P 1'
_cell_length_a   6.71838018
_cell_length_b   11.15139034
_cell_length_c   16.75892028
_cell_angle_alpha   76.97430118
_cell_angle_beta   85.04558720
_cell_angle_gamma   72.44344050
_symmetry_Int_Tables_number   1
_chemical_formula_structural   Al2H16C22N4O11
_chemical_formula_sum   'Al2 H16 C22 N4 O11'
_cell_volume   1166.05126994
_cell_formula_units_Z   1
loop_
 _symmetry_equiv_pos_site_id
 _symmetry_equiv_pos_as_xyz
  1  'x, y, z'
loop_
 _atom_site_type_symbol
 _atom_site_label
 _atom_site_symmetry_multiplicity
 _atom_site_fract_x
 _atom_site_fract_y
 _atom_site_fract_z
 _atom_site_occupancy
 _atom_site_pbe_bader_charge
 _atom_site_pbe_bader_spin_density
 _atom_site_pbe_cm5_charge
 _atom_site_pbe_ddec_charge
 _atom_site_pbe_ddec_spin_density
 _atom_site_pbe_ddec_sum_bond_order
 _atom_site_pbe_magmom
Al  Al0  1  0.49901340  0.50046295  0.49976376  1  2.503535  0  0.40119  1.64155  0  2.580887  0
Al  Al1  1  0.99610972  0.50592671  0.49956676  1  2.506007  0  0.400421  1.6528  0  2.574853  0
H  H2  1  0.19216154  0.65247932  0.43122703  1  0.620167  0  0.356512  0.434293  0  0.846615  0
H  H3  1  0.79949051  0.36713915  0.58476916  1  0.630378  0  0.354849  0.430295  0  0.850168  0
H  H4  1  0.86046915  0.56705336  0.72134498  1  0.066895  0  0.107016  0.107005  0  1.012783  0
H  H5  1  0.78241124  0.57304881  0.87045892  1  0.10291  0  0.100706  0.106534  0  1.034793  0
H  H6  1  0.44207499  0.45930822  0.91243894  1  0.056636  0  0.108918  0.122338  0  1.003857  0
H  H7  1  0.60254561  0.45286232  0.09995398  1  0.077951  0  0.10899  0.122321  0  1.004493  0
H  H8  1  0.15351955  0.56844107  0.11086990  1  0.115971  0  0.099567  0.104789  0  1.039622  0
H  H9  1  0.07673106  0.56851507  0.26046104  1  0.09168  0  0.106068  0.107279  0  1.014126  0
H  H10  1  0.87332062  0.88493452  0.50270384  1  0.105728  0  0.104464  0.110532  0  1.018508  0
H  H11  1  0.23401860  0.88553064  0.49221349  1  0.083896  0  0.112072  0.130869  0  1.002758  0
H  H12  1  0.75203495  0.11766242  0.50558594  1  0.14675  0  0.105283  0.114093  0  1.052763  0
H  H13  1  0.59261925  0.46223463  0.69833173  1  0.499438  0  0.305926  0.310777  0  0.987146  0
H  H14  1  0.68006401  0.43518278  0.79814266  1  0.465754  0  0.304953  0.302319  0  0.966106  0
H  H15  1  0.45134688  0.45174531  0.31441464  1  0.500088  0  0.311083  0.32139  0  0.968843  0
H  H16  1  0.39090775  0.42419909  0.22140369  1  0.45632  0  0.308831  0.305846  0  0.955826  0
H  H17  1  0.05562226  0.21937968  0.49305262  1  0.631227  0  0.31583  0.354821  0  0.967512  0
C  C18  1  0.63422071  0.73176156  0.49513944  1  1.54004  0  0.273057  0.652639  0  4.069787  0
C  C19  1  0.77389620  0.51003003  0.35333900  1  1.518593  0  0.25895  0.64947  0  4.090653  0
C  C20  1  0.36039827  0.27159309  0.50331134  1  1.518416  0  0.266224  0.656177  0  4.069662  0
C  C21  1  0.22044944  0.49694254  0.64626032  1  1.510668  0  0.260441  0.654174  0  4.083828  0
C  C22  1  0.19187293  0.50520957  0.73321725  1  0.039249  0  -0.034006  -0.181677  0  3.928164  0
C  C23  1  0.98577157  0.54038347  0.76489420  1  -0.012737  0  -0.087083  -0.06431  0  4.040964  0
C  C24  1  0.94149629  0.54353461  0.84646831  1  -0.126592  0  -0.11274  -0.211398  0  4.021015  0
C  C25  1  0.11086086  0.51019600  0.89971979  1  0.46309  0  0.088705  0.202679  0  4.075979  0
C  C26  1  0.31575331  0.48102794  0.86982209  1  -0.049869  0  -0.090262  -0.262072  0  3.875347  0
C  C27  1  0.36242211  0.47775497  0.78623804  1  0.453773  0  0.116202  0.325486  0  4.061191  0
C  C28  1  0.70680317  0.47645858  0.13647965  1  -0.046785  0  -0.091944  -0.263092  0  3.876116  0
C  C29  1  0.88313267  0.50664937  0.09851728  1  0.348228  0  0.088281  0.199114  0  4.079102  0
C  C30  1  0.02082545  0.54057240  0.14256904  1  -0.077702  0  -0.11489  -0.212598  0  4.02677  0
C  C31  1  0.97682656  0.54100832  0.22441633  1  -0.005545  0  -0.087936  -0.063762  0  4.041373  0
C  C32  1  0.80198682  0.50818078  0.26549652  1  -0.021569  0  -0.033958  -0.18483  0  3.928659  0
C  C33  1  0.66159422  0.47517751  0.22076033  1  0.496389  0  0.119631  0.329328  0  4.060628  0
C  C34  1  0.42614321  0.13381466  0.50089758  1  -0.033064  0  -0.032765  -0.196003  0  3.983687  0
C  C35  1  0.56076008  0.87146208  0.49701854  1  0.013923  0  -0.009873  -0.016027  0  4.000797  0
C  C36  1  0.27828822  0.06768674  0.49621616  1  0.518165  0  0.096943  0.316612  0  4.054144  0
C  C37  1  0.70776017  0.93688387  0.50098157  1  0.001623  0  -0.096202  -0.127486  0  3.996984  0
C  C38  1  0.34780134  0.93629164  0.49490411  1  0.013952  0  -0.092501  -0.213362  0  3.919849  0
C  C39  1  0.63971302  0.06624880  0.50295141  1  -0.067579  0  -0.079181  -0.056475  0  3.994206  0
N  N40  1  0.08764377  0.50726314  0.98471869  1  -0.469683  0  -0.147123  -0.13012  0  3.266317  0
N  N41  1  0.90866005  0.50414091  0.01414597  1  -0.491394  0  -0.147114  -0.132208  0  3.262594  0
N  N42  1  0.56494757  0.44538715  0.75979148  1  -1.288981  0  -0.587645  -0.605085  0  3.349395  0
N  N43  1  0.49134574  0.44138433  0.25597088  1  -1.287606  0  -0.582761  -0.600705  0  3.346257  0
O  O44  1  0.49718240  0.67592280  0.48985743  1  -1.26567  0  -0.237133  -0.604643  0  2.346181  0
O  O45  1  0.92426745  0.52252060  0.38947597  1  -1.270912  0  -0.245734  -0.610892  0  2.365052  0
O  O46  1  0.16199220  0.33023842  0.49981878  1  -1.260918  0  -0.236359  -0.605149  0  2.382409  0
O  O47  1  0.39955381  0.49517992  0.61145536  1  -1.267359  0  -0.242203  -0.610325  0  2.361967  0
O  O48  1  0.49804648  0.32595044  0.50880832  1  -1.262066  0  -0.230495  -0.578486  0  2.347023  0
O  O49  1  0.06499020  0.48982545  0.61044713  1  -1.268398  0  -0.246039  -0.614222  0  2.357142  0
O  O50  1  0.83077915  0.67805054  0.49878736  1  -1.257722  0  -0.234662  -0.598877  0  2.351345  0
O  O51  1  0.60071357  0.49994584  0.38926121  1  -1.268504  0  -0.239388  -0.603028  0  2.361479  0
O  O52  1  0.22712907  0.56349644  0.46034641  1  -1.423253  0  -0.44897  -0.991556  0  2.182891  0
O  O53  1  0.77140071  0.44021742  0.53903994  1  -1.435998  0  -0.449308  -0.991933  0  2.190152  0
O  O54  1  0.07105414  0.12714663  0.49278964  1  -1.137534  0  -0.342834  -0.435209  0  2.311805  0
