# generated using pymatgen
data_ZnH21C26N2O9
_symmetry_space_group_name_H-M   'P 1'
_cell_length_a   9.55467081
_cell_length_b   10.91487238
_cell_length_c   23.62526018
_cell_angle_alpha   90.04629870
_cell_angle_beta   88.46716720
_cell_angle_gamma   90.74207682
_symmetry_Int_Tables_number   1
_chemical_formula_structural   ZnH21C26N2O9
_chemical_formula_sum   'Zn2 H42 C52 N4 O18'
_cell_volume   2462.74293976
_cell_formula_units_Z   2
loop_
 _symmetry_equiv_pos_site_id
 _symmetry_equiv_pos_as_xyz
  1  'x, y, z'
loop_
 _atom_site_type_symbol
 _atom_site_label
 _atom_site_symmetry_multiplicity
 _atom_site_fract_x
 _atom_site_fract_y
 _atom_site_fract_z
 _atom_site_occupancy
 _atom_site_pbe_bader_charge
 _atom_site_pbe_bader_spin_density
 _atom_site_pbe_cm5_charge
 _atom_site_pbe_ddec_charge
 _atom_site_pbe_ddec_spin_density
 _atom_site_pbe_ddec_sum_bond_order
 _atom_site_pbe_magmom
Zn  Zn0  1  0.34997583  0.50319517  0.49845113  1  1.272936  0  0.679379  0.819824  0  2.344059  0
Zn  Zn1  1  0.64893992  0.50307321  0.49990841  1  1.261954  0  0.677831  0.814974  0  2.357388  0
H  H2  1  0.73258470  0.72420298  0.04562889  1  0.104412  0  0.118646  0.124425  0  0.97796  0
H  H3  1  0.67844990  0.89691711  0.55536619  1  0.065974  0  0.099233  0.106497  0  0.97861  0
H  H4  1  0.52266442  0.11180161  0.59104396  1  0.030312  0  0.093955  0.09203  0  0.990307  0
H  H5  1  0.68094980  0.11184401  0.55181490  1  0.048223  0  0.098061  0.101316  0  0.987988  0
H  H6  1  0.86292281  0.60795530  0.57628987  1  0.030199  0  0.111563  0.099425  0  0.963578  0
H  H7  1  0.10745003  0.57011445  0.58306989  1  0.055716  0  0.108018  0.093277  0  0.977449  0
H  H8  1  0.70886224  0.72907307  0.93902849  1  0.113506  0  0.117742  0.122712  0  0.977897  0
H  H9  1  0.88995862  0.69512934  0.51349078  1  0.079717  0  0.114385  0.106011  0  0.972033  0
H  H10  1  0.12921253  0.68958243  0.53212823  1  0.136552  0  0.109952  0.103354  0  1.011621  0
H  H11  1  0.88584571  0.38729325  0.56952666  1  0.020695  0  0.111629  0.098293  0  0.960972  0
H  H12  1  0.12958530  0.35920673  0.55535337  1  0.096329  0  0.111275  0.100142  0  0.979192  0
H  H13  1  0.30753044  0.57395750  0.31907180  1  0.096219  0  0.107525  0.108163  0  0.990739  0
H  H14  1  0.89338057  0.43440063  0.41871033  1  0.08951  0  0.11708  0.1074  0  0.962  0
H  H15  1  0.13670152  0.48229142  0.41093118  1  0.080504  0  0.113951  0.107984  0  0.97873  0
H  H16  1  0.86930399  0.59486054  0.42113108  1  0.074389  0  0.115565  0.107831  0  0.963016  0
H  H17  1  0.10975473  0.63587026  0.43376973  1  0.098558  0  0.112958  0.105597  0  0.987735  0
H  H18  1  0.86796733  0.31266522  0.50338844  1  0.10242  0  0.112326  0.099969  0  1.002744  0
H  H19  1  0.11058376  0.32128115  0.48330022  1  0.09938  0  0.115472  0.10737  0  0.966418  0
H  H20  1  0.28625337  0.24282343  0.06027681  1  0.133276  0  0.125873  0.148402  0  0.968201  0
H  H21  1  0.67833717  0.40688884  0.67840448  1  0.101527  0  0.106656  0.103527  0  1.01683  0
H  H22  1  0.28014929  0.58379136  0.67879600  1  0.086587  0  0.110304  0.110542  0  0.992145  0
H  H23  1  0.27291368  0.58179021  0.78504184  1  0.089734  0  0.117311  0.127368  0  0.965765  0
H  H24  1  0.71580451  0.41252970  0.32280181  1  0.085129  0  0.109982  0.116138  0  0.992428  0
H  H25  1  0.31989003  0.57261686  0.21319503  1  0.097518  0  0.11283  0.121096  0  0.973867  0
H  H26  1  0.29670673  0.87479469  0.41305691  1  0.067723  0  0.107141  0.045896  0  0.971452  0
H  H27  1  0.59017853  0.77147026  0.39234739  1  0.075884  0  0.105613  0.048474  0  0.971327  0
H  H28  1  0.29811140  0.12839340  0.58707881  1  0.051963  0  0.099082  0.026955  0  0.966048  0
H  H29  1  0.79559764  0.11821037  0.46976969  1  0.03555  0  0.097442  0.023768  0  0.97821  0
H  H30  1  0.05497478  0.20812168  0.90901346  1  0.081487  0  0.114612  0.091085  0  0.942092  0
H  H31  1  0.11579951  0.36235094  0.90947300  1  0.072734  0  0.099049  0.065551  0  1.000543  0
H  H32  1  0.98314508  0.22541290  0.01177987  1  0.009581  0  0.09332  0.08848  0  0.969296  0
H  H33  1  0.04563933  0.37841963  0.01304687  1  0.026882  0  0.087395  0.079254  0  0.983477  0
H  H34  1  0.86571984  0.43804543  0.94136002  1  0.035707  0  0.082474  0.111149  0  1.009751  0
H  H35  1  0.72465924  0.40487130  0.21687351  1  0.064159  0  0.114811  0.123104  0  0.971577  0
H  H36  1  0.78595442  0.37325342  0.00327795  1  0.023547  0  0.080434  0.10771  0  1.022758  0
H  H37  1  0.80199027  0.28569922  0.94001787  1  0.028798  0  0.086941  0.121411  0  1.005644  0
H  H38  1  0.78265894  0.34362015  0.75669604  1  0.03897  0  0.098021  0.025005  0  0.959705  0
H  H39  1  0.30391036  0.89711770  0.54280268  1  0.06222  0  0.108862  0.093561  0  0.960754  0
H  H40  1  0.70044491  0.91150160  0.45772077  1  0.078521  0  0.114589  0.101547  0  0.952077  0
H  H41  1  0.30114235  0.09829710  0.45779812  1  0.086046  0  0.115064  0.105957  0  0.947179  0
H  H42  1  0.51364577  0.09862394  0.40786014  1  0.130448  0  0.111612  0.105416  0  0.970298  0
H  H43  1  0.51353334  0.89832501  0.59086431  1  0.014619  0  0.095892  0.097066  0  0.970245  0
C  C44  1  0.50605293  0.74266677  0.49879185  1  1.597029  0  0.216617  0.562796  0  4.16051  0
C  C45  1  0.38871394  0.40367032  0.87999951  1  1.30954  0  0.242954  0.459961  0  4.090613  0
C  C46  1  0.58503018  0.43994547  0.76108489  1  0.005317  0  -0.012317  -0.055013  0  3.975915  0
C  C47  1  0.48943583  0.50298266  0.60868543  1  1.601993  0  0.215141  0.587973  0  4.184959  0
C  C48  1  0.58908811  0.44491772  0.70191001  1  -0.049481  0  -0.066069  -0.097959  0  3.937038  0
C  C49  1  0.48080928  0.49731465  0.67206233  1  -0.056646  0  -0.014153  -0.033131  0  3.969846  0
C  C50  1  0.36532569  0.54440343  0.70222349  1  -0.018229  0  -0.064022  -0.049825  0  3.932899  0
C  C51  1  0.36104252  0.54280743  0.76129535  1  0.025312  0  -0.072606  -0.144302  0  3.948656  0
C  C52  1  0.47038014  0.49210323  0.79063455  1  0.423656  0  0.116017  0.209993  0  3.952486  0
C  C53  1  0.40557282  0.53696079  0.23760618  1  -0.055956  0  -0.079538  -0.147744  0  3.970987  0
C  C54  1  0.39906363  0.53792005  0.29648442  1  -0.011918  0  -0.077255  -0.077171  0  3.971568  0
C  C55  1  0.66546254  0.65894576  0.02390361  1  -0.06154  0  -0.065041  -0.076027  0  3.944462  0
C  C56  1  0.51148579  0.49402981  0.32712205  1  0.065693  0  -0.01366  -0.029169  0  3.968388  0
C  C57  1  0.62987125  0.44799088  0.29850138  1  -0.063288  0  -0.073973  -0.072907  0  3.945798  0
C  C58  1  0.63472487  0.44337256  0.23955353  1  0.037387  0  -0.076116  -0.140243  0  3.957292  0
C  C59  1  0.49765542  0.26215823  0.50094853  1  1.524321  0  0.222807  0.580168  0  4.119677  0
C  C60  1  0.52265612  0.48829860  0.20960358  1  0.371487  0  0.093697  0.199531  0  4.016644  0
C  C61  1  0.34995288  0.92685536  0.50171538  1  -0.017874  0  -0.081548  -0.114562  0  3.80206  0
C  C62  1  0.59110108  0.93569239  0.44841908  1  -0.081008  0  -0.076135  -0.112295  0  3.784995  0
C  C63  1  0.34731748  0.07047635  0.49795335  1  -0.078057  0  -0.080945  -0.120415  0  3.808521  0
C  C64  1  0.57561310  0.07656281  0.44505018  1  -0.057917  0  -0.085335  -0.12355  0  3.799158  0
C  C65  1  0.57217075  0.93329299  0.55344342  1  0.004465  0  -0.157259  -0.178098  0  3.872089  0
C  C66  1  0.65192006  0.66170956  0.96508062  1  0.014435  0  -0.060872  -0.067023  0  3.936616  0
C  C67  1  0.50314381  0.88297080  0.49980756  1  0.020605  0  -0.007168  -0.00551  0  3.770637  0
C  C68  1  0.49815893  0.12215521  0.49964105  1  0.10577  0  -0.008119  -0.005721  0  3.780478  0
C  C69  1  0.57351426  0.07503381  0.55251456  1  -0.068531  0  -0.158466  -0.183433  0  3.860483  0
C  C70  1  0.91820734  0.61033829  0.53496614  1  0.280945  0  -0.067779  -0.085462  0  3.812731  0
C  C71  1  0.07820178  0.60089180  0.54084016  1  0.181161  0  -0.071821  -0.091459  0  3.816719  0
C  C72  1  0.91858418  0.38986841  0.52465541  1  0.271497  0  -0.068565  -0.08742  0  3.822222  0
C  C73  1  0.07884402  0.38631714  0.51639430  1  0.177934  0  -0.07348  -0.096477  0  3.841389  0
C  C74  1  0.92210353  0.51854651  0.44135773  1  0.212031  0  -0.067058  -0.084924  0  3.809307  0
C  C75  1  0.08171552  0.53971245  0.44217761  1  0.217753  0  -0.070336  -0.094216  0  3.808801  0
C  C76  1  0.50517952  0.49627124  0.39028003  1  1.516619  0  0.220415  0.596599  0  4.168583  0
C  C77  1  0.56506087  0.57812732  0.93805401  1  -0.047842  0  -0.00197  -0.056606  0  3.966311  0
C  C78  1  0.43920086  0.39148930  0.12410489  1  1.365087  0  0.246452  0.440807  0  4.093996  0
C  C79  1  0.60590020  0.57076744  0.11834417  1  1.36078  0  0.245343  0.438953  0  4.100582  0
C  C80  1  0.59188714  0.57139082  0.05587475  1  -0.045072  0  -0.002491  -0.055776  0  3.988321  0
C  C81  1  0.50323411  0.48546829  0.02924033  1  -0.006224  0  4.5e-05  0.013957  0  4.014539  0
C  C82  1  0.42994313  0.39477999  0.06148914  1  0.003021  0  -0.00215  -0.038179  0  4.011766  0
C  C83  1  0.25375877  0.87577440  0.45730128  1  0.97291  0  0.102012  0.312798  0  3.929813  0
C  C84  1  0.56321542  0.87075065  0.39268286  1  0.95483  0  0.107832  0.296554  0  3.889313  0
C  C85  1  0.24961218  0.11425715  0.54499124  1  0.932427  0  0.102657  0.313955  0  3.952832  0
C  C86  1  0.72031223  0.13355016  0.43502792  1  0.983858  0  0.098844  0.312564  0  3.947454  0
C  C87  1  0.09591955  0.28118999  0.93613188  1  0.364374  0  -0.060428  0.0386  0  3.859036  0
C  C88  1  0.48740371  0.48842876  0.96938857  1  0.05686  0  0.009426  0.05587  0  3.978984  0
C  C89  1  0.99671605  0.30871177  0.98587897  1  0.001722  0  -0.170965  -0.140649  0  3.998631  0
C  C90  1  0.85491953  0.35368668  0.96654606  1  -0.062988  0  -0.247261  -0.350206  0  3.968267  0
C  C91  1  0.70257846  0.37795061  0.78813294  1  0.963683  0  0.104335  0.288809  0  3.968942  0
C  C92  1  0.39558229  0.40369750  0.94243780  1  0.0004  0  -0.013682  -0.181553  0  3.926934  0
C  C93  1  0.32088354  0.31727513  0.97626052  1  0.592243  0  0.115162  0.274859  0  4.010979  0
C  C94  1  0.34339832  0.31161567  0.03516601  1  -0.01445  0  -0.066118  -0.175979  0  3.902756  0
C  C95  1  0.55697583  0.58342732  0.87589104  1  1.382981  0  0.242949  0.45025  0  4.114282  0
N  N96  1  0.52387354  0.48300103  0.14851898  1  -1.201765  0  -0.23049  -0.22899  0  3.592736  0
N  N97  1  0.46742784  0.49641945  0.85148227  1  -1.223564  0  -0.236654  -0.242022  0  3.613281  0
N  N98  1  0.86503466  0.50583245  0.50052925  1  -0.985646  0  -0.344617  -0.112824  0  3.458243  0
N  N99  1  0.13398305  0.50939314  0.49945284  1  -0.986162  0  -0.344998  -0.108093  0  3.458879  0
O  O100  1  0.39374383  0.68879914  0.48414293  1  -1.159696  0  -0.296541  -0.526245  0  2.365052  0
O  O101  1  0.68213938  0.64306413  0.14327610  1  -1.094811  0  -0.273895  -0.428422  0  2.059815  0
O  O102  1  0.62317586  0.65753176  0.84605104  1  -1.119499  0  -0.288023  -0.45309  0  2.058958  0
O  O103  1  0.32256889  0.32894675  0.85186115  1  -1.087926  0  -0.273622  -0.437135  0  2.10012  0
O  O104  1  0.13142249  0.84663713  0.46738586  1  -1.117733  0  -0.27466  -0.383126  0  2.168409  0
O  O105  1  0.51699052  0.91960691  0.35091138  1  -1.077261  0  -0.250182  -0.336665  0  2.118112  0
O  O106  1  0.12339170  0.12504715  0.54004620  1  -1.077071  0  -0.275058  -0.376528  0  2.150597  0
O  O107  1  0.75919120  0.18365309  0.39114727  1  -1.091957  0  -0.271346  -0.363217  0  2.108145  0
O  O108  1  0.22760697  0.23425974  0.95642396  1  -1.061732  0  -0.19114  -0.223643  0  2.502644  0
O  O109  1  0.71702843  0.36128273  0.83886960  1  -1.078558  0  -0.251231  -0.348233  0  2.156434  0
O  O110  1  0.61898470  0.69138986  0.51168080  1  -1.169742  0  -0.306811  -0.535831  0  2.342267  0
O  O111  1  0.37905379  0.53338248  0.58335023  1  -1.169411  0  -0.31538  -0.549969  0  2.341646  0
O  O112  1  0.60672362  0.47715934  0.58507223  1  -1.174491  0  -0.313899  -0.542846  0  2.332982  0
O  O113  1  0.38303806  0.31469034  0.51363877  1  -1.167784  0  -0.29641  -0.53009  0  2.342663  0
O  O114  1  0.61434228  0.31505142  0.49022906  1  -1.157668  0  -0.294799  -0.51975  0  2.36574  0
O  O115  1  0.38748678  0.47174272  0.41469796  1  -1.168402  0  -0.314953  -0.546069  0  2.339063  0
O  O116  1  0.61791031  0.52346129  0.41540538  1  -1.1746  0  -0.313484  -0.560493  0  2.377892  0
O  O117  1  0.37564266  0.31566087  0.15365432  1  -1.093743  0  -0.271666  -0.42377  0  2.05929  0
