# generated using pymatgen
data_Zn2H56C67(N4O9)2
_symmetry_space_group_name_H-M   'P 1'
_cell_length_a   9.42918254
_cell_length_b   11.44540078
_cell_length_c   16.70107884
_cell_angle_alpha   91.28856998
_cell_angle_beta   90.05312907
_cell_angle_gamma   118.57516949
_symmetry_Int_Tables_number   1
_chemical_formula_structural   Zn2H56C67(N4O9)2
_chemical_formula_sum   'Zn2 H56 C67 N8 O18'
_cell_volume   1582.30403316
_cell_formula_units_Z   1
loop_
 _symmetry_equiv_pos_site_id
 _symmetry_equiv_pos_as_xyz
  1  'x, y, z'
loop_
 _atom_site_type_symbol
 _atom_site_label
 _atom_site_symmetry_multiplicity
 _atom_site_fract_x
 _atom_site_fract_y
 _atom_site_fract_z
 _atom_site_occupancy
 _atom_site_pbe_bader_charge
 _atom_site_pbe_bader_spin_density
 _atom_site_pbe_cm5_charge
 _atom_site_pbe_ddec_charge
 _atom_site_pbe_ddec_spin_density
 _atom_site_pbe_ddec_sum_bond_order
 _atom_site_pbe_magmom
Zn  Zn0  1  0.41936325  0.53961104  0.23692585  1  1.316544  0  0.66866  0.844307  0  2.266762  0
Zn  Zn1  1  0.58060266  0.46035859  0.76309009  1  1.316983  0  0.668661  0.844402  0  2.266555  0
H  H2  1  0.43604594  0.56392996  0.07013234  1  0.618333  0  0.314174  0.404936  0  0.88424  0
H  H3  1  0.56392458  0.43603618  0.92987336  1  0.618383  0  0.314239  0.405007  0  0.884306  0
H  H4  1  0.49732868  0.46876738  0.10759373  1  0.653808  0  0.279819  0.370988  0  0.983374  0
H  H5  1  0.50264530  0.53121138  0.89242064  1  0.653936  0  0.279859  0.371129  0  0.983207  0
H  H6  1  0.16056635  0.72036113  0.08353121  1  0.422881  0  0.311781  0.256062  0  0.983307  0
H  H7  1  0.83942437  0.27963497  0.91647700  1  0.42265  0  0.31172  0.255994  0  0.983415  0
H  H8  1  0.32113104  0.60217697  0.36849995  1  0.650695  0  0.276631  0.366931  0  0.987952  0
H  H9  1  0.67887097  0.39780865  0.63152005  1  0.650631  0  0.276719  0.367133  0  0.987636  0
H  H10  1  0.36874493  0.49270517  0.40050935  1  0.597261  0  0.31537  0.396947  0  0.884436  0
H  H11  1  0.63125723  0.50727666  0.59950577  1  0.59737  0  0.315384  0.397003  0  0.884334  0
H  H12  1  0.07140966  0.84275309  0.50071523  1  0.472137  0  0.323554  0.277034  0  0.937024  0
H  H13  1  0.92858116  0.15722342  0.49929974  1  0.471408  0  0.323604  0.277145  0  0.937115  0
H  H14  1  0.47859409  0.22183773  0.34540747  1  0.128571  0  0.110726  0.121668  0  0.98899  0
H  H15  1  0.52138860  0.77814337  0.65460458  1  0.127597  0  0.110737  0.121627  0  0.988989  0
H  H16  1  0.39921154  0.87541035  0.13943231  1  0.044915  0  0.094211  0.085454  0  1.048055  0
H  H17  1  0.60077041  0.12456166  0.86059451  1  0.043829  0  0.094205  0.085371  0  1.048101  0
H  H18  1  0.23990253  0.61374559  0.12433647  1  0.085074  0  0.117933  0.077153  0  1.03553  0
H  H19  1  0.76009095  0.38623787  0.87567686  1  0.08468  0  0.117854  0.077007  0  1.035587  0
H  H20  1  0.83654983  0.88578551  0.88943770  1  0.067508  0  0.099314  0.102927  0  1.023565  0
H  H21  1  0.16343504  0.11420949  0.11056507  1  0.067617  0  0.0993  0.102896  0  1.023711  0
H  H22  1  0.32358801  0.89360978  0.00727286  1  0.027295  0  0.100496  0.104868  0  1.00918  0
H  H23  1  0.67638967  0.10638578  0.99273589  1  0.0274  0  0.10051  0.104862  0  1.009117  0
H  H24  1  0.42223120  0.09426848  0.09842000  1  0.085725  0  0.101384  0.101955  0  1.029635  0
H  H25  1  0.57775422  0.90569996  0.90159838  1  0.085629  0  0.101336  0.101858  0  1.02982  0
H  H26  1  0.73024458  0.33461191  0.12764343  1  0.124428  0  0.109433  0.113414  0  1.039728  0
H  H27  1  0.26975754  0.66538564  0.87236425  1  0.171923  0  0.109418  0.113438  0  1.03974  0
H  H28  1  0.60050074  0.71570400  0.38195074  1  0.148487  0  0.118429  0.084714  0  1.044454  0
H  H29  1  0.39943773  0.28423618  0.61807107  1  0.148898  0  0.118353  0.084702  0  1.044375  0
H  H30  1  0.80538331  0.70937518  0.98112268  1  0.12819  0  0.107902  0.12732  0  1.012308  0
H  H31  1  0.19460603  0.29063042  0.01889412  1  0.128391  0  0.107905  0.127263  0  1.012312  0
H  H32  1  0.23844249  0.18282667  0.84420693  1  0.076423  0  0.098818  0.11777  0  0.991641  0
H  H33  1  0.76154937  0.81716560  0.15580060  1  0.07631  0  0.098939  0.117875  0  0.991664  0
H  H34  1  0.03067975  0.13535960  0.85319250  1  0.022309  0  0.090391  0.097451  0  1.00932  0
H  H35  1  0.96929914  0.86462432  0.14681721  1  0.02244  0  0.090429  0.097455  0  1.009284  0
H  H36  1  0.24286530  0.92039398  0.61141636  1  0.064304  0  0.102061  0.10908  0  1.008589  0
H  H37  1  0.75713858  0.07960280  0.38858532  1  0.064028  0  0.102115  0.109159  0  1.008543  0
H  H38  1  0.08819163  0.28779176  0.26657204  1  0.13543  0  0.121347  0.099628  0  0.994238  0
H  H39  1  0.91177761  0.71218004  0.73343977  1  0.135111  0  0.121333  0.099461  0  0.99433  0
H  H40  1  0.35244661  0.07532166  0.91892553  1  0.073997  0  0.099523  0.103241  0  1.009083  0
H  H41  1  0.64752716  0.92465644  0.08107265  1  0.07365  0  0.099482  0.103238  0  1.008986  0
H  H42  1  0.79828832  0.20177671  0.22487764  1  0.089772  0  0.105822  0.110633  0  1.031629  0
H  H43  1  0.20169327  0.79821616  0.77512748  1  0.090001  0  0.105786  0.110616  0  1.031757  0
H  H44  1  0.30460880  0.03086895  0.74560201  1  0.089066  0  0.096368  0.097236  0  1.055757  0
H  H45  1  0.69538307  0.96911938  0.25440784  1  0.089369  0  0.096416  0.097315  0  1.055781  0
H  H46  1  0.44691634  0.00108054  0.38622101  1  0.074208  0  0.106815  0.109907  0  0.989408  0
H  H47  1  0.55306918  0.99891208  0.61380447  1  0.0746  0  0.106751  0.109804  0  0.989501  0
H  H48  1  0.85163100  0.03319778  0.74381594  1  0.060996  0  0.09138  0.088447  0  1.062132  0
H  H49  1  0.14839329  0.96682524  0.25618038  1  0.060879  0  0.091389  0.08838  0  1.062198  0
H  H50  1  0.75130072  0.55162850  0.19891556  1  0.1109  0  0.120092  0.092171  0  1.00987  0
H  H51  1  0.24867180  0.44835726  0.80108638  1  0.110638  0  0.120016  0.092084  0  1.009791  0
H  H52  1  0.78684947  0.92073709  0.61011626  1  0.12377  0  0.101011  0.115125  0  1.071525  0
H  H53  1  0.21314657  0.07928277  0.38988290  1  0.12398  0  0.101012  0.115011  0  1.071391  0
H  H54  1  0.01599793  0.62076048  0.27007525  1  0.081696  0  0.104568  0.111639  0  1.019362  0
H  H55  1  0.98404364  0.37932227  0.72988948  1  0.082109  0  0.10462  0.111752  0  1.019469  0
H  H56  1  0.06842222  0.73528703  0.40182275  1  0.091834  0  0.108397  0.103739  0  1.024464  0
H  H57  1  0.93164654  0.26488008  0.59811514  1  0.090903  0  0.108385  0.103632  0  1.024393  0
C  C58  1  0.97787803  0.48680893  0.11975989  1  -0.098031  0  -0.016557  -0.09341  0  3.999384  0
C  C59  1  0.02211203  0.51318801  0.88025372  1  -0.097318  0  -0.016551  -0.093403  0  3.999572  0
C  C60  1  0.09702414  0.99308810  0.89748805  1  -0.011521  0  -0.009046  0.11731  0  3.968277  0
C  C61  1  0.90297039  0.00690719  0.10252015  1  -0.011312  0  -0.009016  0.117244  0  3.968472  0
C  C62  1  0.46087399  0.14524435  0.30056759  1  -0.048969  0  -0.075952  -0.083986  0  3.944323  0
C  C63  1  0.53909624  0.85472741  0.69944841  1  -0.048728  0  -0.075979  -0.083962  0  3.944354  0
C  C64  1  0.41265000  0.95121602  0.18397418  1  -0.111651  0  -0.094998  -0.121379  0  4.022929  0
C  C65  1  0.58732984  0.04875794  0.81604848  1  -0.110696  0  -0.094911  -0.121115  0  4.02308  0
C  C66  1  0.13551282  0.52441267  0.14510231  1  0.553666  0  0.048962  0.060099  0  3.956407  0
C  C67  1  0.86447331  0.47558103  0.85491901  1  0.554054  0  0.048962  0.060092  0  3.956513  0
C  C68  1  0.06266275  0.78987890  0.00012966  1  0.281984  0  0.089287  0.228619  0  4.038964  0
C  C69  1  0.93732651  0.21011238  0.99987365  1  0.291791  0  0.089395  0.22879  0  4.038955  0
C  C70  1  0.93586860  0.56565923  0.06289913  1  1.38592  0  0.236383  0.467463  0  4.144741  0
C  C71  1  0.06412414  0.43434074  0.93711396  1  1.386071  0  0.236371  0.4675  0  4.144698  0
C  C72  1  0.44902631  0.16970325  0.21963940  1  -0.023785  0  -0.013916  -0.030592  0  3.959014  0
C  C73  1  0.55096718  0.83027627  0.78037625  1  -0.023422  0  -0.013951  -0.030324  0  3.958627  0
C  C74  1  0.41558364  0.92331956  0.26511714  1  -0.007844  0  -0.018128  -0.033418  0  3.97835  0
C  C75  1  0.58439349  0.07665527  0.73490494  1  -0.00733  0  -0.01827  -0.033568  0  3.978258  0
C  C76  1  0.00906845  0.91237105  0.60205722  1  0.336549  0  0.090226  0.235103  0  4.036818  0
C  C77  1  0.99090835  0.08761679  0.39794658  1  0.337214  0  0.090271  0.234884  0  4.03726  0
C  C78  1  0.08232760  0.03949900  0.75470387  1  0.00155  0  -0.014665  0.112224  0  3.970753  0
C  C79  1  0.91766382  0.96049433  0.24529829  1  0.00126  0  -0.014602  0.112257  0  3.970832  0
C  C80  1  0.94431949  0.88851817  0.91533043  1  -0.057968  0  -0.086966  -0.113785  0  3.963311  0
C  C81  1  0.05567073  0.11147895  0.08467481  1  -0.058052  0  -0.0869  -0.113629  0  3.96324  0
C  C82  1  0.21649203  0.89347191  0.98226752  1  -0.042543  0  -0.101461  -0.188604  0  4.01226  0
C  C83  1  0.78349287  0.10651524  0.01773868  1  -0.052022  0  -0.101533  -0.18868  0  4.012077  0
C  C84  1  0.42830279  0.07282403  0.16120150  1  -0.04171  0  -0.087729  -0.10508  0  3.994257  0
C  C85  1  0.57168582  0.92715039  0.83881641  1  -0.040801  0  -0.087683  -0.105178  0  3.994506  0
C  C86  1  0.45121918  0.29596653  0.19474254  1  1.560629  0  0.207059  0.561941  0  4.219054  0
C  C87  1  0.54876841  0.70401184  0.80527006  1  1.560471  0  0.207114  0.561625  0  4.21915  0
C  C88  1  0.85390676  0.36722845  0.14797700  1  -0.030739  0  -0.059461  -0.046418  0  3.9165  0
C  C89  1  0.14608643  0.63277048  0.85204086  1  -0.079197  0  -0.059558  -0.046609  0  3.916825  0
C  C90  1  0.69243431  0.69283242  0.35850218  1  0.464046  0  0.058228  0.077117  0  3.917622  0
C  C91  1  0.30753212  0.30715592  0.64150399  1  0.458708  0  0.058291  0.077004  0  3.917457  0
C  C92  1  0.83252346  0.73002228  0.40444324  1  -0.017202  0  -0.011616  -0.080259  0  3.987145  0
C  C93  1  0.16747260  0.27001533  0.59554432  1  -0.016429  0  -0.011458  -0.079843  0  3.986929  0
C  C94  1  0.92510880  0.78795061  0.96665050  1  0.030314  0  -0.090621  -0.157738  0  3.940387  0
C  C95  1  0.07488134  0.21204839  0.03335777  1  0.029971  0  -0.090653  -0.157698  0  3.940208  0
C  C96  1  0.11583586  0.09801932  0.83890313  1  -0.016145  0  -0.157033  -0.24938  0  3.961923  0
C  C97  1  0.88415335  0.90197388  0.16110142  1  -0.016377  0  -0.157237  -0.249546  0  3.96229  0
C  C98  1  0.39350838  0.78925395  0.28814697  1  1.574815  0  0.204658  0.567121  0  4.213706  0
C  C99  1  0.60646647  0.21072265  0.71187933  1  1.573353  0  0.204903  0.567535  0  4.213495  0
C  C100  1  0.15658937  0.94525916  0.64036467  1  -0.036338  0  -0.09948  -0.187446  0  3.989603  0
C  C101  1  0.84339187  0.05471911  0.35964013  1  -0.036477  0  -0.099594  -0.187505  0  3.98998  0
C  C102  1  0.05227227  0.34080547  0.22462529  1  0.467497  0  0.061907  0.118486  0  3.884151  0
C  C103  1  0.94770582  0.65918111  0.77539525  1  0.468962  0  0.061868  0.118505  0  3.884481  0
C  C104  1  0.23282416  0.99435904  0.93211791  1  -0.007874  0  -0.093242  -0.125284  0  4.002017  0
C  C105  1  0.76716071  0.00562612  0.06789064  1  -0.007636  0  -0.093222  -0.12526  0  4.001879  0
C  C106  1  0.89184386  0.29446089  0.20142958  1  0.050526  0  -0.078016  -0.11801  0  3.956797  0
C  C107  1  0.10814040  0.70554529  0.79859619  1  0.0496  0  -0.077868  -0.117831  0  3.956807  0
C  C108  1  0.19136587  0.00760411  0.71563746  1  -0.087847  0  -0.095397  -0.124258  0  3.992144  0
C  C109  1  0.80862341  0.99238129  0.28436812  1  -0.087484  0  -0.095512  -0.124397  0  3.992271  0
C  C110  1  0.44255529  0.02238440  0.32321842  1  -0.037352  0  -0.081443  -0.098557  0  3.964065  0
C  C111  1  0.55740610  0.97758881  0.67680418  1  -0.037778  0  -0.081391  -0.098525  0  3.964189  0
C  C112  1  0.93779098  0.00827334  0.71515401  1  -0.095101  0  -0.098253  -0.129379  0  4.013243  0
C  C113  1  0.06221123  0.99173416  0.28484310  1  -0.095049  0  -0.098239  -0.129324  0  4.013249  0
C  C114  1  0.77917025  0.60384753  0.25689625  1  0.425195  0  0.056343  0.108464  0  3.899178  0
C  C115  1  0.22082210  0.39617131  0.74309808  1  0.425487  0  0.056486  0.108763  0  3.899113  0
C  C116  1  0.90023665  0.94573714  0.63982775  1  0.010468  0  -0.104806  -0.184863  0  3.984192  0
C  C117  1  0.09975306  0.05426885  0.36017109  1  0.010064  0  -0.104804  -0.184573  0  3.983869  0
C  C118  1  0.92514658  0.64192394  0.29676083  1  0.046343  0  -0.083114  -0.120088  0  3.955573  0
C  C119  1  0.07488517  0.35814850  0.70321263  1  0.04642  0  -0.083141  -0.12025  0  3.955728  0
C  C120  1  0.95293177  0.70595309  0.37168212  1  0.013935  0  -0.063371  -0.060956  0  3.950964  0
C  C121  1  0.04710031  0.29415167  0.62828186  1  0.013424  0  -0.063498  -0.061062  0  3.950864  0
C  C122  1  0.83346468  0.79040394  0.48516652  1  1.393525  0  0.236822  0.467307  0  4.147569  0
C  C123  1  0.16653460  0.20963377  0.51482285  1  1.393419  0  0.236871  0.467162  0  4.147443  0
C  C124  1  0.00029999  0.50011033  0.49980695  1  2.135983  0  0.365229  0.713748  0  4.137411  0
N  N125  1  0.05586985  0.69350252  0.05311909  1  -1.228129  0  -0.400609  -0.37409  0  3.614597  0
N  N126  1  0.94412025  0.30649644  0.94689098  1  -1.228149  0  -0.400605  -0.374213  0  3.614622  0
N  N127  1  0.66446352  0.62965525  0.28717249  1  -1.241335  0  -0.313433  -0.222839  0  3.506784  0
N  N128  1  0.33550569  0.37032440  0.71283590  1  -1.23608  0  -0.31342  -0.222892  0  3.50665  0
N  N129  1  0.97724410  0.84847851  0.52628125  1  -1.283894  0  -0.393425  -0.365098  0  3.599072  0
N  N130  1  0.02274567  0.15152163  0.47371806  1  -1.283245  0  -0.393467  -0.365121  0  3.599374  0
N  N131  1  0.17217964  0.45426012  0.19636970  1  -1.255241  0  -0.320777  -0.227133  0  3.527943  0
N  N132  1  0.82779604  0.54573399  0.80365818  1  -1.255472  0  -0.320705  -0.226997  0  3.528321  0
O  O133  1  0.43155276  0.72800589  0.23428727  1  -1.187123  0  -0.325681  -0.571233  0  2.335848  0
O  O134  1  0.56843121  0.27196802  0.76574559  1  -1.186964  0  -0.325635  -0.571342  0  2.33581  0
O  O135  1  0.50471774  0.56098899  0.11288323  1  -1.257574  0  -0.575546  -0.751553  0  2.057478  0
O  O136  1  0.49524713  0.43898458  0.88712860  1  -1.257827  0  -0.57564  -0.75177  0  2.057458  0
O  O137  1  0.42207317  0.36089363  0.24967772  1  -1.168989  0  -0.32328  -0.554826  0  2.318972  0
O  O138  1  0.57790309  0.63908336  0.75033243  1  -1.169281  0  -0.323322  -0.554804  0  2.318876  0
O  O139  1  0.48034016  0.32751833  0.12185805  1  -1.176615  0  -0.318391  -0.546186  0  2.185402  0
O  O140  1  0.51963836  0.67245096  0.87815254  1  -1.176772  0  -0.318382  -0.546017  0  2.185634  0
O  O141  1  0.34049665  0.74771978  0.35736708  1  -1.179633  0  -0.325697  -0.55156  0  2.141085  0
O  O142  1  0.65947543  0.25226158  0.64265872  1  -1.17899  0  -0.32592  -0.551812  0  2.141119  0
O  O143  1  0.80239267  0.51635216  0.02852952  1  -1.140589  0  -0.289242  -0.47832  0  2.148798  0
O  O144  1  0.19761177  0.48364368  0.97147154  1  -1.140678  0  -0.289234  -0.478276  0  2.148838  0
O  O145  1  0.30779820  0.50899621  0.35936516  1  -1.238416  0  -0.575238  -0.752986  0  2.068404  0
O  O146  1  0.69218315  0.49098263  0.64066002  1  -1.238415  0  -0.57535  -0.753171  0  2.068083  0
O  O147  1  0.70724560  0.78527523  0.51101045  1  -1.12385  0  -0.296366  -0.473159  0  2.100395  0
O  O148  1  0.29277068  0.21480419  0.48897149  1  -1.124323  0  -0.296445  -0.473135  0  2.099926  0
O  O149  1  0.08855805  0.60244559  0.53151193  1  -1.078169  0  -0.17613  -0.349377  0  2.157868  0
O  O150  1  0.91201683  0.39775984  0.46813494  1  -1.076631  0  -0.175738  -0.348644  0  2.157928  0
