# generated using pymatgen
data_HgH20C26(BrN3)2
_symmetry_space_group_name_H-M   'P 1'
_cell_length_a   7.02638445
_cell_length_b   9.09809587
_cell_length_c   21.50950000
_cell_angle_alpha   92.26954665
_cell_angle_beta   90.00000000
_cell_angle_gamma   112.71454671
_symmetry_Int_Tables_number   1
_chemical_formula_structural   HgH20C26(BrN3)2
_chemical_formula_sum   'Hg2 H40 C52 Br4 N12'
_cell_volume   1267.21505389
_cell_formula_units_Z   2
loop_
 _symmetry_equiv_pos_site_id
 _symmetry_equiv_pos_as_xyz
  1  'x, y, z'
loop_
 _atom_site_type_symbol
 _atom_site_label
 _atom_site_symmetry_multiplicity
 _atom_site_fract_x
 _atom_site_fract_y
 _atom_site_fract_z
 _atom_site_occupancy
 _atom_site_hle17_bader_spin_density
 _atom_site_hle17_ddec_charge
 _atom_site_hle17_ddec_spin_density
 _atom_site_hle17_ddec_sum_bond_order
 _atom_site_hle17_magmom
 _atom_site_hse06_10hf_bader_spin_density
 _atom_site_hse06_10hf_ddec_charge
 _atom_site_hse06_10hf_ddec_spin_density
 _atom_site_hse06_10hf_ddec_sum_bond_order
 _atom_site_hse06_10hf_magmom
 _atom_site_hse06_bader_spin_density
 _atom_site_hse06_ddec_charge
 _atom_site_hse06_ddec_spin_density
 _atom_site_hse06_ddec_sum_bond_order
 _atom_site_hse06_magmom
 _atom_site_pbe_bader_charge
 _atom_site_pbe_bader_spin_density
 _atom_site_pbe_cm5_charge
 _atom_site_pbe_ddec_charge
 _atom_site_pbe_ddec_spin_density
 _atom_site_pbe_ddec_sum_bond_order
 _atom_site_pbe_magmom
Hg  Hg0  1  0.40266061  0.99992236  0.24995481  1  0  0.654224  0  2.097684  0  0  0.493627  0  2.602942  0  0  0.542925  0  2.568644  0  0.690916  0  0.457787  0.460319  0  2.625729  0
Hg  Hg1  1  0.59733765  0.00007514  0.75004473  1  0  0.654215  0  2.097585  0  0  0.493619  0  2.602824  0  0  0.542916  0  2.568528  0  0.690943  0  0.457763  0.460311  0  2.625609  0
H  H2  1  0.02135251  0.87235922  0.33646822  1  0  0.066858  0  0.962631  0  0  0.071598  0  1.036674  0  0  0.073885  0  1.034325  0  0.07575  0  0.102641  0.069939  0  1.038348  0
H  H3  1  0.14866315  0.12711827  0.16359839  1  0  0.067681  0  0.9621  0  0  0.072182  0  1.036438  0  0  0.074482  0  1.034062  0  0.081307  0  0.102816  0.070525  0  1.038072  0
H  H4  1  0.97864657  0.12763708  0.66353176  1  0  0.06689  0  0.962576  0  0  0.07161  0  1.03664  0  0  0.073898  0  1.034288  0  0.075811  0  0.102639  0.069951  0  1.038313  0
H  H5  1  0.85133584  0.87288637  0.83640127  1  0  0.067704  0  0.962034  0  0  0.072209  0  1.036351  0  0  0.074519  0  1.033954  0  0.081309  0  0.102834  0.070549  0  1.037998  0
H  H6  1  0.76699739  0.93271193  0.39897662  1  0  0.117498  0  1.01413  0  0  0.114922  0  1.094071  0  0  0.119761  0  1.091653  0  0.148641  0  0.100302  0.111462  0  1.095977  0
H  H7  1  0.83419855  0.06699694  0.10102598  1  0  0.117019  0  1.013464  0  0  0.114508  0  1.093446  0  0  0.119338  0  1.091049  0  0.159577  0  0.099974  0.111061  0  1.095327  0
H  H8  1  0.23300514  0.06728556  0.60102524  1  0  0.117513  0  1.014166  0  0  0.114946  0  1.094094  0  0  0.119784  0  1.091675  0  0.148662  0  0.100321  0.111485  0  1.096  0
H  H9  1  0.16580008  0.93300413  0.89897315  1  0  0.116983  0  1.013479  0  0  0.114485  0  1.093475  0  0  0.119315  0  1.091078  0  0.159622  0  0.099946  0.111034  0  1.095361  0
H  H10  1  0.10165532  0.43240488  0.35806976  1  0  0.115869  0  0.974529  0  0  0.124711  0  1.036469  0  0  0.128326  0  1.035637  0  0.105054  0  0.098476  0.122186  0  1.037167  0
H  H11  1  0.66870139  0.56721692  0.14191000  1  0  0.115898  0  0.97447  0  0  0.124725  0  1.036441  0  0  0.128299  0  1.035651  0  0.143891  0  0.098478  0.122194  0  1.037151  0
H  H12  1  0.89834496  0.56759380  0.64193026  1  0  0.115844  0  0.974593  0  0  0.124686  0  1.036534  0  0  0.128302  0  1.035702  0  0.105099  0  0.098474  0.12216  0  1.037233  0
H  H13  1  0.33129783  0.43278534  0.85809148  1  0  0.115897  0  0.97444  0  0  0.124703  0  1.03644  0  0  0.128281  0  1.035645  0  0.14386  0  0.098478  0.122172  0  1.03715  0
H  H14  1  0.33590030  0.34533331  0.29506360  1  0  0.073081  0  0.950649  0  0  0.079053  0  1.020487  0  0  0.081469  0  1.018193  0  0.091864  0  0.103985  0.077236  0  1.022209  0
H  H15  1  0.98999625  0.65406547  0.20489988  1  0  0.07272  0  0.949987  0  0  0.078652  0  1.020039  0  0  0.081089  0  1.017678  0  0.09465  0  0.103666  0.076854  0  1.02177  0
H  H16  1  0.66409737  0.65466299  0.70493639  1  0  0.073147  0  0.950555  0  0  0.079125  0  1.020386  0  0  0.081538  0  1.018093  0  0.091887  0  0.104039  0.077317  0  1.0221  0
H  H17  1  0.01000476  0.34594037  0.79510120  1  0  0.072787  0  0.94989  0  0  0.078685  0  1.019972  0  0  0.081127  0  1.017605  0  0.094632  0  0.103665  0.076884  0  1.021705  0
H  H18  1  0.75678802  0.40618454  0.52419697  1  0  0.121924  0  0.93723  0  0  0.131396  0  0.996833  0  0  0.135038  0  0.995709  0  0.095905  0  0.109547  0.128781  0  0.997826  0
H  H19  1  0.34976671  0.59351598  0.97571159  1  0  0.121174  0  0.938889  0  0  0.131562  0  0.997528  0  0  0.135165  0  0.996474  0  0.094462  0  0.109747  0.12894  0  0.998536  0
H  H20  1  0.24321630  0.59381653  0.47580217  1  0  0.121926  0  0.937209  0  0  0.131394  0  0.996808  0  0  0.135036  0  0.995684  0  0.095784  0  0.109554  0.128783  0  0.9978  0
H  H21  1  0.65024151  0.40648151  0.02428981  1  0  0.12125  0  0.938765  0  0  0.131594  0  0.997451  0  0  0.1352  0  0.996393  0  0.094427  0  0.109765  0.128972  0  0.998458  0
H  H22  1  0.73009469  0.67128133  0.52153591  1  0  0.064294  0  0.947492  0  0  0.072055  0  1.014124  0  0  0.073984  0  1.013542  0  0.057077  0  0.103408  0.070546  0  1.014751  0
H  H23  1  0.05816989  0.32838818  0.97845442  1  0  0.064064  0  0.949038  0  0  0.071585  0  1.015921  0  0  0.073476  0  1.015404  0  0.05146  0  0.103431  0.070118  0  1.016448  0
H  H24  1  0.26990416  0.32871735  0.47846412  1  0  0.064271  0  0.947536  0  0  0.072065  0  1.014142  0  0  0.073993  0  1.013561  0  0.057077  0  0.10341  0.070556  0  1.01477  0
H  H25  1  0.94183383  0.67161170  0.02154516  1  0  0.064032  0  0.949115  0  0  0.071538  0  1.016015  0  0  0.073433  0  1.015485  0  0.051459  0  0.103403  0.070091  0  1.016522  0
H  H26  1  0.70526162  0.65133431  0.32908435  1  0  0.067838  0  0.952013  0  0  0.076313  0  1.016393  0  0  0.078814  0  1.014145  0  0.083254  0  0.099999  0.074441  0  1.01809  0
H  H27  1  0.05393125  0.34842942  0.17089453  1  0  0.067703  0  0.95259  0  0  0.076227  0  1.016804  0  0  0.078744  0  1.014564  0  0.077829  0  0.099888  0.074371  0  1.018493  0
H  H28  1  0.29473439  0.34866437  0.67091753  1  0  0.067871  0  0.952079  0  0  0.07634  0  1.016461  0  0  0.078841  0  1.014212  0  0.083209  0  0.100007  0.074459  0  1.018165  0
H  H29  1  0.94606214  0.65156688  0.82910545  1  0  0.067733  0  0.952578  0  0  0.076256  0  1.01679  0  0  0.078771  0  1.014554  0  0.077638  0  0.09991  0.074401  0  1.018477  0
H  H30  1  0.74455554  0.39076242  0.32281635  1  0  0.109782  0  0.982212  0  0  0.115279  0  1.052855  0  0  0.118741  0  1.051519  0  0.122243  0  0.094632  0.112753  0  1.053982  0
H  H31  1  0.35379934  0.60896792  0.17709457  1  0  0.109854  0  0.982654  0  0  0.115542  0  1.052805  0  0  0.119021  0  1.051441  0  0.105017  0  0.094829  0.113026  0  1.053962  0
H  H32  1  0.25544225  0.60923984  0.67718374  1  0  0.10977  0  0.982167  0  0  0.115264  0  1.052817  0  0  0.118727  0  1.051482  0  0.122479  0  0.09463  0.112739  0  1.053944  0
H  H33  1  0.64619915  0.39102719  0.82290632  1  0  0.10984  0  0.982667  0  0  0.11555  0  1.052764  0  0  0.119029  0  1.051401  0  0.104966  0  0.094848  0.113035  0  1.053919  0
H  H34  1  0.36904924  0.11114038  0.41398233  1  0  0.101864  0  0.977403  0  0  0.109566  0  1.044129  0  0  0.111602  0  1.044513  0  0.098427  0  0.10223  0.108078  0  1.044  0
H  H35  1  0.25810352  0.88885830  0.08604466  1  0  0.101363  0  0.977384  0  0  0.10912  0  1.044212  0  0  0.111178  0  1.044541  0  0.095749  0  0.101832  0.107623  0  1.044095  0
H  H36  1  0.63095531  0.88885830  0.58601816  1  0  0.101985  0  0.977413  0  0  0.109701  0  1.044112  0  0  0.111734  0  1.044494  0  0.098387  0  0.102271  0.108211  0  1.043985  0
H  H37  1  0.74189024  0.11114158  0.91395492  1  0  0.101369  0  0.97743  0  0  0.109131  0  1.044248  0  0  0.111187  0  1.044577  0  0.095734  0  0.101835  0.107634  0  1.044129  0
H  H38  1  0.87907699  0.09129235  0.51921624  1  0  0.110023  0  0.942235  0  0  0.12032  0  1.002625  0  0  0.122732  0  1.002373  0  0.072736  0  0.107956  0.118598  0  1.002897  0
H  H39  1  0.78747498  0.90845826  0.98061272  1  0  0.10999  0  0.941807  0  0  0.120281  0  1.002338  0  0  0.122692  0  1.002055  0  0.088537  0  0.107893  0.118558  0  1.002615  0
H  H40  1  0.12092590  0.90870872  0.48078382  1  0  0.110021  0  0.942196  0  0  0.120327  0  1.002587  0  0  0.122739  0  1.002336  0  0.072863  0  0.107949  0.118605  0  1.002859  0
H  H41  1  0.21251900  0.09153923  0.01938682  1  0  0.109969  0  0.941806  0  0  0.120252  0  1.002344  0  0  0.122659  0  1.002076  0  0.088623  0  0.107879  0.11853  0  1.002621  0
C  C42  1  0.03175328  0.99505278  0.34194651  1  0  0.135778  0  3.748025  0  0  0.107576  0  3.996363  0  0  0.116961  0  4.014511  0  0.47398  0  0.033624  0.10158  0  3.98384  0
C  C43  1  0.03645377  0.00443426  0.15804912  1  0  0.133635  0  3.748808  0  0  0.105683  0  3.997478  0  0  0.115059  0  4.015647  0  0.451063  0  0.032969  0.099713  0  3.984927  0
C  C44  1  0.96824723  0.00494352  0.65805393  1  0  0.135671  0  3.748175  0  0  0.10752  0  3.996449  0  0  0.116906  0  4.014595  0  0.473975  0  0.033607  0.101524  0  3.983924  0
C  C45  1  0.96354605  0.99556919  0.84195052  1  0  0.133652  0  3.748735  0  0  0.10571  0  3.997398  0  0  0.115087  0  4.015572  0  0.450785  0  0.032998  0.09974  0  3.984843  0
C  C46  1  0.88942993  0.03019424  0.37732810  1  0  -0.234031  0  3.731148  0  0  -0.248972  0  3.985115  0  0  -0.260368  0  4.005082  0  0.024289  0  -0.103495  -0.241566  0  3.971783  0
C  C47  1  0.85908749  0.96942279  0.12262834  1  0  -0.233201  0  3.728719  0  0  -0.247934  0  3.982903  0  0  -0.259326  0  4.002887  0  0.011172  0  -0.102923  -0.240556  0  3.969583  0
C  C48  1  0.11057035  0.96980444  0.62267332  1  0  -0.234098  0  3.731318  0  0  -0.249052  0  3.985279  0  0  -0.260451  0  4.005252  0  0.024305  0  -0.103558  -0.241646  0  3.971948  0
C  C49  1  0.14091600  0.03057947  0.87737035  1  0  -0.233179  0  3.7288  0  0  -0.247926  0  3.982988  0  0  -0.259319  0  4.002972  0  0.01102  0  -0.10292  -0.240545  0  3.969665  0
C  C50  1  0.91038083  0.19039535  0.38526222  1  0  0.256365  0  3.783646  0  0  0.241873  0  4.032702  0  0  0.257056  0  4.049278  0  0.359365  0  0.116369  0.231861  0  4.021155  0
C  C51  1  0.71976523  0.80925508  0.11465851  1  0  0.257474  0  3.782035  0  0  0.242424  0  4.031977  0  0  0.257582  0  4.048562  0  0.346914  0  0.116526  0.232426  0  4.020421  0
C  C52  1  0.08962004  0.80960453  0.61473829  1  0  0.256353  0  3.783636  0  0  0.241838  0  4.032727  0  0  0.25702  0  4.049304  0  0.359356  0  0.116358  0.231826  0  4.021179  0
C  C53  1  0.28023459  0.19074837  0.88534205  1  0  0.257518  0  3.781979  0  0  0.242408  0  4.031982  0  0  0.257566  0  4.048568  0  0.347442  0  0.116551  0.23241  0  4.020422  0
C  C54  1  0.07519270  0.30629082  0.35464301  1  0  -0.230518  0  3.722157  0  0  -0.245599  0  3.973266  0  0  -0.256137  0  3.992384  0  -0.073217  0  -0.102221  -0.238736  0  3.960331  0
C  C55  1  0.76846240  0.69329760  0.14531806  1  0  -0.232011  0  3.722456  0  0  -0.246855  0  3.973696  0  0  -0.257364  0  3.99285  0  -0.054855  0  -0.102963  -0.239985  0  3.960759  0
C  C56  1  0.92479986  0.69370667  0.64535653  1  0  -0.23053  0  3.722163  0  0  -0.245605  0  3.973283  0  0  -0.256144  0  3.9924  0  -0.073373  0  -0.102258  -0.238742  0  3.96035  0
C  C57  1  0.23153742  0.30670586  0.85468297  1  0  -0.232039  0  3.722357  0  0  -0.246872  0  3.973629  0  0  -0.257384  0  3.992783  0  -0.0549  0  -0.103001  -0.240002  0  3.960689  0
C  C58  1  0.20791533  0.25829393  0.31937102  1  0  0.126571  0  3.763152  0  0  0.096617  0  4.017138  0  0  0.106292  0  4.034988  0  0.506823  0  0.031736  0.090452  0  4.004779  0
C  C59  1  0.94912134  0.74117760  0.18060762  1  0  0.1277  0  3.760999  0  0  0.097846  0  4.014956  0  0  0.107526  0  4.032786  0  0.464564  0  0.032753  0.091655  0  4.002576  0
C  C60  1  0.79208151  0.74170356  0.68063084  1  0  0.126527  0  3.763045  0  0  0.096564  0  4.017057  0  0  0.106241  0  4.034907  0  0.506875  0  0.031668  0.090391  0  4.004695  0
C  C61  1  0.05087907  0.25882705  0.81939297  1  0  0.127715  0  3.760905  0  0  0.097906  0  4.014796  0  0  0.107584  0  4.032629  0  0.464511  0  0.032807  0.091716  0  4.002424  0
C  C62  1  0.75966415  0.37964099  0.42345527  1  0  0.231309  0  3.791503  0  0  0.220397  0  4.039513  0  0  0.230818  0  4.059776  0  0.268469  0  0.105009  0.213509  0  4.025583  0
C  C63  1  0.37967703  0.62011082  0.07644810  1  0  0.232229  0  3.789223  0  0  0.221702  0  4.036879  0  0  0.232153  0  4.057064  0  0.365649  0  0.105891  0.214802  0  4.022985  0
C  C64  1  0.24033329  0.62035769  0.57654475  1  0  0.2313  0  3.791524  0  0  0.22042  0  4.039492  0  0  0.230842  0  4.059754  0  0.268495  0  0.105012  0.213533  0  4.025563  0
C  C65  1  0.62032550  0.37988668  0.92355237  1  0  0.232422  0  3.789323  0  0  0.221874  0  4.036944  0  0  0.232322  0  4.057136  0  0.365601  0  0.106008  0.214974  0  4.023049  0
C  C66  1  0.75133501  0.45884825  0.47994323  1  0  -0.206211  0  3.721771  0  0  -0.226363  0  3.977248  0  0  -0.234111  0  3.996926  0  -0.01126  0  -0.091512  -0.221375  0  3.964101  0
C  C67  1  0.29184227  0.54088805  0.01998824  1  0  -0.206195  0  3.722904  0  0  -0.227281  0  3.978122  0  0  -0.235019  0  3.997833  0  -0.038306  0  -0.092272  -0.222294  0  3.964986  0
C  C68  1  0.24866871  0.54115163  0.52005635  1  0  -0.206212  0  3.721739  0  0  -0.226366  0  3.977232  0  0  -0.234113  0  3.996911  0  -0.011159  0  -0.091552  -0.221382  0  3.96409  0
C  C69  1  0.70816168  0.45910944  0.98001223  1  0  -0.206398  0  3.722816  0  0  -0.22744  0  3.978038  0  0  -0.235182  0  3.997749  0  -0.03821  0  -0.092319  -0.222454  0  3.96491  0
C  C70  1  0.73414450  0.60608767  0.47812213  1  0  0.121835  0  3.770149  0  0  0.098247  0  4.031227  0  0  0.104736  0  4.047819  0  0.523654  0  0.035273  0.094141  0  4.019892  0
C  C71  1  0.12754784  0.39357946  0.02184817  1  0  0.123121  0  3.771414  0  0  0.099657  0  4.032531  0  0  0.106167  0  4.049087  0  0.508653  0  0.035725  0.09556  0  4.021211  0
C  C72  1  0.26586065  0.39391220  0.52187931  1  0  0.12178  0  3.77032  0  0  0.098159  0  4.031419  0  0  0.104648  0  4.048014  0  0.523672  0  0.035245  0.094054  0  4.020084  0
C  C73  1  0.87245731  0.60642042  0.97815141  1  0  0.123146  0  3.771642  0  0  0.099694  0  4.032748  0  0  0.106205  0  4.049309  0  0.508653  0  0.035709  0.095581  0  4.021427  0
C  C74  1  0.72428793  0.59625430  0.37162068  1  0  0.122916  0  3.759095  0  0  0.100761  0  4.012297  0  0  0.106511  0  4.030242  0  0.52596  0  0.034439  0.097155  0  4.000019  0
C  C75  1  0.12783055  0.40347842  0.12833165  1  0  0.1236  0  3.759712  0  0  0.101595  0  4.012619  0  0  0.10731  0  4.030623  0  0.503779  0  0.034864  0.097973  0  4.000315  0
C  C76  1  0.27571354  0.40374677  0.62838078  1  0  0.122922  0  3.758981  0  0  0.10077  0  4.012172  0  0  0.106519  0  4.030119  0  0.525963  0  0.034486  0.097171  0  3.999896  0
C  C77  1  0.87216711  0.59651787  0.87166740  1  0  0.123558  0  3.75958  0  0  0.101557  0  4.012483  0  0  0.10727  0  4.030489  0  0.503478  0  0.034842  0.097936  0  4.000178  0
C  C78  1  0.74521145  0.45023019  0.36791436  1  0  -0.216896  0  3.737214  0  0  -0.231928  0  3.984343  0  0  -0.240869  0  4.005833  0  -0.065639  0  -0.095965  -0.226026  0  3.969874  0
C  C79  1  0.29479644  0.54949777  0.13200582  1  0  -0.218198  0  3.739221  0  0  -0.233381  0  3.986097  0  0  -0.242356  0  4.007631  0  -0.067334  0  -0.09714  -0.227492  0  3.971637  0
C  C80  1  0.25478860  0.54977088  0.63208478  1  0  -0.216898  0  3.737233  0  0  -0.231942  0  3.984374  0  0  -0.240885  0  4.005863  0  -0.065914  0  -0.095983  -0.22604  0  3.969902  0
C  C81  1  0.70520287  0.45049615  0.86799459  1  0  -0.218239  0  3.739432  0  0  -0.233424  0  3.986318  0  0  -0.242398  0  4.007854  0  -0.066812  0  -0.097181  -0.227534  0  3.971855  0
C  C82  1  0.63769397  0.11299376  0.46272162  1  0  0.177271  0  3.777869  0  0  0.175031  0  4.018806  0  0  0.180054  0  4.041057  0  0.372012  0  0.09078  0.171572  0  4.003597  0
C  C83  1  0.52465483  0.88682365  0.03722051  1  0  0.179815  0  3.779813  0  0  0.177109  0  4.021305  0  0  0.182191  0  4.043478  0  0.323364  0  0.092737  0.173609  0  4.006146  0
C  C84  1  0.36231071  0.88701089  0.53727851  1  0  0.177396  0  3.777665  0  0  0.175161  0  4.018629  0  0  0.180185  0  4.040877  0  0.371527  0  0.09081  0.171701  0  4.00342  0
C  C85  1  0.47534260  0.11317504  0.96277951  1  0  0.179824  0  3.779819  0  0  0.177107  0  4.021297  0  0  0.18219  0  4.043467  0  0.323161  0  0.092735  0.173607  0  4.006138  0
C  C86  1  0.42509293  0.06332120  0.45229197  1  0  -0.119987  0  3.722483  0  0  -0.142101  0  3.973938  0  0  -0.145048  0  3.994822  0  -0.055723  0  -0.085653  -0.140014  0  3.959775  0
C  C87  1  0.36197835  0.93670849  0.04772950  1  0  -0.120106  0  3.724249  0  0  -0.142135  0  3.975845  0  0  -0.145094  0  3.996716  0  -0.013032  0  -0.085945  -0.140033  0  3.961676  0
C  C88  1  0.57491199  0.93668106  0.54770858  1  0  -0.120245  0  3.722532  0  0  -0.142398  0  3.974036  0  0  -0.145338  0  3.994913  0  -0.055155  0  -0.085703  -0.140309  0  3.959873  0
C  C89  1  0.63801743  0.06329258  0.95227103  1  0  -0.120143  0  3.724385  0  0  -0.142183  0  3.975996  0  0  -0.145144  0  3.996873  0  -0.012624  0  -0.085966  -0.14008  0  3.961824  0
C  C90  1  0.71326914  0.04996475  0.51059308  1  0  -0.115301  0  3.717519  0  0  -0.134778  0  3.965848  0  0  -0.137053  0  3.985068  0  -0.025982  0  -0.08151  -0.13315  0  3.952811  0
C  C91  1  0.66310902  0.94985623  0.98930355  1  0  -0.116413  0  3.717546  0  0  -0.135913  0  3.965997  0  0  -0.138196  0  3.985199  0  -0.033251  0  -0.082172  -0.134262  0  3.952974  0
C  C92  1  0.28673329  0.95004109  0.48940753  1  0  -0.115484  0  3.717548  0  0  -0.134994  0  3.965908  0  0  -0.13727  0  3.985129  0  -0.026101  0  -0.081575  -0.133365  0  3.95287  0
C  C93  1  0.33688355  0.05014126  0.01069599  1  0  -0.11643  0  3.717521  0  0  -0.135922  0  3.965967  0  0  -0.138206  0  3.985167  0  -0.033032  0  -0.082169  -0.134269  0  3.952939  0
Br  Br94  1  0.36214787  0.74427133  0.30203093  1  0  -0.426343  0  0.963285  0  0  -0.36878  0  1.248609  0  0  -0.386509  0  1.229284  0  -0.450144  0  -0.231061  -0.356779  0  1.261807  0
Br  Br95  1  0.61856992  0.25532424  0.19788982  1  0  -0.425914  0  0.964114  0  0  -0.368153  0  1.249352  0  0  -0.385925  0  1.230131  0  -0.44984  0  -0.230653  -0.356125  0  1.262485  0
Br  Br96  1  0.63783851  0.25571662  0.69795636  1  0  -0.42636  0  0.963221  0  0  -0.368792  0  1.248523  0  0  -0.386519  0  1.229197  0  -0.450242  0  -0.231067  -0.356793  0  1.261724  0
Br  Br97  1  0.38142728  0.74467683  0.80211025  1  0  -0.425896  0  0.964114  0  0  -0.368127  0  1.249344  0  0  -0.385902  0  1.230124  0  -0.449826  0  -0.230641  -0.356098  0  1.262477  0
N  N98  1  0.19010312  0.10571384  0.31334051  1  0  -0.333871  0  3.283867  0  0  -0.259056  0  3.54837  0  0  -0.281099  0  3.569157  0  -1.255707  0  -0.335588  -0.2441  0  3.533668  0
N  N99  1  0.08404398  0.89372311  0.18663709  1  0  -0.332919  0  3.282327  0  0  -0.258282  0  3.546798  0  0  -0.280292  0  3.567557  0  -1.231604  0  -0.335629  -0.243327  0  3.532105  0
N  N100  1  0.80989431  0.89428484  0.68665998  1  0  -0.33377  0  3.283917  0  0  -0.25897  0  3.548394  0  0  -0.281011  0  3.569175  0  -1.25569  0  -0.335504  -0.244013  0  3.533693  0
N  N101  1  0.91595786  0.10628154  0.81336304  1  0  -0.333039  0  3.282355  0  0  -0.258416  0  3.546825  0  0  -0.280431  0  3.56759  0  -1.231563  0  -0.335676  -0.243458  0  3.532127  0
N  N102  1  0.77598483  0.22936390  0.42334214  1  0  -0.245017  0  3.459983  0  0  -0.164516  0  3.676248  0  0  -0.185351  0  3.697921  0  -1.221791  0  -0.246089  -0.149976  0  3.660694  0
N  N103  1  0.54644866  0.77031874  0.07655031  1  0  -0.246301  0  3.458792  0  0  -0.165706  0  3.675573  0  0  -0.186526  0  3.697183  0  -1.235189  0  -0.24672  -0.151193  0  3.660103  0
N  N104  1  0.22401462  0.77063598  0.57665837  1  0  -0.244941  0  3.459929  0  0  -0.164436  0  3.676195  0  0  -0.185272  0  3.697869  0  -1.221786  0  -0.246037  -0.149895  0  3.660639  0
N  N105  1  0.45355116  0.22968472  0.92345026  1  0  -0.246354  0  3.458707  0  0  -0.165688  0  3.675445  0  0  -0.186506  0  3.697054  0  -1.235029  0  -0.246763  -0.151176  0  3.659977  0
N  N106  1  0.72019868  0.67551881  0.42537871  1  0  -0.320039  0  3.085222  0  0  -0.280544  0  3.351319  0  0  -0.291811  0  3.366532  0  -1.192193  0  -0.326197  -0.272854  0  3.340769  0
N  N107  1  0.04429930  0.32415548  0.07460565  1  0  -0.32071  0  3.085843  0  0  -0.281293  0  3.351744  0  0  -0.292548  0  3.366953  0  -1.189399  0  -0.326457  -0.273606  0  3.341205  0
N  N108  1  0.27980077  0.32448107  0.57462180  1  0  -0.320012  0  3.085135  0  0  -0.280505  0  3.351234  0  0  -0.291774  0  3.366454  0  -1.192103  0  -0.326191  -0.272814  0  3.34068  0
N  N109  1  0.95570015  0.67584440  0.92539439  1  0  -0.320696  0  3.085801  0  0  -0.281282  0  3.351704  0  0  -0.29254  0  3.366916  0  -1.189369  0  -0.326438  -0.273595  0  3.341172  0
