# generated using pymatgen
data_Zn2H25C36(BrN2)4
_symmetry_space_group_name_H-M   'P 1'
_cell_length_a   20.22711489
_cell_length_b   20.66259079
_cell_length_c   20.22190528
_cell_angle_alpha   71.01128669
_cell_angle_beta   72.65724492
_cell_angle_gamma   113.08153551
_symmetry_Int_Tables_number   1
_chemical_formula_structural   Zn2H25C36(BrN2)4
_chemical_formula_sum   'Zn4 H50 C72 Br8 N16'
_cell_volume   6411.69522591
_cell_formula_units_Z   2
loop_
 _symmetry_equiv_pos_site_id
 _symmetry_equiv_pos_as_xyz
  1  'x, y, z'
loop_
 _atom_site_type_symbol
 _atom_site_label
 _atom_site_symmetry_multiplicity
 _atom_site_fract_x
 _atom_site_fract_y
 _atom_site_fract_z
 _atom_site_occupancy
 _atom_site_pbe_bader_charge
 _atom_site_pbe_bader_spin_density
 _atom_site_pbe_cm5_charge
 _atom_site_pbe_ddec_charge
 _atom_site_pbe_ddec_spin_density
 _atom_site_pbe_ddec_sum_bond_order
 _atom_site_pbe_magmom
Zn  Zn0  1  0.09797860  0.61242293  0.97457603  1  1.176453  0  0.790391  0.717888  0  2.238587  0
Zn  Zn1  1  0.88572429  0.38934038  0.00629054  1  1.215534  0  0.757533  0.691155  0  2.202888  0
Zn  Zn2  1  0.96845875  0.59336724  0.90108968  1  1.195331  0  0.744123  0.627667  0  2.454549  0
Zn  Zn3  1  0.02373604  0.40003612  0.07859997  1  1.19443  0  0.743645  0.629298  0  2.480213  0
H  H4  1  0.13111660  0.77613357  0.98165960  1  0.085707  0  0.127801  0.119532  0  0.979642  0
H  H5  1  0.11198419  0.42972378  0.53872846  1  0.062689  0  0.09945  0.086943  0  0.992951  0
H  H6  1  0.98388180  0.36545068  0.50312474  1  0.077729  0  0.099046  0.08677  0  0.993511  0
H  H7  1  0.37534477  0.92831746  0.52809110  1  0.013721  0  0.091055  0.089368  0  0.979265  0
H  H8  1  0.49816742  0.04618366  0.41822878  1  0.02691  0  0.092209  0.091209  0  0.980382  0
H  H9  1  0.60972346  0.97580158  0.51144100  1  0.040753  0  0.091063  0.088986  0  0.98164  0
H  H10  1  0.55536881  0.02492907  0.51364811  1  0.019534  0  0.091747  0.090034  0  0.979047  0
H  H11  1  0.43659190  0.89978781  0.61875454  1  0.012885  0  0.091219  0.089701  0  0.980738  0
H  H12  1  0.48818576  0.84886142  0.60887853  1  0.028481  0  0.091144  0.089284  0  0.978452  0
H  H13  1  0.85188525  0.60559564  0.03143979  1  0.098854  0  0.117932  0.113738  0  1.005645  0
H  H14  1  0.61166861  0.90792321  0.42688305  1  0.037275  0  0.090567  0.088059  0  0.980525  0
H  H15  1  0.96498531  0.39671264  0.83786714  1  0.109708  0  0.116917  0.105122  0  1.032022  0
H  H16  1  0.44250514  0.80954422  0.45458362  1  0.011246  0  0.090466  0.087875  0  0.981763  0
H  H17  1  0.49929795  0.99830124  0.36023733  1  0.018293  0  0.08981  0.087268  0  0.981374  0
H  H18  1  0.37078915  0.88452258  0.46654684  1  0.026098  0  0.090027  0.086482  0  0.98285  0
H  H19  1  0.48291466  0.78622032  0.51866060  1  0.014875  0  0.092107  0.091251  0  0.980705  0
H  H20  1  0.50770691  0.60857043  0.01832429  1  0.078369  0  0.096441  0.113739  0  0.98949  0
H  H21  1  0.35918923  0.38208105  0.16067760  1  0.071904  0  0.097971  0.116967  0  0.980894  0
H  H22  1  0.43668168  0.45667968  0.06029482  1  0.064529  0  0.099947  0.115717  0  0.963639  0
H  H23  1  0.52302999  0.41981132  0.08995445  1  0.110623  0  0.097666  0.088215  0  0.986104  0
H  H24  1  0.95874702  0.38299521  0.24518430  1  0.099379  0  0.122955  0.114961  0  0.994356  0
H  H25  1  0.39952226  0.52667381  0.24036246  1  0.016843  0  0.093028  0.095381  0  0.977693  0
H  H26  1  0.14445923  0.39647662  0.94573417  1  0.140991  0  0.129443  0.130838  0  0.978277  0
H  H27  1  0.35553395  0.42292825  0.26792823  1  0.036474  0  0.093218  0.099959  0  0.979162  0
H  H28  1  0.52753606  0.54545309  0.22320366  1  0.038094  0  0.093598  0.096275  0  0.97347  0
H  H29  1  0.50644038  0.63338430  0.09414787  1  0.031678  0  0.099534  0.109539  0  0.96281  0
H  H30  1  0.62036613  0.62302473  0.07867327  1  0.088464  0  0.104412  0.089179  0  0.961041  0
H  H31  1  0.47324671  0.43815362  0.27708879  1  0.077704  0  0.091895  0.104073  0  0.993406  0
H  H32  1  0.03143111  0.08971918  0.01747736  1  0.08635  0  0.104556  0.091259  0  0.961516  0
H  H33  1  0.00906012  0.96832846  0.02372059  1  0.064755  0  0.100554  0.112009  0  0.962541  0
H  H34  1  0.96789868  0.97269002  0.91784088  1  0.107695  0  0.105645  0.09311  0  0.958988  0
H  H35  1  0.96797775  0.07825325  0.93670463  1  0.068287  0  0.103528  0.116422  0  0.959978  0
H  H36  1  0.22204372  0.10136827  0.85902529  1  0.076063  0  0.096125  0.118517  0  0.976562  0
H  H37  1  0.92071175  0.26367901  0.94002952  1  0.103971  0  0.12417  0.11265  0  0.982871  0
H  H38  1  0.20465650  0.09926761  0.77852343  1  0.068408  0  0.095791  0.116179  0  0.979977  0
H  H39  1  0.11279115  0.00467923  0.99925103  1  0.077194  0  0.100185  0.120319  0  0.979872  0
H  H40  1  0.16726022  0.19525308  0.76439120  1  0.100524  0  0.098554  0.088884  0  0.977057  0
H  H41  1  0.89085499  0.21224683  0.25066657  1  0.101075  0  0.118565  0.109183  0  1.001617  0
H  H42  1  0.10858284  0.66742449  0.72122086  1  0.107883  0  0.1219  0.11086  0  1.004382  0
H  H43  1  0.01394084  0.58432007  0.40434747  1  0.064415  0  0.098927  0.085803  0  0.992346  0
H  H44  1  0.91646818  0.44569967  0.56185326  1  0.066229  0  0.099794  0.087154  0  0.990407  0
H  H45  1  0.57481089  0.92458701  0.35813212  1  0.014286  0  0.089734  0.086702  0  0.98466  0
H  H46  1  0.69066767  0.35077172  0.11347874  1  0.119811  0  0.125926  0.115548  0  0.984398  0
H  H47  1  0.02447849  0.14016606  0.83119617  1  0.099992  0  0.101788  0.12194  0  0.978669  0
H  H48  1  0.25329457  0.64085608  0.83664062  1  0.142131  0  0.113694  0.108522  0  1.039238  0
H  H49  1  0.14709157  0.64097238  0.10830202  1  0.126073  0  0.12453  0.114287  0  0.984786  0
H  H50  1  0.95782948  0.61062182  0.73129470  1  0.101265  0  0.123321  0.114512  0  0.982375  0
H  H51  1  0.14241511  0.64815410  0.44042244  1  0.049986  0  0.097564  0.083646  0  0.995711  0
H  H52  1  0.72592734  0.25820890  0.17726817  1  0.079502  0  0.116731  0.104398  0  1.00992  0
H  H53  1  0.20877990  0.56741243  0.38230065  1  0.053159  0  0.098622  0.08559  0  0.995741  0
C  C54  1  0.09165668  0.76217104  0.95525883  1  0.462044  0  0.021486  -0.033956  0  3.955506  0
C  C55  1  0.20671464  0.64112580  0.82064336  1  0.391573  0  0.018881  -0.032824  0  3.904988  0
C  C56  1  0.17005267  0.43170846  0.10633049  1  0.445045  0  0.076078  0.136811  0  4.014049  0
C  C57  1  0.77829235  0.25974580  0.18258508  1  0.454496  0  0.008129  -0.053358  0  3.971155  0
C  C58  1  0.95327107  0.55670848  0.77053997  1  0.402925  0  0.013878  -0.049713  0  3.961149  0
C  C59  1  0.24801291  0.50048769  0.07611948  1  0.126451  0  -0.043546  -0.057106  0  4.192659  0
C  C60  1  0.97469994  0.50546006  0.75144600  1  0.126068  0  -0.027674  0.047603  0  4.195674  0
C  C61  1  0.21222527  0.67361396  0.74500523  1  0.147461  0  -0.023471  0.06001  0  4.160925  0
C  C62  1  0.04787526  0.31400813  0.92730318  1  0.10917  0  -0.027427  0.039786  0  4.189631  0
C  C63  1  0.98127684  0.47278399  0.52071840  1  -0.03037  0  -0.073396  -0.077742  0  3.641324  0
C  C64  1  0.03516927  0.54999309  0.43555017  1  -0.030751  0  -0.073551  -0.076575  0  3.643401  0
C  C65  1  0.77789019  0.20171317  0.24363331  1  0.105792  0  -0.032815  0.052138  0  4.198073  0
C  C66  1  0.06595699  0.50591791  0.27408618  1  -0.511745  0  -0.06479  -0.117374  0  4.204953  0
C  C67  1  0.00677249  0.50936520  0.67717238  1  -0.466649  0  -0.066655  -0.11887  0  4.209397  0
C  C68  1  0.01847018  0.42825395  0.48993439  1  -0.051411  0  -0.072755  -0.079863  0  3.640652  0
C  C69  1  0.82457753  0.54281335  0.04526648  1  0.426171  0  0.013829  -0.040891  0  3.932579  0
C  C70  1  0.07192251  0.50512081  0.40236031  1  0.132215  0  0.00485  0.134052  0  3.802946  0
C  C71  1  0.08993788  0.46394123  0.50867734  1  -0.013112  0  -0.072058  -0.079781  0  3.631382  0
C  C72  1  0.05224417  0.50858198  0.54147883  1  0.10471  0  0.004178  0.135049  0  3.800989  0
C  C73  1  0.14370340  0.54064411  0.42247034  1  -0.02979  0  -0.073709  -0.08203  0  3.635622  0
C  C74  1  0.10689414  0.58541273  0.45375020  1  -0.0166  0  -0.074061  -0.079965  0  3.64117  0
C  C75  1  0.07439472  0.50438608  0.33181765  1  0.128009  0  -0.059246  -0.130819  0  4.134002  0
C  C76  1  0.74139290  0.47831811  0.09259758  1  0.125247  0  -0.025145  0.051937  0  4.166163  0
C  C77  1  0.03407315  0.50996610  0.61417145  1  0.086469  0  -0.061607  -0.135362  0  4.13777  0
C  C78  1  0.49320618  0.99121369  0.41844165  1  -0.023424  0  -0.155428  -0.186119  0  3.849173  0
C  C79  1  0.55573134  0.97382478  0.50823467  1  -0.026677  0  -0.156693  -0.186254  0  3.860268  0
C  C80  1  0.47542235  0.89174098  0.57515194  1  -0.003234  0  -0.154418  -0.18231  0  3.848176  0
C  C81  1  0.00271383  0.44692348  0.20018525  1  0.416415  0  0.017149  -0.035512  0  3.92117  0
C  C82  1  0.28413251  0.72566215  0.66925251  1  0.072884  0  -0.069577  -0.130404  0  4.197885  0
C  C83  1  0.56613860  0.98716411  0.42498107  1  0.105215  0  -0.00223  0.182328  0  3.901379  0
C  C84  1  0.41004256  0.91364952  0.48875739  1  0.000901  0  -0.153694  -0.180863  0  3.849549  0
C  C85  1  0.42502224  0.85192479  0.53929645  1  0.107227  0  -0.00133  0.181468  0  3.895803  0
C  C86  1  0.47658850  0.83407550  0.48286831  1  0.010923  0  -0.157434  -0.188488  0  3.856676  0
C  C87  1  0.05643313  0.50988868  0.20698416  1  0.144095  0  -0.023954  0.056123  0  4.177387  0
C  C88  1  0.56206149  0.91289957  0.41897947  1  -0.030709  0  -0.155824  -0.184623  0  3.851349  0
C  C89  1  0.34730367  0.77915807  0.60625897  1  -0.43364  0  -0.050856  -0.128527  0  4.083985  0
C  C90  1  0.64369922  0.06248698  0.36178859  1  0.317963  0  -0.054432  -0.129927  0  4.101954  0
C  C91  1  0.70766330  0.12672667  0.30905334  1  -0.671904  0  -0.074815  -0.139437  0  4.220982  0
C  C92  1  0.50307144  0.58684261  0.07769024  1  -0.027766  0  -0.158765  -0.238653  0  3.85286  0
C  C93  1  0.74235729  0.41246439  0.08652161  1  0.432642  0  0.024955  -0.030405  0  3.925155  0
C  C94  1  0.42100705  0.43775337  0.12317346  1  -0.031733  0  -0.160571  -0.239804  0  3.841116  0
C  C95  1  0.48495756  0.42322152  0.13834483  1  -0.043817  0  -0.063932  0.039431  0  3.671495  0
C  C96  1  0.67171220  0.48157849  0.12635626  1  -0.206918  0  -0.057658  -0.09488  0  4.171195  0
C  C97  1  0.41933232  0.50557541  0.13960355  1  0.141094  0  -0.000287  0.202127  0  3.887227  0
C  C98  1  0.25747179  0.55566033  0.00464516  1  0.48043  0  0.073804  0.135785  0  4.047646  0
C  C99  1  0.57379092  0.57502236  0.07631521  1  -0.016618  0  -0.056324  0.044643  0  3.646135  0
C  C100  1  0.54124549  0.49159740  0.14833191  1  0.134419  0  -0.004984  0.123662  0  3.891947  0
C  C101  1  0.48887175  0.49018175  0.22348010  1  -0.074378  0  -0.158815  -0.189914  0  3.846988  0
C  C102  1  0.41009474  0.48457311  0.22383640  1  -0.003756  0  -0.159617  -0.198417  0  3.851292  0
C  C103  1  0.61062007  0.48487193  0.14720944  1  -0.134269  0  -0.071462  -0.15243  0  4.08925  0
C  C104  1  0.35346265  0.51090031  0.12840124  1  0.110282  0  -0.058534  -0.140119  0  4.031901  0
C  C105  1  0.09942711  0.57886414  0.13023340  1  0.39265  0  0.022205  -0.034253  0  3.927363  0
C  C106  1  0.30389351  0.50801399  0.10505121  1  -0.44379  0  -0.06693  -0.085081  0  4.226718  0
C  C107  1  0.07305758  0.01876263  0.97897045  1  -0.045966  0  -0.156871  -0.23731  0  3.846885  0
C  C108  1  0.02764765  0.03042050  0.87720945  1  -0.045692  0  -0.061265  0.026761  0  3.682827  0
C  C109  1  0.95657191  0.44716579  0.82554525  1  0.442923  0  0.016606  -0.027077  0  3.943203  0
C  C110  1  0.02475512  0.10157697  0.88310473  1  -0.071474  0  -0.152677  -0.231764  0  3.839409  0
C  C111  1  0.07592239  0.26878755  0.90306815  1  -0.465499  0  -0.052188  -0.084514  0  4.166639  0
C  C112  1  0.09344675  0.02286672  0.89670537  1  0.13613  0  -0.003259  0.166942  0  3.89007  0
C  C113  1  0.08571506  0.09972926  0.97165517  1  -0.031129  0  -0.06343  0.034524  0  3.676035  0
C  C114  1  0.10038917  0.15595636  0.88889204  1  0.141495  0  -0.004405  0.129873  0  3.883344  0
C  C115  1  0.17561892  0.17592427  0.81690352  1  -0.035484  0  -0.070263  0.030912  0  3.698785  0
C  C116  1  0.18063059  0.10061197  0.83399314  1  -0.035092  0  -0.165953  -0.245135  0  3.858404  0
C  C117  1  0.86204286  0.23553399  0.22068398  1  0.416898  0  0.014932  -0.049935  0  3.943237  0
C  C118  1  0.09570967  0.22450573  0.88823629  1  0.132701  0  -0.069651  -0.146267  0  4.107764  0
C  C119  1  0.08767412  0.94847700  0.90369888  1  -0.105378  0  -0.050756  -0.111975  0  4.065913  0
C  C120  1  0.13175304  0.65439277  0.76252461  1  0.432896  0  0.02444  -0.024173  0  3.908868  0
C  C121  1  0.07571107  0.88272774  0.91377227  1  -0.24886  0  -0.06363  -0.103908  0  4.192769  0
C  C122  1  0.01393262  0.75942259  0.89814156  1  0.436578  0  0.085313  0.131127  0  4.009169  0
C  C123  1  0.06150927  0.80750194  0.92235358  1  0.149807  0  -0.030075  0.008535  0  4.183387  0
C  C124  1  0.08480078  0.37140927  0.94855548  1  0.444836  0  0.02346  -0.027361  0  3.899735  0
C  C125  1  0.96982034  0.30315793  0.94644868  1  0.39743  0  0.019099  -0.04613  0  3.966301  0
Br  Br126  1  0.11087858  0.33153934  0.20156427  1  -0.038978  0  0.034472  -0.059385  0  1.379212  0
Br  Br127  1  0.63856177  0.58836258  0.97142669  1  -0.171441  0  -0.045497  -0.158819  0  1.24779  0
Br  Br128  1  0.43235418  0.31472753  0.23321993  1  -0.172684  0  -0.050964  -0.159919  0  1.227492  0
Br  Br129  1  0.04806877  0.04244401  0.77036290  1  -0.155291  0  -0.036999  -0.147527  0  1.252277  0
Br  Br130  1  0.28209066  0.27171763  0.78141335  1  -0.136431  0  -0.052007  -0.145093  0  1.27111  0
Br  Br131  1  0.17194029  0.15142628  0.99759473  1  -0.141391  0  -0.044413  -0.142527  0  1.272856  0
Br  Br132  1  0.95159814  0.77840365  0.85145249  1  0.000869  0  0.054488  -0.037688  0  1.387236  0
Br  Br133  1  0.34734863  0.66390010  0.93108585  1  -0.074258  0  0.00677  -0.085155  0  1.344675  0
N  N134  1  0.06493819  0.69426630  0.94990071  1  -0.803903  0  -0.273679  -0.185849  0  3.569494  0
N  N135  1  0.87084938  0.51730106  0.01297880  1  -0.813386  0  -0.287521  -0.214346  0  3.587134  0
N  N136  1  0.01377374  0.47550537  0.12497439  1  -0.752257  0  -0.278587  -0.210339  0  3.495754  0
N  N137  1  0.81954268  0.43689732  0.03840403  1  -0.790886  0  -0.272822  -0.176284  0  3.59095  0
N  N138  1  0.07336670  0.55693233  0.08263930  1  -0.823705  0  -0.295449  -0.187749  0  3.722561  0
N  N139  1  0.90755514  0.30680154  0.15107277  1  -0.799233  0  -0.279588  -0.171153  0  3.621675  0
N  N140  1  0.01667998  0.69262671  0.91420027  1  -0.768662  0  -0.270864  -0.220828  0  3.566718  0
N  N141  1  0.19367723  0.52420674  0.99277931  1  -0.709931  0  -0.262119  -0.272147  0  3.275388  0
N  N142  1  0.92663644  0.46216801  0.88361919  1  -0.811541  0  -0.276106  -0.219439  0  3.562696  0
N  N143  1  0.08293894  0.61550900  0.84208237  1  -0.798857  0  -0.279759  -0.188117  0  3.600285  0
N  N144  1  0.03223031  0.39200886  0.97881927  1  -0.804294  0  -0.279727  -0.198854  0  3.538258  0
N  N145  1  0.96158675  0.34980433  0.97709150  1  -0.785456  0  -0.275006  -0.182331  0  3.599238  0
N  N146  1  0.12884520  0.60703896  0.87807345  1  -0.805333  0  -0.297978  -0.210631  0  3.670262  0
N  N147  1  0.13901770  0.44580319  0.05683196  1  -0.810316  0  -0.290441  -0.232714  0  3.630093  0
N  N148  1  0.92445389  0.53052084  0.84962050  1  -0.789916  0  -0.288817  -0.200124  0  3.531947  0
N  N149  1  0.85606702  0.32210710  0.12746171  1  -0.80837  0  -0.274329  -0.216377  0  3.546139  0
