# generated using pymatgen
data_ErH24C36(NO2)3
_symmetry_space_group_name_H-M   'P 1'
_cell_length_a   9.36056920
_cell_length_b   19.93396094
_cell_length_c   19.93394230
_cell_angle_alpha   86.11185080
_cell_angle_beta   76.45089195
_cell_angle_gamma   76.45071452
_symmetry_Int_Tables_number   1
_chemical_formula_structural   ErH24C36(NO2)3
_chemical_formula_sum   'Er4 H96 C144 N12 O24'
_cell_volume   3515.05482274
_cell_formula_units_Z   4
loop_
 _symmetry_equiv_pos_site_id
 _symmetry_equiv_pos_as_xyz
  1  'x, y, z'
loop_
 _atom_site_type_symbol
 _atom_site_label
 _atom_site_symmetry_multiplicity
 _atom_site_fract_x
 _atom_site_fract_y
 _atom_site_fract_z
 _atom_site_occupancy
 _atom_site_pbe_bader_charge
 _atom_site_pbe_bader_spin_density
 _atom_site_pbe_cm5_charge
 _atom_site_pbe_ddec_charge
 _atom_site_pbe_ddec_spin_density
 _atom_site_pbe_ddec_sum_bond_order
 _atom_site_pbe_magmom
Er  Er0  1  0.78039974  0.96975771  0.46962964  1  2.156459  0  1.542568  2.016491  0  2.282711  0
Er  Er1  1  0.71960032  0.53037120  0.03024293  1  2.156551  0  1.542625  2.016523  0  2.282601  0
Er  Er2  1  0.21959903  0.03024245  0.53037134  1  2.156533  0  1.54257  2.016473  0  2.282694  0
Er  Er3  1  0.28039334  0.46963257  0.96975537  1  2.156452  0  1.542573  2.016488  0  2.282595  0
H  H4  1  0.70224898  0.16965949  0.35872944  1  0.083484  0  0.105513  0.10943  0  1.008936  0
H  H5  1  0.76834958  0.85873072  0.66980121  1  0.083788  0  0.1056  0.109568  0  1.00824  0
H  H6  1  0.79774596  0.64127391  0.83033586  1  0.083707  0  0.105505  0.109416  0  1.008847  0
H  H7  1  0.73164553  0.33020473  0.14126595  1  0.08367  0  0.105625  0.109606  0  1.008118  0
H  H8  1  0.29775366  0.83033964  0.64127620  1  0.083354  0  0.105501  0.10939  0  1.00892  0
H  H9  1  0.23165131  0.14126737  0.33020017  1  0.083566  0  0.105607  0.109573  0  1.008168  0
H  H10  1  0.20225140  0.35872005  0.16966018  1  0.083341  0  0.105479  0.10931  0  1.009001  0
H  H11  1  0.26835310  0.66980007  0.85873021  1  0.083909  0  0.105616  0.109571  0  1.008221  0
H  H12  1  0.24480350  0.19198657  0.47507880  1  0.160207  0  0.112193  0.116536  0  1.034711  0
H  H13  1  0.08791497  0.97486525  0.69197772  1  0.116742  0  0.113061  0.117625  0  1.033877  0
H  H14  1  0.25518915  0.52491925  0.80801431  1  0.160318  0  0.112191  0.116517  0  1.034646  0
H  H15  1  0.41208176  0.30802310  0.02513214  1  0.116748  0  0.113057  0.117635  0  1.033836  0
H  H16  1  0.75519577  0.80801256  0.52492119  1  0.160252  0  0.112183  0.116537  0  1.034622  0
H  H17  1  0.91208455  0.02513336  0.30802177  1  0.116784  0  0.113077  0.117682  0  1.033827  0
H  H18  1  0.74481029  0.47507730  0.19198534  1  0.160237  0  0.112192  0.116525  0  1.03462  0
H  H19  1  0.58791512  0.69197861  0.97486644  1  0.116792  0  0.113076  0.11761  0  1.033862  0
H  H20  1  0.64246548  0.29194081  0.31806183  1  0.091979  0  0.099708  0.10112  0  1.01766  0
H  H21  1  0.74684743  0.81806850  0.79206991  1  0.081944  0  0.09956  0.100442  0  1.019882  0
H  H22  1  0.85753910  0.68193940  0.70805372  1  0.09204  0  0.09968  0.101088  0  1.017686  0
H  H23  1  0.75315198  0.20793615  0.18193129  1  0.081981  0  0.099523  0.100394  0  1.019772  0
H  H24  1  0.35754067  0.70805780  0.68194044  1  0.09213  0  0.099673  0.101112  0  1.017668  0
H  H25  1  0.25315025  0.18193165  0.20793169  1  0.081959  0  0.0996  0.10047  0  1.019878  0
H  H26  1  0.14246299  0.31805612  0.29194168  1  0.091965  0  0.099636  0.101086  0  1.017605  0
H  H27  1  0.24684887  0.79206865  0.81806713  1  0.08192  0  0.09956  0.100409  0  1.019881  0
H  H28  1  0.18413847  0.31369681  0.43516222  1  0.061178  0  0.098081  0.096714  0  1.034935  0
H  H29  1  0.06689466  0.93506819  0.81371778  1  0.052918  0  0.098099  0.09652  0  1.034273  0
H  H30  1  0.31586426  0.56483586  0.68630454  1  0.061179  0  0.098082  0.096735  0  1.03492  0
H  H31  1  0.43310991  0.18628211  0.06493105  1  0.052942  0  0.098075  0.096502  0  1.034248  0
H  H32  1  0.81586432  0.68630180  0.56483490  1  0.061145  0  0.098082  0.096731  0  1.034916  0
H  H33  1  0.93310899  0.06493094  0.18628072  1  0.052885  0  0.098072  0.096465  0  1.034269  0
H  H34  1  0.68413857  0.43516275  0.31369610  1  0.061217  0  0.098109  0.096786  0  1.034853  0
H  H35  1  0.56689054  0.81371909  0.93506817  1  0.052913  0  0.098096  0.096532  0  1.034222  0
H  H36  1  0.51356043  0.36748315  0.24650044  1  0.060512  0  0.101721  0.104965  0  1.038595  0
H  H37  1  0.87222185  0.74647453  0.86756240  1  0.066038  0  0.101717  0.105129  0  1.038788  0
H  H38  1  0.98644287  0.75349874  0.63251422  1  0.060612  0  0.101715  0.104997  0  1.038563  0
H  H39  1  0.62778161  0.13244031  0.25352401  1  0.066194  0  0.101766  0.105248  0  1.038895  0
H  H40  1  0.48644121  0.63251340  0.75349896  1  0.060578  0  0.101705  0.10499  0  1.03862  0
H  H41  1  0.12777634  0.25352460  0.13243922  1  0.066068  0  0.101761  0.105187  0  1.038781  0
H  H42  1  0.01355416  0.24649832  0.36748967  1  0.060598  0  0.101699  0.105001  0  1.038641  0
H  H43  1  0.37222187  0.86756139  0.74647433  1  0.0662  0  0.101709  0.105116  0  1.038766  0
H  H44  1  0.21680637  0.42227233  0.44582819  1  0.083227  0  0.105216  0.111973  0  1.001339  0
H  H45  1  0.91466370  0.94593480  0.92236804  1  0.079506  0  0.105442  0.112137  0  1.001853  0
H  H46  1  0.28320068  0.55417173  0.57772447  1  0.08321  0  0.105204  0.111997  0  1.001306  0
H  H47  1  0.58534030  0.07763386  0.05406434  1  0.079469  0  0.105435  0.112106  0  1.001872  0
H  H48  1  0.78319799  0.57772319  0.55417248  1  0.08325  0  0.10521  0.111994  0  1.001319  0
H  H49  1  0.08533998  0.05406433  0.07763196  1  0.079485  0  0.105429  0.112106  0  1.001858  0
H  H50  1  0.71680187  0.44582740  0.42227415  1  0.083241  0  0.105221  0.11202  0  1.001348  0
H  H51  1  0.41466454  0.92236733  0.94593438  1  0.079503  0  0.105456  0.112141  0  1.001868  0
H  H52  1  0.45429348  0.49152279  0.21319771  1  0.108579  0  0.11601  0.096184  0  1.014294  0
H  H53  1  0.84093417  0.71321408  0.99163018  1  0.102206  0  0.115711  0.094614  0  1.015194  0
H  H54  1  0.04571191  0.78680226  0.50847589  1  0.108581  0  0.116002  0.096131  0  1.01432  0
H  H55  1  0.65906816  0.00837344  0.28678586  1  0.102222  0  0.115696  0.094575  0  1.015247  0
H  H56  1  0.54571182  0.50847531  0.78680368  1  0.108527  0  0.116034  0.096234  0  1.014253  0
H  H57  1  0.15905996  0.28678659  0.00837179  1  0.102218  0  0.115724  0.094595  0  1.015198  0
H  H58  1  0.95428081  0.21319686  0.49152785  1  0.108545  0  0.116018  0.096176  0  1.014289  0
H  H59  1  0.34093128  0.99162982  0.71321433  1  0.102194  0  0.115741  0.094699  0  1.015135  0
H  H60  1  0.16194541  0.54345666  0.40227723  1  0.073999  0  0.108508  0.073801  0  0.99257  0
H  H61  1  0.89191433  0.90246651  0.04359322  1  0.075083  0  0.108745  0.073501  0  0.991758  0
H  H62  1  0.33806299  0.59772339  0.45653994  1  0.074087  0  0.108503  0.073815  0  0.992555  0
H  H63  1  0.60809136  0.95640925  0.09753299  1  0.074916  0  0.108741  0.073482  0  0.991816  0
H  H64  1  0.83805955  0.45653989  0.59772381  1  0.073915  0  0.108485  0.073787  0  0.992575  0
H  H65  1  0.10808664  0.09753365  0.95640701  1  0.07501  0  0.10872  0.073465  0  0.991772  0
H  H66  1  0.66193719  0.40227832  0.54345827  1  0.074067  0  0.108484  0.073749  0  0.992613  0
H  H67  1  0.39191323  0.04359246  0.90246673  1  0.074959  0  0.108746  0.07348  0  0.991792  0
H  H68  1  0.84071708  0.88394872  0.24052159  1  0.130123  0  0.100757  0.10013  0  1.042858  0
H  H69  1  0.03526932  0.74053275  0.38410817  1  0.091641  0  0.100395  0.098855  0  1.044343  0
H  H70  1  0.65928793  0.75947998  0.11605284  1  0.130087  0  0.10076  0.100112  0  1.042821  0
H  H71  1  0.46473493  0.61589252  0.25946684  1  0.091718  0  0.100396  0.098817  0  1.044377  0
H  H72  1  0.15928365  0.11605195  0.75948014  1  0.130137  0  0.100786  0.100139  0  1.042781  0
H  H73  1  0.96473030  0.25946793  0.61589268  1  0.091683  0  0.100391  0.098811  0  1.044364  0
H  H74  1  0.34071261  0.24052328  0.88394722  1  0.130433  0  0.100766  0.100137  0  1.042851  0
H  H75  1  0.53526635  0.38410919  0.74053124  1  0.091654  0  0.100393  0.098845  0  1.044342  0
H  H76  1  0.93028013  0.79424634  0.15048129  1  0.09311  0  0.100279  0.100249  0  1.038677  0
H  H77  1  0.12494382  0.65034617  0.29457276  1  0.093201  0  0.100556  0.100327  0  1.038496  0
H  H78  1  0.56972177  0.84951996  0.20575572  1  0.093063  0  0.100286  0.100274  0  1.038659  0
H  H79  1  0.37505824  0.70542712  0.34965439  1  0.093211  0  0.100567  0.100365  0  1.038462  0
H  H80  1  0.06971925  0.20575485  0.84952056  1  0.093082  0  0.100293  0.100271  0  1.038629  0
H  H81  1  0.87505749  0.34965554  0.70542783  1  0.093179  0  0.100569  0.100354  0  1.038449  0
H  H82  1  0.43027353  0.15048278  0.79424497  1  0.093105  0  0.100258  0.100197  0  1.038721  0
H  H83  1  0.62493805  0.29457356  0.65034432  1  0.093235  0  0.100552  0.100383  0  1.038417  0
H  H84  1  0.91273974  0.70258041  0.10572363  1  0.108802  0  0.106414  0.110406  0  1.062352  0
H  H85  1  0.27843235  0.60560779  0.20292437  1  0.100471  0  0.106784  0.110983  0  1.063439  0
H  H86  1  0.58725988  0.89427672  0.29742249  1  0.109145  0  0.106433  0.110406  0  1.06236  0
H  H87  1  0.22156816  0.79707570  0.39439252  1  0.100493  0  0.106747  0.11097  0  1.063394  0
H  H88  1  0.08726215  0.29742233  0.89427632  1  0.10911  0  0.106408  0.110365  0  1.062374  0
H  H89  1  0.72156752  0.39439237  0.79707598  1  0.100386  0  0.10678  0.110989  0  1.063376  0
H  H90  1  0.41273644  0.10572396  0.70257823  1  0.10911  0  0.106424  0.11039  0  1.062351  0
H  H91  1  0.77843011  0.20292549  0.60560895  1  0.100426  0  0.106749  0.110919  0  1.063379  0
H  H92  1  0.00885086  0.61087140  0.01882486  1  0.068328  0  0.119189  0.071557  0  1.04678  0
H  H93  1  0.36165782  0.51895155  0.11098351  1  0.075214  0  0.119824  0.07255  0  1.047369  0
H  H94  1  0.49114518  0.98117653  0.38913185  1  0.068275  0  0.119216  0.071569  0  1.046768  0
H  H95  1  0.13833873  0.88901639  0.48104925  1  0.075173  0  0.119802  0.072503  0  1.04738  0
H  H96  1  0.99114910  0.38913083  0.98117584  1  0.068241  0  0.119201  0.07157  0  1.04678  0
H  H97  1  0.63833876  0.48104861  0.88901772  1  0.075198  0  0.119795  0.072483  0  1.04735  0
H  H98  1  0.50885334  0.01882414  0.61086963  1  0.068327  0  0.119192  0.071567  0  1.046752  0
H  H99  1  0.86165979  0.11098428  0.51895172  1  0.075213  0  0.119808  0.072519  0  1.04732  0
C  C100  1  0.51372477  0.09973519  0.44209290  1  1.606909  0  0.239788  0.658417  0  4.147245  0
C  C101  1  0.94397923  0.94194868  0.59977054  1  1.572249  0  0.240049  0.65928  0  4.147324  0
C  C102  1  0.98626098  0.55790972  0.90026244  1  1.607136  0  0.239749  0.65834  0  4.147417  0
C  C103  1  0.55601293  0.40023396  0.05804842  1  1.573108  0  0.240178  0.659233  0  4.147785  0
C  C104  1  0.48626743  0.90026496  0.55791032  1  1.607039  0  0.239722  0.658201  0  4.147635  0
C  C105  1  0.05602115  0.05805044  0.40022983  1  1.572236  0  0.240086  0.659368  0  4.147424  0
C  C106  1  0.01373005  0.44209044  0.09973440  1  1.607  0  0.239712  0.658235  0  4.147579  0
C  C107  1  0.44397937  0.59977033  0.94194899  1  1.57233  0  0.240047  0.659304  0  4.147252  0
C  C108  1  0.47696696  0.17310465  0.41836488  1  -0.127453  0  -0.014846  -0.044778  0  3.946895  0
C  C109  1  0.93091453  0.91830121  0.67316856  1  -0.067355  0  -0.01432  -0.043897  0  3.946131  0
C  C110  1  0.02302752  0.58163637  0.82689330  1  -0.127348  0  -0.014788  -0.044813  0  3.946935  0
C  C111  1  0.56907951  0.32683419  0.08169664  1  -0.067182  0  -0.014492  -0.044038  0  3.946263  0
C  C112  1  0.52303674  0.82689447  0.58163763  1  -0.12696  0  -0.01484  -0.044732  0  3.94705  0
C  C113  1  0.06908416  0.08169688  0.32683207  1  -0.06735  0  -0.014412  -0.04404  0  3.946272  0
C  C114  1  0.97697020  0.41835914  0.17310410  1  -0.126803  0  -0.01479  -0.044782  0  3.946954  0
C  C115  1  0.43091439  0.67316907  0.91830066  1  -0.067376  0  -0.014391  -0.044019  0  3.946183  0
C  C116  1  0.58858030  0.20166245  0.37421320  1  -0.057598  0  -0.081427  -0.082764  0  3.975576  0
C  C117  1  0.83472359  0.87419470  0.70176780  1  -0.052152  0  -0.081737  -0.084085  0  3.975362  0
C  C118  1  0.91141847  0.62578869  0.79833366  1  -0.057996  0  -0.081416  -0.082654  0  3.975471  0
C  C119  1  0.66527381  0.29823489  0.12580476  1  -0.051718  0  -0.081729  -0.084061  0  3.975287  0
C  C120  1  0.41142232  0.79833668  0.62579043  1  -0.058105  0  -0.081396  -0.082663  0  3.975512  0
C  C121  1  0.16527678  0.12580442  0.29823207  1  -0.051902  0  -0.081732  -0.084022  0  3.975258  0
C  C122  1  0.08858059  0.37420631  0.20166213  1  -0.058192  0  -0.081377  -0.082543  0  3.975687  0
C  C123  1  0.33472775  0.70176630  0.87419483  1  -0.052244  0  -0.0817  -0.084037  0  3.975239  0
C  C124  1  0.33123523  0.21407651  0.44049261  1  -0.0792  0  -0.074462  -0.072789  0  3.941591  0
C  C125  1  0.01378564  0.94037938  0.71412140  1  -0.06724  0  -0.075667  -0.075036  0  3.940644  0
C  C126  1  0.16875915  0.55950778  0.78592131  1  -0.079346  0  -0.074487  -0.072732  0  3.94158  0
C  C127  1  0.48621381  0.28588058  0.05961856  1  -0.067668  0  -0.07558  -0.074958  0  3.940456  0
C  C128  1  0.66876322  0.78592210  0.55950902  1  -0.079182  0  -0.074398  -0.072713  0  3.941663  0
C  C129  1  0.98621524  0.05961872  0.28587898  1  -0.06732  0  -0.07564  -0.07508  0  3.940564  0
C  C130  1  0.83123917  0.44048877  0.21407696  1  -0.079073  0  -0.074477  -0.072726  0  3.941524  0
C  C131  1  0.51378478  0.71412216  0.94038076  1  -0.067308  0  -0.075638  -0.074955  0  3.940518  0
C  C132  1  0.55447135  0.26984060  0.35150716  1  -0.02365  0  -0.08959  -0.132416  0  3.971708  0
C  C133  1  0.82351487  0.85150134  0.76994239  1  0.004352  0  -0.089034  -0.130284  0  3.97165  0
C  C134  1  0.94553105  0.64849370  0.73015618  1  -0.023663  0  -0.089629  -0.13249  0  3.971737  0
C  C135  1  0.67648520  0.23006316  0.14849719  1  0.00723  0  -0.088997  -0.130245  0  3.9717  0
C  C136  1  0.44553455  0.73015853  0.64849460  1  -0.023602  0  -0.089663  -0.132576  0  3.971839  0
C  C137  1  0.17648552  0.14849779  0.23005848  1  0.004357  0  -0.089083  -0.13035  0  3.971703  0
C  C138  1  0.05446776  0.35150182  0.26984010  1  -0.023509  0  -0.089619  -0.132552  0  3.971838  0
C  C139  1  0.32351598  0.76994320  0.85150059  1  0.004731  0  -0.089062  -0.130237  0  3.971662  0
C  C140  1  0.29811812  0.28247142  0.41837241  1  -0.011899  0  -0.090544  -0.135253  0  3.974323  0
C  C141  1  0.00070713  0.91830195  0.78252368  1  0.019101  0  -0.089779  -0.133444  0  3.974268  0
C  C142  1  0.20188266  0.58162643  0.71752827  1  -0.011854  0  -0.090552  -0.135304  0  3.974419  0
C  C143  1  0.49929644  0.21747594  0.08169757  1  0.01914  0  -0.089826  -0.133546  0  3.974228  0
C  C144  1  0.70188224  0.71752771  0.58162696  1  -0.011927  0  -0.090564  -0.135346  0  3.974453  0
C  C145  1  0.99929459  0.08169666  0.21747557  1  0.019287  0  -0.08976  -0.13335  0  3.974087  0
C  C146  1  0.79812226  0.41837012  0.28246976  1  -0.012057  0  -0.090602  -0.13546  0  3.974414  0
C  C147  1  0.50070588  0.78252370  0.91830254  1  0.019118  0  -0.089819  -0.133509  0  3.974157  0
C  C148  1  0.40841673  0.31128679  0.37326132  1  -0.004965  0  -0.003896  0.068656  0  3.994004  0
C  C149  1  0.90659542  0.87325085  0.81137861  1  -0.044133  0  -0.004988  0.067451  0  3.994879  0
C  C150  1  0.09158579  0.62673873  0.68871104  1  -0.005004  0  -0.003871  0.068666  0  3.993894  0
C  C151  1  0.59340422  0.18862535  0.12674706  1  -0.047346  0  -0.004954  0.067469  0  3.995029  0
C  C152  1  0.59158552  0.68871079  0.62673945  1  -0.005056  0  -0.003819  0.068777  0  3.993931  0
C  C153  1  0.09340605  0.12674828  0.18862113  1  -0.044164  0  -0.004964  0.067471  0  3.994856  0
C  C154  1  0.90841609  0.37325730  0.31128787  1  -0.005014  0  -0.003846  0.068784  0  3.993923  0
C  C155  1  0.40659323  0.81137739  0.87324988  1  -0.044519  0  -0.004975  0.067442  0  3.99502  0
C  C156  1  0.37137453  0.38376691  0.34984523  1  -0.025729  0  0.004752  0.09817  0  4.010229  0
C  C157  1  0.89460805  0.84988963  0.88388171  1  -0.032682  0  0.004191  0.096013  0  4.01151  0
C  C158  1  0.12863262  0.65015471  0.61622995  1  -0.025554  0  0.004784  0.098296  0  4.010233  0
C  C159  1  0.60539527  0.11612196  0.15010894  1  -0.033129  0  0.004257  0.096206  0  4.01127  0
C  C160  1  0.62862821  0.61622963  0.65015505  1  -0.025632  0  0.004727  0.098292  0  4.010166  0
C  C161  1  0.10539260  0.15010898  0.11612017  1  -0.032842  0  0.004189  0.096012  0  4.01146  0
C  C162  1  0.87136935  0.34984339  0.38376931  1  -0.025948  0  0.004814  0.098381  0  4.010113  0
C  C163  1  0.39460855  0.88388129  0.84988925  1  -0.032642  0  0.004198  0.096036  0  4.011355  0
C  C164  1  0.43639155  0.40481412  0.28334977  1  -0.064145  0  -0.087336  -0.17846  0  3.95107  0
C  C165  1  0.87511134  0.78337107  0.90492402  1  -0.006342  0  -0.087134  -0.17853  0  3.949001  0
C  C166  1  0.06361402  0.71664974  0.59518427  1  -0.064154  0  -0.0874  -0.178745  0  3.951062  0
C  C167  1  0.62489249  0.09507866  0.21662980  1  -0.006674  0  -0.087203  -0.178696  0  3.94903  0
C  C168  1  0.56361043  0.59518398  0.71664999  1  -0.064059  0  -0.087406  -0.178801  0  3.951  0
C  C169  1  0.12488938  0.21662960  0.09507670  1  -0.006361  0  -0.087147  -0.178554  0  3.948913  0
C  C170  1  0.93638604  0.28334783  0.40481775  1  -0.064247  0  -0.08745  -0.178894  0  3.951071  0
C  C171  1  0.37511024  0.90492460  0.78337002  1  -0.006516  0  -0.087163  -0.178554  0  3.94894  0
C  C172  1  0.26983373  0.43503210  0.39320139  1  -0.069579  0  -0.091571  -0.189331  0  3.974096  0
C  C173  1  0.90149099  0.89330807  0.93512661  1  -0.056507  0  -0.091789  -0.189514  0  3.972902  0
C  C174  1  0.23017341  0.60679788  0.56496549  1  -0.069623  0  -0.091596  -0.189431  0  3.974073  0
C  C175  1  0.59851130  0.06487569  0.10669066  1  -0.056028  0  -0.091811  -0.189509  0  3.972793  0
C  C176  1  0.73017147  0.56496393  0.60679865  1  -0.069609  0  -0.091591  -0.189458  0  3.974169  0
C  C177  1  0.09850802  0.10669157  0.06487288  1  -0.056474  0  -0.091798  -0.189504  0  3.972916  0
C  C178  1  0.76982939  0.39320073  0.43503263  1  -0.069717  0  -0.091628  -0.189519  0  3.974053  0
C  C179  1  0.40149304  0.93512654  0.89330805  1  -0.056517  0  -0.091803  -0.189514  0  3.972951  0
C  C180  1  0.40113693  0.47420624  0.26414303  1  0.544788  0  0.042527  0.089743  0  3.964854  0
C  C181  1  0.86027317  0.76419315  0.97432403  1  0.473239  0  0.043333  0.092485  0  3.961395  0
C  C182  1  0.09887048  0.73585707  0.52579094  1  0.544836  0  0.042614  0.089998  0  3.964692  0
C  C183  1  0.63972935  0.02567779  0.23580580  1  0.473271  0  0.043365  0.092508  0  3.961544  0
C  C184  1  0.59886668  0.52579083  0.73585862  1  0.544806  0  0.042618  0.089962  0  3.964563  0
C  C185  1  0.13972315  0.23580753  0.02567719  1  0.473192  0  0.043297  0.092469  0  3.961318  0
C  C186  1  0.90112796  0.26414154  0.47421069  1  0.545351  0  0.042633  0.090009  0  3.964524  0
C  C187  1  0.36027134  0.97432289  0.76419242  1  0.473153  0  0.043258  0.092371  0  3.96141  0
C  C188  1  0.24045736  0.50297377  0.36903750  1  0.504996  0  0.035639  0.07787  0  4.046826  0
C  C189  1  0.88714662  0.86916762  0.00309852  1  0.46447  0  0.035639  0.079145  0  4.042532  0
C  C190  1  0.25954976  0.63096331  0.49702325  1  0.504956  0  0.035747  0.077947  0  4.04688  0
C  C191  1  0.61285570  0.99690361  0.13083154  1  0.464853  0  0.035557  0.079005  0  4.042579  0
C  C192  1  0.75954733  0.49702329  0.63096303  1  0.504757  0  0.035707  0.077958  0  4.04682  0
C  C193  1  0.11285216  0.13083254  0.99690246  1  0.46455  0  0.035636  0.079135  0  4.042587  0
C  C194  1  0.74044876  0.36903736  0.50297722  1  0.505101  0  0.035821  0.078106  0  4.046801  0
C  C195  1  0.38714609  0.00309706  0.86916706  1  0.464501  0  0.035602  0.079113  0  4.042724  0
C  C196  1  0.87859089  0.87159524  0.37161066  1  1.502171  0  0.193853  0.573644  0  4.206835  0
C  C197  1  0.62141473  0.62838965  0.12840564  1  1.502103  0  0.193849  0.573709  0  4.206802  0
C  C198  1  0.12140822  0.12840647  0.62839017  1  1.502066  0  0.1939  0.573731  0  4.206802  0
C  C199  1  0.37858546  0.37161206  0.87159307  1  1.502053  0  0.193944  0.57379  0  4.206623  0
C  C200  1  0.93230062  0.81784495  0.31794434  1  0.015692  0  -0.018224  -0.028551  0  3.971609  0
C  C201  1  0.56770514  0.68205683  0.18215643  1  0.015597  0  -0.018253  -0.02866  0  3.971758  0
C  C202  1  0.06769985  0.18215624  0.68205688  1  0.015745  0  -0.018308  -0.028712  0  3.971759  0
C  C203  1  0.43229505  0.31794488  0.81784228  1  0.015724  0  -0.018311  -0.028672  0  3.971827  0
C  C204  1  0.90316612  0.83271801  0.25201152  1  -0.077969  0  -0.081775  -0.083733  0  3.964415  0
C  C205  1  0.01240698  0.75194805  0.33289301  1  -0.025571  0  -0.081541  -0.082391  0  3.964528  0
C  C206  1  0.59683758  0.74798944  0.16728368  1  -0.077794  0  -0.081761  -0.083624  0  3.964116  0
C  C207  1  0.48759955  0.66710709  0.24805120  1  -0.025579  0  -0.081497  -0.082264  0  3.964471  0
C  C208  1  0.09683300  0.16728370  0.74798982  1  -0.077926  0  -0.081799  -0.083677  0  3.964118  0
C  C209  1  0.98759535  0.24805159  0.66710861  1  -0.02555  0  -0.081489  -0.082255  0  3.964577  0
C  C210  1  0.40315940  0.25201433  0.83271625  1  -0.078264  0  -0.081754  -0.083674  0  3.964234  0
C  C211  1  0.51239954  0.33289462  0.75194763  1  -0.025569  0  -0.08154  -0.082393  0  3.964609  0
C  C212  1  0.95300436  0.78226846  0.20175473  1  -0.045972  0  -0.085811  -0.12182  0  3.949822  0
C  C213  1  0.06300824  0.70160855  0.28251720  1  -0.03533  0  -0.086085  -0.122352  0  3.948971  0
C  C214  1  0.54699942  0.79824696  0.21773227  1  -0.046094  0  -0.085803  -0.121841  0  3.949603  0
C  C215  1  0.43699471  0.71748427  0.29839171  1  -0.035157  0  -0.08617  -0.122491  0  3.949043  0
C  C216  1  0.04699611  0.21773273  0.79824599  1  -0.046013  0  -0.085797  -0.121772  0  3.949691  0
C  C217  1  0.93699357  0.29839213  0.71748340  1  -0.035313  0  -0.08608  -0.122353  0  3.948985  0
C  C218  1  0.45299637  0.20175474  0.78226693  1  -0.046152  0  -0.085775  -0.121711  0  3.949608  0
C  C219  1  0.56300166  0.28251847  0.70160636  1  -0.035226  0  -0.086049  -0.122397  0  3.948928  0
C  C220  1  0.03375174  0.71603834  0.21628047  1  -0.10388  0  0.000186  0.074419  0  3.967783  0
C  C221  1  0.46624960  0.78371976  0.28396342  1  -0.103932  0  0.000223  0.074451  0  3.967922  0
C  C222  1  0.96625009  0.28396234  0.78372064  1  -0.103925  0  0.000148  0.07429  0  3.967964  0
C  C223  1  0.53374426  0.21628144  0.71603704  1  -0.103868  0  0.000181  0.07442  0  3.967846  0
C  C224  1  0.08706013  0.66264250  0.16288373  1  -0.004002  0  0.014325  0.117901  0  3.956917  0
C  C225  1  0.41294068  0.83711663  0.33735864  1  -0.004045  0  0.014317  0.117844  0  3.957171  0
C  C226  1  0.91294059  0.33735818  0.83711700  1  -0.003979  0  0.014323  0.117879  0  3.957079  0
C  C227  1  0.58705783  0.16288405  0.66264133  1  -0.003917  0  0.014326  0.117831  0  3.957173  0
C  C228  1  0.01289421  0.66303944  0.10921633  1  0.008013  0  -0.080888  -0.164596  0  3.909562  0
C  C229  1  0.21453555  0.60908967  0.16328473  1  -0.04218  0  -0.082425  -0.167016  0  3.912153  0
C  C230  1  0.48710384  0.89078407  0.33696287  1  0.007956  0  -0.080849  -0.164528  0  3.909627  0
C  C231  1  0.28546618  0.83671555  0.39091057  1  -0.042154  0  -0.082418  -0.167017  0  3.912191  0
C  C232  1  0.98710515  0.33696175  0.89078402  1  0.007972  0  -0.080831  -0.164476  0  3.909522  0
C  C233  1  0.78546408  0.39091101  0.83671712  1  -0.042036  0  -0.082438  -0.167033  0  3.912199  0
C  C234  1  0.51289442  0.10921713  0.66303809  1  0.007896  0  -0.080839  -0.164543  0  3.909635  0
C  C235  1  0.71453125  0.16328512  0.60909103  1  -0.042123  0  -0.082414  -0.166941  0  3.912097  0
C  C236  1  0.06695838  0.61176082  0.05999392  1  0.467797  0  0.047873  0.112502  0  3.972939  0
C  C237  1  0.26132145  0.55998132  0.11188645  1  0.527936  0  0.047062  0.111616  0  3.97348  0
C  C238  1  0.43303636  0.94000661  0.38824253  1  0.467684  0  0.047767  0.112414  0  3.972902  0
C  C239  1  0.23867870  0.88811433  0.44001980  1  0.52793  0  0.047105  0.111734  0  3.97357  0
C  C240  1  0.93303778  0.38824244  0.94000764  1  0.467673  0  0.04784  0.112473  0  3.972987  0
C  C241  1  0.73867978  0.44001832  0.88811479  1  0.527879  0  0.047083  0.111725  0  3.973608  0
C  C242  1  0.56696133  0.05999355  0.61175908  1  0.467559  0  0.047813  0.112489  0  3.972906  0
C  C243  1  0.76131873  0.11188635  0.55998180  1  0.527978  0  0.04711  0.111707  0  3.973574  0
N  N244  1  0.30511340  0.52337557  0.30592302  1  -1.228927  0  -0.320126  -0.268489  0  3.336669  0
N  N245  1  0.86533093  0.80602729  0.02349349  1  -1.183262  0  -0.320698  -0.269493  0  3.333985  0
N  N246  1  0.19489395  0.69407730  0.47662249  1  -1.22903  0  -0.32019  -0.268552  0  3.336917  0
N  N247  1  0.63467263  0.97651009  0.19397297  1  -1.183499  0  -0.320656  -0.269403  0  3.334119  0
N  N248  1  0.69489241  0.47662149  0.69407839  1  -1.228821  0  -0.32017  -0.268574  0  3.336725  0
N  N249  1  0.13466624  0.19397390  0.97650760  1  -1.18321  0  -0.320686  -0.26947  0  3.333975  0
N  N250  1  0.80509858  0.30592440  0.52337959  1  -1.229053  0  -0.320225  -0.268576  0  3.336857  0
N  N251  1  0.36532767  0.02349369  0.80602810  1  -1.183246  0  -0.320614  -0.269394  0  3.333928  0
N  N252  1  0.18970504  0.56042144  0.06043903  1  -1.275935  0  -0.401201  -0.382761  0  3.5331  0
N  N253  1  0.31029266  0.93955966  0.43957971  1  -1.276061  0  -0.401166  -0.382723  0  3.533172  0
N  N254  1  0.81029482  0.43957872  0.93956082  1  -1.276016  0  -0.401215  -0.382796  0  3.533273  0
N  N255  1  0.68970586  0.06044102  0.56042126  1  -1.275991  0  -0.401202  -0.382794  0  3.533315  0
O  O256  1  0.64558784  0.06347726  0.41957027  1  -1.202011  0  -0.388103  -0.658518  0  2.304723  0
O  O257  1  0.87072363  0.91949273  0.56350010  1  -1.199234  0  -0.388087  -0.658235  0  2.306345  0
O  O258  1  0.85440266  0.58043024  0.93651705  1  -1.202314  0  -0.388128  -0.658497  0  2.304807  0
O  O259  1  0.62925902  0.43650425  0.08050687  1  -1.199697  0  -0.388151  -0.658188  0  2.30665  0
O  O260  1  0.35441695  0.93652187  0.58043111  1  -1.202219  0  -0.388052  -0.658415  0  2.305209  0
O  O261  1  0.12927538  0.08050692  0.43649989  1  -1.199222  0  -0.388074  -0.658229  0  2.306401  0
O  O262  1  0.14558858  0.41956940  0.06347678  1  -1.202236  0  -0.388031  -0.658428  0  2.304848  0
O  O263  1  0.37072509  0.56350107  0.91949240  1  -1.199205  0  -0.388062  -0.658199  0  2.30637  0
O  O264  1  0.41100658  0.07631413  0.48418378  1  -1.214036  0  -0.428494  -0.708495  0  2.405238  0
O  O265  1  0.02843447  0.98389460  0.57632252  1  -1.21373  0  -0.42897  -0.709985  0  2.403979  0
O  O266  1  0.08898326  0.51581459  0.92368602  1  -1.213962  0  -0.428446  -0.708454  0  2.405147  0
O  O267  1  0.47156511  0.42367690  0.01610040  1  -1.214008  0  -0.428965  -0.709927  0  2.404071  0
O  O268  1  0.58899545  0.92368603  0.51581383  1  -1.213985  0  -0.428473  -0.70841  0  2.404959  0
O  O269  1  0.97156751  0.01610350  0.42367775  1  -1.213761  0  -0.42898  -0.710035  0  2.40401  0
O  O270  1  0.91100917  0.48418505  0.07631521  1  -1.213933  0  -0.428498  -0.708449  0  2.405238  0
O  O271  1  0.52843387  0.57632274  0.98389658  1  -1.213814  0  -0.428963  -0.709984  0  2.40383  0
O  O272  1  0.79846391  0.93085853  0.35916700  1  -1.186407  0  -0.389951  -0.640699  0  2.248722  0
O  O273  1  0.91180767  0.85926542  0.43091972  1  -1.181386  0  -0.390386  -0.641416  0  2.24855  0
O  O274  1  0.70153848  0.64083329  0.06914126  1  -1.186461  0  -0.389933  -0.640691  0  2.248709  0
O  O275  1  0.58820089  0.56908066  0.14073626  1  -1.181284  0  -0.390395  -0.641452  0  2.24852  0
O  O276  1  0.20153402  0.06914111  0.64083411  1  -1.186392  0  -0.389937  -0.640732  0  2.248677  0
O  O277  1  0.08819558  0.14073680  0.56908062  1  -1.181357  0  -0.390388  -0.641441  0  2.24865  0
O  O278  1  0.29846198  0.35916790  0.93085895  1  -1.186374  0  -0.389958  -0.640721  0  2.248594  0
O  O279  1  0.41179574  0.43092156  0.85926232  1  -1.181387  0  -0.390458  -0.641501  0  2.248537  0
