# generated using pymatgen
data_CuH24C26I2N2O5
_symmetry_space_group_name_H-M   'P 1'
_cell_length_a   9.61151254
_cell_length_b   10.81795292
_cell_length_c   13.50925802
_cell_angle_alpha   100.60355578
_cell_angle_beta   102.14814360
_cell_angle_gamma   90.54087975
_symmetry_Int_Tables_number   1
_chemical_formula_structural   CuH24C26I2N2O5
_chemical_formula_sum   'Cu2 H48 C52 I4 N4 O10'
_cell_volume   1348.05062338
_cell_formula_units_Z   2
loop_
 _symmetry_equiv_pos_site_id
 _symmetry_equiv_pos_as_xyz
  1  'x, y, z'
loop_
 _atom_site_type_symbol
 _atom_site_label
 _atom_site_symmetry_multiplicity
 _atom_site_fract_x
 _atom_site_fract_y
 _atom_site_fract_z
 _atom_site_occupancy
 _atom_site_hle17_ddec_charge
 _atom_site_hle17_ddec_spin_density
 _atom_site_hle17_ddec_sum_bond_order
 _atom_site_hle17_magmom
 _atom_site_hse06_10hf_ddec_charge
 _atom_site_hse06_10hf_ddec_spin_density
 _atom_site_hse06_10hf_ddec_sum_bond_order
 _atom_site_hse06_10hf_magmom
 _atom_site_hse06_ddec_charge
 _atom_site_hse06_ddec_spin_density
 _atom_site_hse06_ddec_sum_bond_order
 _atom_site_hse06_magmom
 _atom_site_pbe_cm5_charge
 _atom_site_pbe_ddec_charge
 _atom_site_pbe_ddec_spin_density
 _atom_site_pbe_ddec_sum_bond_order
 _atom_site_pbe_magmom
Cu  Cu0  1  0.00000004  0.00000094  0.00000162  1  0.85939  0.706582  1.822359  0.523  0.844859  0.786731  2.192977  0.636  0.932494  0.850737  2.128307  0.72  0.741953  0.79081  0.740892  2.238197  0.581
Cu  Cu1  1  0.50000298  0.00000028  0.99999856  1  0.867149  0.706588  1.798523  0.525  0.854113  0.791633  2.169009  0.641  0.943055  0.857011  2.104843  0.727  0.733192  0.797935  0.744701  2.215435  0.585
H  H2  1  0.78369959  0.95289846  0.80547970  1  0.084808  0.000852  0.941832  0.002  0.092392  0.000744  1.005986  0.001  0.093647  0.000531  1.005036  0.001  0.118798  0.091331  0.000931  1.006822  0.001
H  H3  1  0.21629792  0.04710904  0.19451977  1  0.084821  0.000853  0.941752  0.002  0.092402  0.000744  1.005928  0.001  0.093655  0.000531  1.004981  0.001  0.118805  0.091341  0.000931  1.006764  0.001
H  H4  1  0.74990827  0.80911203  0.63489634  1  0.095042  0.000514  0.973056  0.0  0.106755  0.000472  1.034774  0.0  0.109441  0.000338  1.034554  0.0  0.097252  0.104687  0.000593  1.035288  0.001
H  H5  1  0.25008600  0.19089452  0.36510248  1  0.095065  0.000512  0.972804  0.0  0.106716  0.000472  1.034616  0.0  0.109431  0.000338  1.034366  0.0  0.09719  0.104669  0.000593  1.035112  0.001
H  H6  1  0.15114668  0.65317717  0.74745434  1  0.099219  0.000448  0.999367  0.0  0.106302  0.000402  1.06485  0.0  0.107911  0.000289  1.067478  0.0  0.096727  0.105177  0.000504  1.063094  0.001
H  H7  1  0.84884534  0.34682750  0.25254609  1  0.099307  0.000447  0.999107  0.0  0.106347  0.000402  1.064651  0.0  0.107956  0.000289  1.067279  0.0  0.096738  0.105223  0.000504  1.062891  0.001
H  H8  1  0.16967552  0.80413175  0.91323648  1  0.103379  0.001  0.944049  0.002  0.107601  0.000796  1.0127  0.002  0.110451  0.000545  1.009052  0.001  0.120897  0.105272  0.001013  1.015549  0.002
H  H9  1  0.83031856  0.19587198  0.08676487  1  0.103461  0.000997  0.943931  0.002  0.107638  0.000795  1.01266  0.002  0.11049  0.000545  1.009006  0.001  0.12091  0.105299  0.001014  1.015511  0.002
H  H10  1  0.99853381  0.54897354  0.58349714  1  0.116105  -9.9e-05  0.950689  0.0  0.140069  -2.6e-05  1.006664  0.0  0.141079  -3.5e-05  1.007546  0.0  0.093274  0.139296  -2.1e-05  1.006224  0.0
H  H11  1  0.00146458  0.45103113  0.41650574  1  0.116132  -9.7e-05  0.950786  0.0  0.140104  -2.6e-05  1.006746  0.0  0.141116  -3.6e-05  1.007626  0.0  0.093283  0.139326  -2.1e-05  1.006319  0.0
H  H12  1  0.98410445  0.68076856  0.52117037  1  0.098784  -0.000544  0.979537  0.0  0.115018  -0.000253  1.054062  0.0  0.116813  -0.000267  1.053288  0.0  0.080212  0.113648  -0.000248  1.054889  0.0
H  H13  1  0.01589389  0.31923517  0.47883164  1  0.098788  -0.000549  0.979447  0.0  0.115017  -0.000253  1.053986  0.0  0.116812  -0.000268  1.05321  0.0  0.08022  0.113647  -0.000248  1.05481  0.0
H  H14  1  0.82762562  0.60417317  0.53652519  1  0.103418  -0.000145  0.95978  0.0  0.122917  -4.4e-05  1.02579  0.0  0.124583  -5.7e-05  1.024848  0.0  0.086304  0.121242  -2.8e-05  1.027411  0.0
H  H15  1  0.17237259  0.39582774  0.46347415  1  0.103438  -0.000145  0.959772  0.0  0.122923  -4.4e-05  1.025809  0.0  0.124588  -5.7e-05  1.024868  0.0  0.086313  0.121251  -2.8e-05  1.027432  0.0
H  H16  1  0.21557562  0.62217924  0.41276744  1  0.076857  9.1e-05  1.006596  0.0  0.08324  7.3e-05  1.080766  0.0  0.086565  4.2e-05  1.078929  0.0  0.082178  0.080812  0.000111  1.082232  0.0
H  H17  1  0.78442221  0.37781508  0.58723236  1  0.076883  9.4e-05  1.006593  0.0  0.083228  7.3e-05  1.080812  0.0  0.086553  4.2e-05  1.078974  0.0  0.082171  0.080797  0.000111  1.082274  0.0
H  H18  1  0.28268542  0.43942857  0.29384484  1  0.082798  -8e-05  0.98696  0.0  0.089281  -1.9e-05  1.058937  0.0  0.092207  -1.6e-05  1.05746  0.0  0.089056  0.087154  -1.9e-05  1.059964  0.0
H  H19  1  0.71731796  0.56056952  0.70615415  1  0.082815  -7.8e-05  0.986997  0.0  0.089301  -1.9e-05  1.058956  0.0  0.092225  -1.6e-05  1.057482  0.0  0.089076  0.087172  -1.9e-05  1.059981  0.0
H  H20  1  0.22308887  0.42927316  0.10608982  1  0.103582  -2e-06  0.955538  0.0  0.112485  -2.7e-05  1.016093  0.0  0.115948  -2.2e-05  1.013908  0.0  0.102374  0.109823  -2.9e-05  1.018043  0.0
H  H21  1  0.77691468  0.57072775  0.89390813  1  0.103611  -1e-06  0.955516  0.0  0.11252  -2.8e-05  1.016063  0.0  0.115978  -2.1e-05  1.013886  0.0  0.102379  0.109853  -2.9e-05  1.018019  0.0
H  H22  1  0.09669646  0.60706233  0.03438987  1  0.098464  -1.9e-05  0.943762  0.0  0.109364  5e-05  1.003506  0.0  0.112166  2.2e-05  1.002712  0.0  0.104944  0.107309  6.9e-05  1.004335  0.0
H  H23  1  0.90330937  0.39294141  0.96560885  1  0.098433  -2.1e-05  0.94388  0.0  0.109302  5e-05  1.003643  0.0  0.112123  2.2e-05  1.002834  0.0  0.104935  0.107249  6.9e-05  1.004472  0.0
H  H24  1  0.33429573  0.83929328  0.09061272  1  0.101255  0.000916  0.943781  0.002  0.105707  0.000746  1.012529  0.001  0.108598  0.000504  1.008845  0.001  0.120649  0.103333  0.000956  1.015425  0.002
H  H25  1  0.66571111  0.16070857  0.90938144  1  0.101239  0.000912  0.943795  0.002  0.105682  0.000746  1.012571  0.001  0.108573  0.000503  1.008884  0.001  0.120655  0.103313  0.000956  1.015462  0.002
H  H26  1  0.35589537  0.76706962  0.25748911  1  0.100147  0.000435  1.000787  0.0  0.108834  0.000388  1.064618  0.0  0.109907  0.000277  1.068238  0.0  0.098306  0.108132  0.000486  1.062056  0.001
H  H27  1  0.64410817  0.23293035  0.74250426  1  0.100087  0.000434  1.000814  0.0  0.108786  0.000388  1.064643  0.0  0.109858  0.000278  1.068267  0.0  0.09829  0.108083  0.000486  1.06208  0.001
H  H28  1  0.73791257  0.00805643  0.37444462  1  0.085667  0.000499  0.994873  0.0  0.090006  0.000467  1.069834  0.0  0.093419  0.000331  1.06877  0.0  0.087952  0.087631  0.000579  1.07041  0.001
H  H29  1  0.26209070  0.99193977  0.62555408  1  0.085638  0.000498  0.994941  0.0  0.089993  0.000467  1.069876  0.0  0.093406  0.000331  1.06881  0.0  0.087954  0.087618  0.000579  1.070458  0.001
H  H30  1  0.70471678  0.06585920  0.20136384  1  0.084186  0.000817  0.945188  0.002  0.091282  0.000706  1.010312  0.001  0.092634  0.000498  1.009174  0.001  0.117661  0.090175  0.000874  1.011146  0.001
H  H31  1  0.29529208  0.93414172  0.79863641  1  0.084189  0.000819  0.94512  0.002  0.091286  0.000706  1.010248  0.001  0.092639  0.000499  1.009114  0.001  0.117673  0.090181  0.000874  1.011084  0.001
H  H32  1  0.54144792  0.74124942  0.42360813  1  0.110485  -0.000255  0.952104  0.0  0.131833  -9.4e-05  1.014642  0.0  0.133209  -0.00011  1.014418  0.0  0.08871  0.130956  -7.8e-05  1.01453  0.0
H  H33  1  0.45854925  0.25875148  0.57638810  1  0.110489  -0.000252  0.952044  0.0  0.131821  -9.4e-05  1.014586  0.0  0.133212  -0.00011  1.014349  0.0  0.088708  0.13095  -7.8e-05  1.014467  0.0
H  H34  1  0.48154576  0.88830269  0.47474634  1  0.111805  -0.000498  0.948709  0.0  0.134274  -0.000224  1.009991  0.0  0.135466  -0.000237  1.010277  0.0  0.090692  0.133275  -0.00021  1.010176  0.0
H  H35  1  0.51845574  0.11169916  0.52524847  1  0.111851  -0.000498  0.948606  0.0  0.134276  -0.000224  1.009932  0.0  0.135468  -0.000237  1.010218  0.0  0.090664  0.133278  -0.00021  1.010114  0.0
H  H36  1  0.66733856  0.87018752  0.48360087  1  0.103741  1e-06  0.963052  0.0  0.122497  4.6e-05  1.029332  0.0  0.124324  2.6e-05  1.028512  0.0  0.085722  0.120654  6.3e-05  1.031082  0.0
H  H37  1  0.33266479  0.12980962  0.51639576  1  0.103825  5e-06  0.963041  0.0  0.122573  4.6e-05  1.029315  0.0  0.124399  2.6e-05  1.028497  0.0  0.08578  0.120728  6.2e-05  1.031068  0.0
H  H38  1  0.28256470  0.39508468  0.62349042  1  0.085316  9.5e-05  0.982063  0.0  0.098544  6.8e-05  1.043086  0.0  0.101098  3.9e-05  1.042106  0.0  0.093462  0.096729  0.000101  1.043818  0.0
H  H39  1  0.71743573  0.60491812  0.37651029  1  0.085306  9.7e-05  0.982239  0.0  0.098531  6.8e-05  1.043258  0.0  0.101083  3.9e-05  1.04228  0.0  0.093483  0.096716  0.000101  1.043986  0.0
H  H40  1  0.21457709  0.28305993  0.75367689  1  0.096392  -0.000136  0.983074  0.0  0.100628  -3.2e-05  1.055248  0.0  0.10404  -2.6e-05  1.053426  0.0  0.093955  0.098145  -2.6e-05  1.056561  0.0
H  H41  1  0.78542610  0.71693439  0.24632004  1  0.096376  -0.000128  0.983098  0.0  0.10064  -3.2e-05  1.055232  0.0  0.104049  -2.5e-05  1.053421  0.0  0.093962  0.098154  -2.6e-05  1.056549  0.0
H  H42  1  0.26861127  0.38373634  0.93766110  1  0.098505  2.3e-05  0.946198  0.0  0.109221  -1.5e-05  1.004322  0.0  0.11193  -7e-06  1.003396  0.0  0.103082  0.107117  -1.5e-05  1.00528  0.0
H  H43  1  0.73139055  0.61625327  0.06233863  1  0.098529  2.4e-05  0.946243  0.0  0.109254  -1.5e-05  1.004352  0.0  0.112016  -7e-06  1.003362  0.0  0.103095  0.107143  -1.5e-05  1.005316  0.0
H  H44  1  0.39372269  0.59704064  0.99377682  1  0.09777  -7.2e-05  0.947003  0.0  0.108138  1.3e-05  1.007693  0.0  0.110764  -4e-06  1.007235  0.0  0.104457  0.106225  2.9e-05  1.008253  0.0
H  H45  1  0.60627499  0.40295179  0.00622786  1  0.097779  -7.3e-05  0.947007  0.0  0.108185  1.3e-05  1.007654  0.0  0.110798  -4e-06  1.007232  0.0  0.104449  0.10627  2.9e-05  1.008219  0.0
H  H46  1  0.29053458  0.12300194  0.05274928  1  0.399848  -0.000149  0.919954  0.0  0.370989  -0.000153  0.983984  0.0  0.382877  -0.000176  0.96678  0.0  0.275187  0.362823  -0.000111  0.995868  0.0
H  H47  1  0.70946877  0.87699615  0.94725267  1  0.399783  -0.000149  0.920052  0.0  0.370909  -0.000153  0.984103  0.0  0.382797  -0.000176  0.966896  0.0  0.275168  0.36274  -0.000111  0.99599  0.0
H  H48  1  0.20890831  0.08409257  0.93647616  1  0.400424  -0.000167  0.919615  0.0  0.371963  -0.000164  0.982964  0.0  0.383696  -0.000185  0.966008  0.0  0.276267  0.363868  -0.000126  0.994729  0.0
H  H49  1  0.79109639  0.91591023  0.06352447  1  0.400433  -0.000166  0.919596  0.0  0.371965  -0.000164  0.982957  0.0  0.383698  -0.000185  0.966001  0.0  0.27629  0.363866  -0.000126  0.994726  0.0
C  C50  1  0.86293303  0.88550029  0.78869626  1  0.151671  -0.011272  3.694561  -0.007  0.121341  -0.00266  3.952697  -0.002  0.132848  -0.004227  3.969301  -0.003  0.048669  0.113406  -0.001524  3.94209  -0.001
C  C51  1  0.13706326  0.11450438  0.21130335  1  0.151591  -0.011324  3.694514  -0.007  0.121265  -0.002656  3.952638  -0.002  0.132771  -0.004238  3.96925  -0.003  0.048619  0.113327  -0.001525  3.942035  -0.001
C  C52  1  0.84592248  0.80545794  0.69360201  1  -0.193918  0.009208  3.734052  0.01  -0.211842  0.003508  3.978465  0.004  -0.221069  0.00323  3.998616  0.004  -0.093008  -0.205672  0.003691  3.964412  0.004
C  C53  1  0.15407163  0.19454579  0.30639712  1  -0.193851  0.009246  3.733829  0.01  -0.211736  0.003504  3.978254  0.004  -0.220991  0.003236  3.998388  0.004  -0.092893  -0.205582  0.003691  3.964193  0.004
C  C54  1  0.95015851  0.72004637  0.67528690  1  0.197627  -0.012654  3.749178  -0.008  0.222511  -0.004663  3.976077  -0.003  0.228986  -0.005132  3.997896  -0.003  0.00919  0.218376  -0.004281  3.960913  -0.003
C  C55  1  0.04983680  0.27996018  0.32471505  1  0.197647  -0.012706  3.74911  -0.008  0.222548  -0.004658  3.975984  -0.003  0.229027  -0.005143  3.997804  -0.003  0.009216  0.218406  -0.004282  3.960832  -0.003
C  C56  1  0.06777127  0.71906351  0.75626214  1  -0.180464  0.009453  3.699984  0.01  -0.19403  0.00365  3.936164  0.004  -0.203653  0.003301  3.95825  0.004  -0.089626  -0.187957  0.003907  3.921599  0.005
C  C57  1  0.93222279  0.28093928  0.24373610  1  -0.180557  0.009487  3.69988  0.01  -0.194088  0.003647  3.936049  0.004  -0.203713  0.003307  3.958134  0.004  -0.089631  -0.188013  0.003907  3.921473  0.005
C  C58  1  0.07839163  0.80163140  0.84948052  1  0.139665  -0.010995  3.667804  -0.007  0.112505  -0.002597  3.920605  -0.002  0.123053  -0.004207  3.937089  -0.003  0.047821  0.105094  -0.00143  3.910634  -0.001
C  C59  1  0.92160359  0.19837327  0.15051892  1  0.139698  -0.011032  3.667709  -0.007  0.112555  -0.00259  3.920503  -0.002  0.123104  -0.004216  3.936981  -0.003  0.047849  0.105154  -0.001429  3.91052  -0.001
C  C60  1  0.93894428  0.63330716  0.57372609  1  -0.342357  0.000412  3.72183  0.001  -0.421187  1.9e-05  3.951411  0.0  -0.42407  -5.1e-05  3.959223  0.0  -0.241417  -0.419083  6.9e-05  3.946685  0.0
C  C61  1  0.06105300  0.36669657  0.42627501  1  -0.342399  0.000415  3.721974  0.001  -0.421222  1.9e-05  3.951539  0.0  -0.424104  -5.1e-05  3.959348  0.0  -0.241441  -0.41912  6.9e-05  3.946813  0.0
C  C62  1  0.00357067  0.81351142  0.13384678  1  0.638525  -0.006386  3.912717  -0.007  0.592693  -0.001331  4.215071  -0.002  0.629912  -0.001774  4.206933  -0.002  0.203749  0.567403  -0.000927  4.219742  -0.002
C  C63  1  0.99643164  0.18648667  0.86615278  1  0.638488  -0.006385  3.912854  -0.007  0.592606  -0.001333  4.215272  -0.002  0.629824  -0.001772  4.207138  -0.002  0.203733  0.567323  -0.000925  4.21995  -0.002
C  C64  1  0.07952846  0.71109751  0.18251877  1  -0.080865  0.00866  3.743873  0.01  -0.064199  0.004773  3.976236  0.006  -0.069728  0.003207  3.996438  0.004  -0.018396  -0.060095  0.006168  3.962289  0.007
C  C65  1  0.92047060  0.28889963  0.81748016  1  -0.08089  0.008666  3.743839  0.01  -0.064192  0.004775  3.976194  0.006  -0.069722  0.003208  3.996402  0.004  -0.018385  -0.060094  0.006169  3.96226  0.007
C  C66  1  0.11322832  0.71359908  0.28896152  1  0.01563  0.00178  3.646431  0.002  0.034541  0.001389  3.899926  0.002  0.036661  0.000877  3.923549  0.001  -0.043244  0.032806  0.001773  3.883899  0.002
C  C67  1  0.88676744  0.28639618  0.71103736  1  0.015616  0.001778  3.646544  0.002  0.034516  0.001389  3.900037  0.002  0.036636  0.000877  3.92366  0.001  -0.043304  0.032781  0.001773  3.884013  0.002
C  C68  1  0.18679769  0.61705791  0.32959819  1  -0.123564  4.6e-05  3.792697  0.0  -0.138732  0.000105  4.037053  0.0  -0.142082  -2e-05  4.059112  0.0  -0.106864  -0.136176  0.000276  4.021698  0.0
C  C69  1  0.81320135  0.38293923  0.67040369  1  -0.123597  4.2e-05  3.792602  0.0  -0.13873  0.000105  4.036943  0.0  -0.14208  -2e-05  4.059001  0.0  -0.106843  -0.136171  0.000276  4.021579  0.0
C  C70  1  0.22504217  0.51494926  0.26287901  1  -0.042696  0.001522  3.747774  0.001  -0.056243  0.000657  3.993975  0.001  -0.057352  0.000384  4.015253  0.0  -0.089287  -0.055362  0.000923  3.979012  0.001
C  C71  1  0.77495600  0.48505165  0.73712403  1  -0.04268  0.001514  3.747791  0.001  -0.056227  0.000657  3.994007  0.001  -0.057335  0.000383  4.015281  0.0  -0.089293  -0.055344  0.000923  3.979039  0.001
C  C72  1  0.19148784  0.50975416  0.15646203  1  -0.065348  -0.001212  3.746631  -0.001  -0.080604  -0.00038  3.997848  0.0  -0.081785  -0.00037  4.017209  0.0  -0.088998  -0.079503  -0.000256  3.984736  0.0
C  C73  1  0.80851344  0.49024486  0.84353899  1  -0.065408  -0.001209  3.746641  -0.001  -0.080684  -0.000381  3.997878  0.0  -0.081862  -0.00037  4.017244  0.0  -0.089012  -0.079583  -0.000256  3.984761  0.0
C  C74  1  0.12073182  0.60777159  0.11712448  1  -0.073506  0.000741  3.726676  0.001  -0.092579  0.000347  3.970153  0.0  -0.093449  0.000164  3.989672  0.0  -0.082742  -0.092118  0.000601  3.957039  0.0
C  C75  1  0.87927262  0.39222650  0.88287467  1  -0.07347  0.00074  3.7268  0.001  -0.092515  0.000348  3.97029  0.0  -0.093405  0.000163  3.989806  0.0  -0.082765  -0.092055  0.000601  3.957179  0.0
C  C76  1  0.42291973  0.87299575  0.15521873  1  0.139218  -0.010367  3.669408  -0.007  0.111848  -0.002291  3.924904  -0.001  0.122058  -0.003886  3.941771  -0.003  0.046841  0.104923  -0.001187  3.914216  0.0
C  C77  1  0.57708603  0.12700611  0.84477674  1  0.139265  -0.010367  3.669149  -0.007  0.111895  -0.00229  3.924724  -0.001  0.122111  -0.003884  3.941582  -0.003  0.046874  0.104964  -0.001187  3.914044  0.0
C  C78  1  0.43496457  0.83480914  0.24911334  1  -0.182164  0.00938  3.700077  0.01  -0.197367  0.003651  3.938091  0.004  -0.206868  0.003287  3.96089  0.004  -0.090451  -0.191374  0.003899  3.922955  0.005
C  C79  1  0.56503993  0.16518894  0.75088064  1  -0.182087  0.009389  3.70004  0.01  -0.197325  0.003651  3.938057  0.004  -0.206826  0.003286  3.960852  0.004  -0.09042  -0.19133  0.003899  3.922921  0.005
C  C80  1  0.54819349  0.88271221  0.33168747  1  0.195779  -0.01247  3.737934  -0.008  0.221265  -0.00462  3.963974  -0.003  0.227402  -0.005054  3.986266  -0.003  0.008646  0.217283  -0.004233  3.94899  -0.003
C  C81  1  0.45181098  0.11728587  0.66830872  1  0.195749  -0.012486  3.738057  -0.008  0.221333  -0.004621  3.963941  -0.003  0.22747  -0.005053  3.986235  -0.003  0.008637  0.217352  -0.004232  3.948961  -0.003
C  C82  1  0.64640006  0.96789170  0.31407495  1  -0.191454  0.009102  3.731368  0.01  -0.206566  0.003496  3.973601  0.004  -0.21608  0.00319  3.99392  0.004  -0.093307  -0.200361  0.003691  3.959234  0.004
C  C83  1  0.35360445  0.03210733  0.68592288  1  -0.191436  0.009114  3.731305  0.01  -0.206571  0.003496  3.973502  0.004  -0.216083  0.003188  3.993824  0.004  -0.093312  -0.200368  0.003691  3.959144  0.004
C  C84  1  0.62905853  0.00093369  0.21761895  1  0.153018  -0.011196  3.688029  -0.007  0.124519  -0.002656  3.943049  -0.002  0.13606  -0.004218  3.959729  -0.003  0.049529  0.116732  -0.001517  3.93213  -0.001
C  C85  1  0.37094927  0.99906723  0.78238040  1  0.153106  -0.011226  3.687654  -0.007  0.124625  -0.00266  3.942696  -0.002  0.13616  -0.004215  3.959386  -0.003  0.04962  0.116837  -0.001517  3.931785  -0.001
C  C86  1  0.56142088  0.84353811  0.43407184  1  -0.340847  0.000416  3.713964  0.001  -0.419284  3.8e-05  3.940497  0.0  -0.421905  -4e-05  3.948109  0.0  -0.239774  -0.417483  0.000107  3.936171  0.0
C  C87  1  0.43857620  0.15646092  0.56592336  1  -0.340973  0.000409  3.713888  0.001  -0.419405  3.7e-05  3.940486  0.0  -0.422041  -4e-05  3.948081  0.0  -0.239794  -0.417607  0.000107  3.936157  0.0
C  C88  1  0.49750855  0.73837498  0.88248674  1  0.645972  -0.006214  3.914004  -0.006  0.5993  -0.00111  4.219415  -0.002  0.636828  -0.001529  4.210662  -0.002  0.205304  0.573781  -0.000718  4.224489  -0.002
C  C89  1  0.50249156  0.26162311  0.11751989  1  0.646036  -0.006218  3.913961  -0.006  0.599415  -0.001109  4.219281  -0.002  0.636944  -0.001528  4.210529  -0.002  0.205314  0.573898  -0.000718  4.224354  -0.002
C  C90  1  0.41654149  0.61286820  0.84174219  1  -0.081404  0.00884  3.7436  0.01  -0.064052  0.004748  3.974295  0.006  -0.069745  0.003085  3.994419  0.004  -0.019573  -0.059978  0.006227  3.960662  0.007
C  C91  1  0.58345968  0.38712989  0.15826461  1  -0.081317  0.008847  3.743546  0.01  -0.063951  0.004746  3.974184  0.006  -0.069645  0.003085  3.99431  0.004  -0.019496  -0.059876  0.006227  3.960549  0.007
C  C92  1  0.38376339  0.55475147  0.73745064  1  0.011316  0.002429  3.66193  0.002  0.031086  0.001459  3.915471  0.002  0.033321  0.000959  3.938877  0.001  -0.04553  0.02924  0.001838  3.899696  0.002
C  C93  1  0.61623477  0.44524944  0.26255314  1  0.011297  0.002425  3.66195  0.002  0.031067  0.001462  3.915461  0.002  0.033304  0.000956  3.938865  0.001  -0.045522  0.029222  0.001838  3.899682  0.002
C  C94  1  0.30999151  0.43739893  0.70507577  1  -0.123644  -0.000563  3.796919  0.0  -0.1416  -5e-06  4.043674  0.0  -0.144733  -0.000149  4.06575  0.0  -0.106131  -0.139165  0.000207  4.028187  0.0
C  C95  1  0.69000671  0.56260292  0.29492742  1  -0.123661  -0.000555  3.797008  0.0  -0.141642  -8e-06  4.043816  0.0  -0.144774  -0.000148  4.065888  0.0  -0.106179  -0.139202  0.000207  4.02832  0.0
C  C96  1  0.27030879  0.37537509  0.77749969  1  -0.043586  0.002452  3.745264  0.002  -0.059839  0.000878  3.997627  0.001  -0.06069  0.000554  4.018414  0.001  -0.089173  -0.059332  0.001205  3.983384  0.001
C  C97  1  0.72969334  0.62462017  0.22250165  1  -0.043432  0.002432  3.745285  0.002  -0.059698  0.000879  3.997644  0.001  -0.060555  0.000553  4.018446  0.001  -0.089139  -0.059189  0.001204  3.983391  0.001
C  C98  1  0.30061030  0.43243056  0.88159258  1  -0.062878  -0.001679  3.748044  -0.001  -0.078163  -0.000488  4.000725  0.0  -0.079711  -0.000509  4.020921  0.0  -0.089017  -0.076807  -0.000401  3.986965  0.0
C  C99  1  0.69938858  0.56756376  0.11840812  1  -0.06303  -0.001667  3.748157  -0.001  -0.078331  -0.000489  4.000872  0.0  -0.079917  -0.000507  4.021055  0.0  -0.089064  -0.07697  -0.000401  3.987107  0.0
C  C100  1  0.37116609  0.55069413  0.91286653  1  -0.074367  0.00116  3.734734  0.001  -0.09285  0.000477  3.978411  0.0  -0.09366  0.000287  3.998338  0.0  -0.081847  -0.092211  0.000833  3.964956  0.001
C  C101  1  0.62883176  0.44930113  0.08713711  1  -0.07441  0.001154  3.734636  0.001  -0.092921  0.000478  3.978304  0.0  -0.09374  0.000286  3.998248  0.0  -0.081881  -0.092289  0.000833  3.964859  0.001
I  I102  1  0.07170221  0.87150410  0.39595514  1  -0.019357  0.00022  1.306445  0.0  -0.025783  0.000425  1.589233  0.0  -0.027961  0.000196  1.580804  0.0  0.090567  -0.023527  0.000761  1.595826  0.0
I  I103  1  0.92827119  0.12849207  0.60404708  1  -0.019349  0.00022  1.306562  0.0  -0.025784  0.000425  1.589381  0.0  -0.027962  0.000195  1.580952  0.0  0.090601  -0.023523  0.000761  1.595972  0.0
I  I104  1  0.42682062  0.64856363  0.62173669  1  -0.020069  0.000339  1.319513  0.0  -0.033618  0.000378  1.608454  0.0  -0.036204  0.00017  1.600498  0.0  0.101423  -0.031011  0.000679  1.613946  0.0
I  I105  1  0.57317999  0.35144388  0.37827288  1  -0.020078  0.000336  1.319538  0.0  -0.033603  0.000377  1.608447  0.0  -0.03619  0.000174  1.600494  0.0  0.101414  -0.031021  0.000679  1.613979  0.0
N  N106  1  0.97737252  0.88390695  0.86519265  1  -0.292716  0.074995  3.334855  0.096  -0.24395  0.050094  3.619251  0.069  -0.27563  0.04075  3.64101  0.06  -0.354891  -0.225056  0.055345  3.607593  0.072
N  N107  1  0.02262266  0.11609678  0.13480516  1  -0.292818  0.075023  3.33472  0.096  -0.244042  0.050094  3.619128  0.069  -0.275724  0.040758  3.640884  0.06  -0.354965  -0.225147  0.055349  3.607465  0.072
N  N108  1  0.51920526  0.95463432  0.13946457  1  -0.294587  0.074249  3.310948  0.096  -0.2476  0.050094  3.596666  0.069  -0.279504  0.040441  3.618699  0.06  -0.349433  -0.22822  0.055502  3.584555  0.073
N  N109  1  0.48080361  0.04536660  0.86053420  1  -0.294687  0.074259  3.310672  0.096  -0.247761  0.050094  3.596488  0.069  -0.279667  0.040437  3.618521  0.06  -0.349598  -0.228382  0.055498  3.584385  0.073
O  O110  1  0.06770145  0.85515386  0.07136015  1  -0.595803  0.082379  2.081842  0.114  -0.570704  0.051947  2.362356  0.079  -0.613323  0.038975  2.356697  0.064  -0.313767  -0.541467  0.061303  2.365796  0.088
O  O111  1  0.93230334  0.14485082  0.92864151  1  -0.595795  0.082382  2.08197  0.114  -0.57066  0.051949  2.362484  0.079  -0.61328  0.038975  2.35683  0.064  -0.313713  -0.541417  0.061301  2.365918  0.088
O  O112  1  0.88719424  0.84742988  0.15568142  1  -0.599211  -0.001483  1.999211  0.0  -0.547977  -0.000843  2.220544  0.0  -0.574923  -0.00155  2.214183  -0.001  -0.30519  -0.528747  -0.000245  2.223761  0.001
O  O113  1  0.11280822  0.15257103  0.84431933  1  -0.599146  -0.001483  1.999274  0.0  -0.5479  -0.000843  2.220624  0.0  -0.574854  -0.001549  2.214271  -0.001  -0.305173  -0.528667  -0.000244  2.223844  0.001
O  O114  1  0.43069517  0.82010461  0.93391215  1  -0.602151  0.08155  2.092123  0.113  -0.576176  0.050402  2.375272  0.077  -0.619292  0.037382  2.369405  0.062  -0.314573  -0.54644  0.059845  2.378852  0.086
O  O115  1  0.56930207  0.17989818  0.06608807  1  -0.602183  0.081552  2.092042  0.113  -0.576217  0.050402  2.375162  0.077  -0.619323  0.037382  2.369278  0.062  -0.314607  -0.546476  0.059846  2.378733  0.086
O  O116  1  0.62025612  0.75139225  0.86602331  1  -0.599301  -0.001423  1.968511  0.0  -0.550255  -0.000725  2.188961  0.0  -0.576875  -0.001439  2.181545  -0.001  -0.308188  -0.531373  -0.000136  2.193228  0.001
O  O117  1  0.37974575  0.24859924  0.13398263  1  -0.599392  -0.001421  1.968482  0.0  -0.550384  -0.000725  2.188917  0.0  -0.577009  -0.00144  2.181501  -0.001  -0.308182  -0.531502  -0.000136  2.193185  0.001
O  O118  1  0.25160976  0.04766125  0.99829932  1  -0.863437  -0.0015  1.923406  0.002  -0.835212  -0.001269  2.134673  0.002  -0.857337  -0.002457  2.095962  0.0  -0.603008  -0.819685  -0.000189  2.162538  0.003
O  O119  1  0.74839271  0.95233966  0.00169921  1  -0.863387  -0.0015  1.923483  0.002  -0.835141  -0.001269  2.134761  0.002  -0.857292  -0.002456  2.096109  0.0  -0.60302  -0.819612  -0.000188  2.162629  0.003
