# generated using pymatgen
data_ZnP2H6(C3O4)2
_symmetry_space_group_name_H-M   'P 1'
_cell_length_a   9.21595166
_cell_length_b   10.50690209
_cell_length_c   10.50691468
_cell_angle_alpha   83.85780912
_cell_angle_beta   79.12888819
_cell_angle_gamma   79.12872913
_symmetry_Int_Tables_number   1
_chemical_formula_structural   ZnP2H6(C3O4)2
_chemical_formula_sum   'Zn2 P4 H12 C12 O16'
_cell_volume   978.51213554
_cell_formula_units_Z   2
loop_
 _symmetry_equiv_pos_site_id
 _symmetry_equiv_pos_as_xyz
  1  'x, y, z'
loop_
 _atom_site_type_symbol
 _atom_site_label
 _atom_site_symmetry_multiplicity
 _atom_site_fract_x
 _atom_site_fract_y
 _atom_site_fract_z
 _atom_site_occupancy
 _atom_site_hle17_bader_spin_density
 _atom_site_hle17_ddec_charge
 _atom_site_hle17_ddec_spin_density
 _atom_site_hle17_ddec_sum_bond_order
 _atom_site_hle17_magmom
 _atom_site_hse06_10hf_bader_spin_density
 _atom_site_hse06_10hf_ddec_charge
 _atom_site_hse06_10hf_ddec_spin_density
 _atom_site_hse06_10hf_ddec_sum_bond_order
 _atom_site_hse06_10hf_magmom
 _atom_site_hse06_bader_spin_density
 _atom_site_hse06_ddec_charge
 _atom_site_hse06_ddec_spin_density
 _atom_site_hse06_ddec_sum_bond_order
 _atom_site_hse06_magmom
 _atom_site_pbe_bader_spin_density
 _atom_site_pbe_cm5_charge
 _atom_site_pbe_ddec_charge
 _atom_site_pbe_ddec_spin_density
 _atom_site_pbe_ddec_sum_bond_order
 _atom_site_pbe_magmom
Zn  Zn0  1  0.25000013  0.02624741  0.97375229  1  0  1.31178  0  1.707544  0  0  1.143282  0  2.193118  0  0  1.185852  0  2.128066  0  0  0.741936  1.112883  0  2.238274  0
Zn  Zn1  1  0.75000031  0.97375208  0.02624705  1  0  1.311794  0  1.707554  0  0  1.143295  0  2.193127  0  0  1.185865  0  2.128072  0  0  0.741936  1.112895  0  2.238284  0
P  P2  1  0.01241663  0.04971009  0.79111141  1  0  1.505427  0  4.791473  0  0  1.344369  0  5.297432  0  0  1.395126  0  5.257219  0  0  0.381402  1.30885  0  5.324718  0
P  P3  1  0.48758389  0.20888947  0.95028949  1  0  1.505416  0  4.791518  0  0  1.344359  0  5.297477  0  0  1.395118  0  5.257263  0  0  0.381404  1.308842  0  5.324761  0
P  P4  1  0.98758491  0.95028940  0.20888871  1  0  1.505326  0  4.791584  0  0  1.344268  0  5.297532  0  0  1.395035  0  5.257329  0  0  0.381403  1.308754  0  5.324811  0
P  P5  1  0.51241635  0.79111100  0.04971074  1  0  1.505305  0  4.791645  0  0  1.344238  0  5.297607  0  0  1.395003  0  5.257394  0  0  0.381365  1.308722  0  5.32489  0
H  H6  1  0.99403868  0.26186158  0.76966642  1  0  0.435188  0  0.783319  0  0  0.425787  0  0.822698  0  0  0.433557  0  0.815051  0  0  0.361935  0.420218  0  0.828297  0
H  H7  1  0.50596153  0.23033450  0.73813824  1  0  0.435185  0  0.783322  0  0  0.425785  0  0.8227  0  0  0.433554  0  0.815053  0  0  0.361934  0.420215  0  0.8283  0
H  H8  1  0.00596027  0.73813985  0.23033487  1  0  0.435231  0  0.783224  0  0  0.425821  0  0.822616  0  0  0.433594  0  0.814961  0  0  0.36192  0.420243  0  0.828223  0
H  H9  1  0.49403982  0.76966596  0.26186181  1  0  0.435184  0  0.783267  0  0  0.425783  0  0.82265  0  0  0.433552  0  0.815002  0  0  0.361934  0.420213  0  0.828251  0
H  H10  1  0.27482477  0.96401238  0.66246681  1  0  0.394541  0  0.876122  0  0  0.375009  0  0.938567  0  0  0.384134  0  0.927562  0  0  0.307665  0.368091  0  0.946358  0
H  H11  1  0.22517444  0.33753413  0.03598789  1  0  0.394556  0  0.876116  0  0  0.375023  0  0.93856  0  0  0.384148  0  0.927556  0  0  0.307668  0.368107  0  0.946351  0
H  H12  1  0.72517548  0.03598809  0.33753342  1  0  0.394554  0  0.876109  0  0  0.375019  0  0.938559  0  0  0.384145  0  0.927553  0  0  0.307663  0.368102  0  0.94635  0
H  H13  1  0.77482489  0.66246537  0.96401259  1  0  0.394558  0  0.876133  0  0  0.37502  0  0.938586  0  0  0.384146  0  0.92758  0  0  0.307661  0.368103  0  0.946378  0
H  H14  1  0.77125167  0.08877799  0.65158072  1  0  0.122814  0  0.954061  0  0  0.131958  0  1.016812  0  0  0.135542  0  1.014328  0  0  0.107551  0.129381  0  1.018668  0
H  H15  1  0.72874718  0.34841932  0.91121869  1  0  0.122823  0  0.954062  0  0  0.131968  0  1.016804  0  0  0.135552  0  1.014318  0  0  0.107555  0.12939  0  1.018663  0
H  H16  1  0.22874857  0.91122248  0.34841951  1  0  0.122864  0  0.954075  0  0  0.132011  0  1.016817  0  0  0.135595  0  1.01433  0  0  0.107576  0.129433  0  1.018673  0
H  H17  1  0.27125215  0.65158018  0.08878083  1  0  0.122814  0  0.954071  0  0  0.131958  0  1.01682  0  0  0.135542  0  1.014335  0  0  0.10755  0.12938  0  1.018676  0
C  C18  1  0.14243241  0.97159997  0.54042113  1  0  0.344241  0  3.833337  0  0  0.325961  0  4.105011  0  0  0.336812  0  4.122408  0  0  0.076787  0.318313  0  4.09324  0
C  C19  1  0.35756774  0.45957952  0.02840110  1  0  0.344323  0  3.833208  0  0  0.326056  0  4.104866  0  0  0.336906  0  4.122264  0  0  0.076827  0.318408  0  4.093094  0
C  C20  1  0.85756857  0.02840243  0.45957877  1  0  0.344224  0  3.833287  0  0  0.325941  0  4.104947  0  0  0.336802  0  4.122349  0  0  0.076788  0.318295  0  4.093178  0
C  C21  1  0.64243141  0.54042095  0.97159836  1  0  0.344232  0  3.83335  0  0  0.325959  0  4.105005  0  0  0.336815  0  4.122406  0  0  0.076784  0.318312  0  4.093233  0
C  C22  1  0.01146944  0.02304210  0.62615670  1  0  -0.378067  0  3.812466  0  0  -0.343307  0  4.06666  0  0  -0.355064  0  4.088081  0  0  -0.043926  -0.335375  0  4.052414  0
C  C23  1  0.48853021  0.37384340  0.97695713  1  0  -0.378088  0  3.812384  0  0  -0.343343  0  4.066591  0  0  -0.355101  0  4.088013  0  0  -0.043974  -0.335414  0  4.052346  0
C  C24  1  0.98853154  0.97696030  0.37384321  1  0  -0.377986  0  3.812323  0  0  -0.343188  0  4.066455  0  0  -0.354991  0  4.087951  0  0  -0.04393  -0.335263  0  4.052217  0
C  C25  1  0.51146894  0.62615707  0.02304137  1  0  -0.377998  0  3.812397  0  0  -0.343222  0  4.066555  0  0  -0.355003  0  4.088015  0  0  -0.043932  -0.335297  0  4.052314  0
C  C26  1  0.87203902  0.05032945  0.58498129  1  0  -0.127656  0  3.718905  0  0  -0.160266  0  3.972259  0  0  -0.162453  0  3.991883  0  0  -0.094721  -0.1588  0  3.959208  0
C  C27  1  0.62796129  0.41501816  0.94966845  1  0  -0.12767  0  3.718882  0  0  -0.160275  0  3.972226  0  0  -0.162463  0  3.991852  0  0  -0.094705  -0.158809  0  3.959178  0
C  C28  1  0.12796306  0.94967296  0.41501844  1  0  -0.12773  0  3.718869  0  0  -0.160349  0  3.972214  0  0  -0.162527  0  3.991852  0  0  -0.09473  -0.158881  0  3.959165  0
C  C29  1  0.37203805  0.58498134  0.05033013  1  0  -0.127696  0  3.718865  0  0  -0.16031  0  3.972209  0  0  -0.162491  0  3.991843  0  0  -0.094713  -0.158841  0  3.959157  0
O  O30  1  0.93466024  0.19813425  0.81558594  1  0  -0.709584  0  1.975128  0  0  -0.651235  0  2.189244  0  0  -0.669738  0  2.166595  0  0  -0.371606  -0.638222  0  2.204675  0
O  O31  1  0.56533978  0.18441329  0.80186570  1  0  -0.709569  0  1.975132  0  0  -0.651229  0  2.189266  0  0  -0.669731  0  2.166617  0  0  -0.371598  -0.638215  0  2.204697  0
O  O32  1  0.06533889  0.80186622  0.18441542  1  0  -0.709574  0  1.975143  0  0  -0.651222  0  2.189255  0  0  -0.669724  0  2.166608  0  0  -0.371568  -0.638201  0  2.204682  0
O  O33  1  0.43466176  0.81558620  0.19813442  1  0  -0.70955  0  1.975096  0  0  -0.65121  0  2.189228  0  0  -0.669712  0  2.166578  0  0  -0.371604  -0.638198  0  2.204659  0
O  O34  1  0.17754924  0.02951968  0.80742088  1  0  -0.87329  0  2.023546  0  0  -0.7824  0  2.305794  0  0  -0.809118  0  2.276842  0  0  -0.361092  -0.763253  0  2.325181  0
O  O35  1  0.32245087  0.19257897  0.97048051  1  0  -0.87331  0  2.023552  0  0  -0.782416  0  2.305799  0  0  -0.809135  0  2.276847  0  0  -0.361088  -0.763269  0  2.325187  0
O  O36  1  0.82245081  0.97048176  0.19257928  1  0  -0.873312  0  2.023512  0  0  -0.782421  0  2.305755  0  0  -0.809139  0  2.2768  0  0  -0.361104  -0.763272  0  2.325141  0
O  O37  1  0.67754956  0.80742052  0.02951979  1  0  -0.873264  0  2.023604  0  0  -0.782372  0  2.305848  0  0  -0.809089  0  2.276893  0  0  -0.361061  -0.763223  0  2.325233  0
O  O38  1  0.91443750  0.96719153  0.88228919  1  0  -0.853125  0  2.024355  0  0  -0.761585  0  2.319599  0  0  -0.7899  0  2.291649  0  0  -0.366505  -0.741539  0  2.338413  0
O  O39  1  0.58556232  0.11771084  0.03280884  1  0  -0.853109  0  2.024347  0  0  -0.761571  0  2.319592  0  0  -0.789887  0  2.291642  0  0  -0.366508  -0.741524  0  2.338404  0
O  O40  1  0.08556256  0.03280991  0.11771097  1  0  -0.853074  0  2.024363  0  0  -0.761555  0  2.319623  0  0  -0.789865  0  2.291668  0  0  -0.366504  -0.74151  0  2.338436  0
O  O41  1  0.41443811  0.88228865  0.96719146  1  0  -0.853085  0  2.024385  0  0  -0.761542  0  2.319628  0  0  -0.789858  0  2.291678  0  0  -0.366504  -0.741497  0  2.338441  0
O  O42  1  0.28193928  0.94130975  0.57205459  1  0  -0.516392  0  2.042933  0  0  -0.475942  0  2.230641  0  0  -0.491832  0  2.221342  0  0  -0.36847  -0.464118  0  2.236869  0
O  O43  1  0.21805973  0.42794567  0.05869134  1  0  -0.516431  0  2.042897  0  0  -0.475984  0  2.230601  0  0  -0.491873  0  2.221302  0  0  -0.36848  -0.46416  0  2.23683  0
O  O44  1  0.71806096  0.05869072  0.42794564  1  0  -0.51641  0  2.042926  0  0  -0.475963  0  2.230635  0  0  -0.491851  0  2.221331  0  0  -0.368471  -0.464137  0  2.236863  0
O  O45  1  0.78193960  0.57205382  0.94130818  1  0  -0.51641  0  2.042959  0  0  -0.475961  0  2.230666  0  0  -0.491851  0  2.221364  0  0  -0.368454  -0.464135  0  2.236893  0
