# generated using pymatgen
data_V2CoH21C15(NO)6
_symmetry_space_group_name_H-M   'P 1'
_cell_length_a   8.95399186
_cell_length_b   10.57251665
_cell_length_c   11.85035227
_cell_angle_alpha   87.76916815
_cell_angle_beta   82.30811554
_cell_angle_gamma   85.05270886
_symmetry_Int_Tables_number   1
_chemical_formula_structural   V2CoH21C15(NO)6
_chemical_formula_sum   'V4 Co2 H42 C30 N12 O12'
_cell_volume   1107.16624363
_cell_formula_units_Z   2
loop_
 _symmetry_equiv_pos_site_id
 _symmetry_equiv_pos_as_xyz
  1  'x, y, z'
loop_
 _atom_site_type_symbol
 _atom_site_label
 _atom_site_symmetry_multiplicity
 _atom_site_fract_x
 _atom_site_fract_y
 _atom_site_fract_z
 _atom_site_occupancy
 _atom_site_pbe_bader_charge
 _atom_site_pbe_bader_spin_density
 _atom_site_pbe_cm5_charge
 _atom_site_pbe_ddec_charge
 _atom_site_pbe_ddec_spin_density
 _atom_site_pbe_ddec_sum_bond_order
 _atom_site_pbe_magmom
V  V0  1  0.09121650  0.13521432  0.85049273  1  2.089789  0.034414  1.416563  1.947077  0.016697  3.481927  0.038
V  V1  1  0.90878887  0.86479002  0.14949911  1  2.090277  0.034414  1.416647  1.947229  0.016696  3.481923  0.038
V  V2  1  0.17236671  0.09982128  0.10399609  1  2.094429  0.037755  1.418393  1.94585  0.019853  3.451495  0.041
V  V3  1  0.82762892  0.90017928  0.89600281  1  2.094412  0.037747  1.418501  1.946028  0.01985  3.451449  0.041
Co  Co4  1  0.46211654  0.00322173  0.86514930  1  1.297572  2.54755  0.680346  0.980565  2.774931  2.551501  2.527
Co  Co5  1  0.53788476  0.99677881  0.13485407  1  1.297653  2.547513  0.680308  0.980506  2.774902  2.551623  2.527
H  H6  1  0.74011907  0.18263583  0.88966807  1  0.147631  0.000556  0.119304  0.112884  -0.0  1.056011  0.0
H  H7  1  0.25988100  0.81736566  0.11033370  1  0.147453  0.000556  0.119303  0.112881  -0.0  1.056055  0.0
H  H8  1  0.17084280  0.84351625  0.85381918  1  0.16258  0.000494  0.136764  0.093721  -4.5e-05  1.055438  0.0
H  H9  1  0.82915747  0.15648334  0.14618433  1  0.162775  0.000494  0.136757  0.093717  -4.5e-05  1.055398  0.0
H  H10  1  0.61053426  0.70704274  0.91242838  1  0.106506  0.000787  0.117383  0.10311  0.000127  1.040188  0.001
H  H11  1  0.38946362  0.29295781  0.08757029  1  0.106658  0.000787  0.117374  0.103094  0.000127  1.040178  0.001
H  H12  1  0.32979011  0.27474113  0.75533795  1  0.175832  0.00035  0.129326  0.098811  -0.000114  1.060428  0.0
H  H13  1  0.67020910  0.72525752  0.24466401  1  0.175817  0.00035  0.129344  0.098809  -0.000114  1.060323  0.0
H  H14  1  0.76185381  0.40867964  0.76281191  1  0.140206  0.000801  0.129144  0.139471  0.000328  0.987187  0.0
H  H15  1  0.23814521  0.59132091  0.23718748  1  0.140207  0.000801  0.129134  0.139432  0.000328  0.987162  0.0
H  H16  1  0.15849112  0.50506448  0.82125989  1  0.067151  0.000151  0.105265  0.085147  6.3e-05  0.985374  0.0
H  H17  1  0.84150913  0.49493511  0.17874194  1  0.067131  0.000151  0.105247  0.085118  6.3e-05  0.985314  0.0
H  H18  1  0.04304337  0.64818626  0.85241704  1  0.100391  5.2e-05  0.114776  0.10444  2.8e-05  0.998687  0.0
H  H19  1  0.95695471  0.35181239  0.14758335  1  0.100365  5.2e-05  0.114779  0.104471  2.8e-05  0.998678  0.0
H  H20  1  0.43155009  0.50270666  0.92041138  1  0.084574  0.000835  0.119905  0.119209  0.000331  1.03792  0.0
H  H21  1  0.56845098  0.49729578  0.07958519  1  0.084504  0.000835  0.11989  0.119154  0.000331  1.037924  0.0
H  H22  1  0.66922217  0.82097105  0.45263227  1  0.115493  0.000967  0.122704  0.121378  0.000367  1.016946  0.0
H  H23  1  0.33077576  0.17902950  0.54737230  1  0.115466  0.000968  0.12267  0.121379  0.000367  1.016976  0.0
H  H24  1  0.49219718  0.78529316  0.66375517  1  0.103887  0.000951  0.111956  0.097844  0.000188  1.037965  0.001
H  H25  1  0.50780517  0.21470833  0.33624974  1  0.103866  0.000952  0.11197  0.097844  0.000188  1.037939  0.001
H  H26  1  0.06481488  0.60274117  0.06263641  1  0.059421  2.9e-05  0.094911  0.094548  1.2e-05  1.011734  0.0
H  H27  1  0.93518537  0.39725843  0.93736457  1  0.059439  2.9e-05  0.09494  0.094608  1.2e-05  1.011708  0.0
H  H28  1  0.15864725  0.45175729  0.02551497  1  0.037413  1e-06  0.092935  0.089754  -1e-05  0.985396  0.0
H  H29  1  0.84135188  0.54824231  0.97448697  1  0.037422  1e-06  0.092944  0.089756  -1e-05  0.985413  0.0
H  H30  1  0.68578950  0.13485243  0.65789185  1  0.132888  0.000464  0.131054  0.089934  -1.9e-05  1.048453  0.0
H  H31  1  0.31421074  0.86514717  0.34210913  1  0.132915  0.000465  0.131049  0.089961  -1.9e-05  1.04841  0.0
H  H32  1  0.46935316  0.35994127  0.52432134  1  0.02524  7e-06  0.096473  0.092709  -6e-06  0.99289  0.0
H  H33  1  0.53064699  0.64005927  0.47567877  1  0.025246  7e-06  0.096476  0.092687  -6e-06  0.992905  0.0
H  H34  1  0.64880485  0.42048147  0.51551563  1  0.022798  3e-06  0.097633  0.094606  -6e-06  0.966675  0.0
H  H35  1  0.35119549  0.57951718  0.48448537  1  0.022802  3e-06  0.097628  0.094593  -6e-06  0.966693  0.0
H  H36  1  0.55538596  0.55934078  0.68122171  1  0.062733  6.2e-05  0.114997  0.095419  2e-05  0.983228  0.0
H  H37  1  0.44460977  0.44065883  0.31877890  1  0.062645  6.2e-05  0.114962  0.095362  2e-05  0.983268  0.0
H  H38  1  0.37242349  0.50681715  0.68544848  1  0.081179  7.3e-05  0.113692  0.0911  1.6e-05  0.982252  0.0
H  H39  1  0.62757485  0.49317865  0.31455114  1  0.081164  7.3e-05  0.113715  0.091092  1.6e-05  0.982227  0.0
H  H40  1  0.80203542  0.15270134  0.45522681  1  0.035575  -1e-05  0.110241  0.086618  -2.8e-05  0.964271  0.0
H  H41  1  0.19796709  0.84729825  0.54477562  1  0.035599  -1e-05  0.110233  0.086612  -2.8e-05  0.964239  0.0
H  H42  1  0.77102165  0.03614035  0.35839385  1  0.109452  0.00025  0.112013  0.102224  -2.4e-05  1.010966  0.0
H  H43  1  0.22897852  0.96386019  0.64160879  1  0.109498  0.00025  0.112015  0.102226  -2.4e-05  1.010879  0.0
H  H44  1  0.04209741  0.03879361  0.37329766  1  0.074473  0.000131  0.09731  0.104194  4.4e-05  1.008625  0.0
H  H45  1  0.95790303  0.96120409  0.62670421  1  0.074422  0.000131  0.097322  0.104222  4.4e-05  1.008616  0.0
H  H46  1  0.97688604  0.89096020  0.42260484  1  0.034297  -2e-06  0.092986  0.091159  -2.1e-05  0.991363  0.0
H  H47  1  0.02311317  0.10903844  0.57739713  1  0.034328  -2e-06  0.092941  0.09105  -2.1e-05  0.991401  0.0
C  C48  1  0.65763313  0.23587178  0.84384430  1  0.419829  7.1e-05  0.002255  -0.023084  -0.000807  4.004219  0.0
C  C49  1  0.34236486  0.76412782  0.15615692  1  0.419937  7.1e-05  0.002303  -0.023007  -0.000807  4.004091  0.0
C  C50  1  0.26750654  0.78017940  0.87050030  1  0.935917  -0.004682  0.142067  0.091756  -0.006166  3.897833  -0.003
C  C51  1  0.73249042  0.21981925  0.12950105  1  0.935627  -0.004682  0.14205  0.091745  -0.006166  3.897792  -0.003
C  C52  1  0.49245454  0.70508647  0.90210374  1  0.447093  -0.001138  0.000576  -0.022354  -0.002079  4.001808  -0.001
C  C53  1  0.50754439  0.29491503  0.09789478  1  0.446869  -0.001138  0.000561  -0.022423  -0.002079  4.001827  -0.001
C  C54  1  0.44392325  0.27854284  0.77630496  1  0.920377  -0.000859  0.135293  0.073404  -0.002138  3.912445  0.0
C  C55  1  0.55607578  0.72145770  0.22369611  1  0.920303  -0.000859  0.135237  0.073445  -0.002138  3.912282  0.0
C  C56  1  0.67028171  0.34718365  0.78072193  1  0.257599  0.002933  -0.002076  -0.124864  0.001482  3.922315  0.002
C  C57  1  0.32971853  0.65281594  0.21927821  1  0.257587  0.002932  -0.002095  -0.124823  0.001482  3.922357  0.002
C  C58  1  0.13120566  0.58176540  0.88278521  1  0.272875  0.000991  -0.050145  -0.059085  0.000539  3.873773  0.001
C  C59  1  0.86879589  0.41823230  0.11721486  1  0.272925  0.000991  -0.05015  -0.059115  0.000539  3.8737  0.001
C  C60  1  0.40576573  0.60339133  0.90556707  1  0.274338  0.002808  -0.009641  -0.134872  0.001267  3.963764  0.002
C  C61  1  0.59423580  0.39660636  0.09443131  1  0.274459  0.002808  -0.009672  -0.134834  0.001267  3.963797  0.002
C  C62  1  0.64426812  0.87877200  0.52739122  1  0.364112  0.004696  -0.000187  -0.105474  0.002558  3.916581  0.003
C  C63  1  0.35573110  0.12122665  0.47261158  1  0.364183  0.004698  -0.000135  -0.10548  0.002558  3.9165  0.003
C  C64  1  0.55785939  0.86323353  0.63131669  1  0.340229  -0.00107  -0.004172  -0.026372  -0.002236  4.024632  -0.001
C  C65  1  0.44214327  0.13676416  0.36868157  1  0.340292  -0.001071  -0.00413  -0.026271  -0.002238  4.024661  -0.001
C  C66  1  0.07591537  0.52715726  0.00020419  1  -0.019833  -1.9e-05  -0.16145  -0.152825  -7.2e-05  3.916313  0.0
C  C67  1  0.92408601  0.47284233  0.99979667  1  -0.045732  -1.8e-05  -0.161486  -0.152894  -7.2e-05  3.91636  0.0
C  C68  1  0.65266545  0.04503078  0.63256345  1  0.990477  0.000349  0.139052  0.083156  -2e-05  3.942813  0.001
C  C69  1  0.34733332  0.95497261  0.36743840  1  0.990499  0.00035  0.139049  0.083104  -1.9e-05  3.942869  0.001
C  C70  1  0.52656467  0.44505408  0.53794924  1  -0.010424  0.000133  -0.15915  -0.160705  7.2e-05  3.946272  0.0
C  C71  1  0.47343555  0.55494552  0.46204837  1  0.019838  0.000131  -0.159127  -0.160652  7.2e-05  3.946291  0.0
C  C72  1  0.49354773  0.47874687  0.66318735  1  0.293154  0.00092  -0.050224  -0.066916  0.000508  3.916034  0.001
C  C73  1  0.50644913  0.52125273  0.33681230  1  0.293236  0.00092  -0.050215  -0.066827  0.000508  3.916045  0.001
C  C74  1  0.80942628  0.05006979  0.44092652  1  0.295837  0.001244  -0.04863  -0.059317  0.000688  3.876833  0.001
C  C75  1  0.19057285  0.94992981  0.55907542  1  0.295795  0.001244  -0.048651  -0.059313  0.000688  3.876732  0.001
C  C76  1  0.97112874  0.99224631  0.44310783  1  -0.034485  8.5e-05  -0.166575  -0.178781  2.3e-05  3.940252  0.0
C  C77  1  0.02886840  0.00775044  0.55689441  1  -0.059297  8.5e-05  -0.166518  -0.178614  2.3e-05  3.940128  0.0
N  N78  1  0.40449109  0.81494201  0.88089737  1  -1.191933  0.054546  -0.347424  -0.288962  0.028869  3.571217  0.047
N  N79  1  0.59550785  0.18505949  0.11910284  1  -1.191937  0.054546  -0.347328  -0.288827  0.028869  3.571195  0.047
N  N80  1  0.51661233  0.19361620  0.84007647  1  -1.208701  0.048674  -0.346031  -0.296351  0.026714  3.558327  0.039
N  N81  1  0.48338888  0.80638529  0.15992603  1  -1.208732  0.048675  -0.346016  -0.296386  0.026715  3.558251  0.039
N  N82  1  0.70303198  0.99488092  0.52969079  1  -1.2236  0.002402  -0.245037  0.045808  0.000819  3.785103  0.001
N  N83  1  0.29696827  0.00511868  0.47031103  1  -1.223742  0.002401  -0.245056  0.045763  0.000818  3.785273  0.001
N  N84  1  0.56366665  0.96767570  0.69638877  1  -1.21469  0.06776  -0.344003  -0.311833  0.036007  3.59909  0.058
N  N85  1  0.43633569  0.03232579  0.30361446  1  -1.214694  0.067762  -0.344039  -0.311884  0.036008  3.59936  0.058
N  N86  1  0.26400262  0.65236003  0.88419821  1  -1.21358  0.000567  -0.248735  0.034653  -0.000412  3.797143  0.0
N  N87  1  0.73599856  0.34764146  0.11580176  1  -1.213505  0.000566  -0.248711  0.034676  -0.000411  3.797072  0.0
N  N88  1  0.53347385  0.37335872  0.73900978  1  -1.242277  0.001745  -0.254133  0.024308  0.000374  3.824658  0.001
N  N89  1  0.46652527  0.62664088  0.26099132  1  -1.242085  0.001745  -0.254115  0.024212  0.000374  3.824695  0.001
O  O90  1  0.35532371  0.04381053  0.05606738  1  -0.996952  0.08885  -0.596913  -0.901026  0.050051  2.044685  0.068
O  O91  1  0.64468809  0.95618619  0.94393417  1  -0.996775  0.088825  -0.597  -0.901155  0.050043  2.044786  0.068
O  O92  1  0.26142514  0.05373498  0.81750444  1  -0.96415  0.06773  -0.613355  -0.885086  0.03647  1.997365  0.054
O  O93  1  0.73857707  0.94626746  0.18249286  1  -0.964305  0.06773  -0.613326  -0.885072  0.036468  1.997241  0.054
O  O94  1  0.09280572  0.19205800  0.99219841  1  -1.037379  0.006689  -0.687047  -0.97103  0.002861  1.908262  0.004
O  O95  1  0.90719365  0.80793782  0.00778844  1  -1.03747  0.006689  -0.687082  -0.971021  0.002861  1.908099  0.004
O  O96  1  0.16339297  0.19339454  0.21110418  1  -0.841597  0.016218  -0.618629  -0.749261  0.007625  1.442421  0.013
O  O97  1  0.83660952  0.80660505  0.78889403  1  -0.841683  0.016217  -0.618648  -0.74932  0.007625  1.442325  0.013
O  O98  1  0.94113376  0.03115570  0.85496598  1  -1.075572  0.001023  -0.702722  -1.022213  -0.000497  1.954901  0.001
O  O99  1  0.05886851  0.96884580  0.14502797  1  -1.075395  0.001022  -0.702719  -1.022142  -0.000499  1.955002  0.001
O  O100  1  0.07451029  0.25734172  0.76183634  1  -0.888075  0.010697  -0.639062  -0.794548  0.004791  1.415137  0.008
O  O101  1  0.92548467  0.74266549  0.23815734  1  -0.888364  0.010697  -0.639112  -0.794617  0.00479  1.415394  0.008
