# generated using pymatgen
data_ZnH16C21(NO)6
_symmetry_space_group_name_H-M   'P 1'
_cell_length_a   9.55513018
_cell_length_b   10.36555444
_cell_length_c   11.68580111
_cell_angle_alpha   83.29879750
_cell_angle_beta   71.13322377
_cell_angle_gamma   69.64196505
_symmetry_Int_Tables_number   1
_chemical_formula_structural   ZnH16C21(NO)6
_chemical_formula_sum   'Zn2 H32 C42 N12 O12'
_cell_volume   1026.80428963
_cell_formula_units_Z   2
loop_
 _symmetry_equiv_pos_site_id
 _symmetry_equiv_pos_as_xyz
  1  'x, y, z'
loop_
 _atom_site_type_symbol
 _atom_site_label
 _atom_site_symmetry_multiplicity
 _atom_site_fract_x
 _atom_site_fract_y
 _atom_site_fract_z
 _atom_site_occupancy
 _atom_site_pbe_bader_spin_density
 _atom_site_pbe_cm5_charge
 _atom_site_pbe_ddec_charge
 _atom_site_pbe_ddec_spin_density
 _atom_site_pbe_ddec_sum_bond_order
 _atom_site_pbe_magmom
Zn  Zn0  1  0.23484072  0.58991017  0.65408488  1  0  0.703935  0.80064  0  2.338902  0
Zn  Zn1  1  0.76515915  0.41008857  0.34591420  1  0  0.70392  0.800608  0  2.338857  0
H  H2  1  0.60480738  0.17367333  0.67494798  1  0  0.104867  0.103296  0  1.048938  0
H  H3  1  0.39518989  0.82632645  0.32505083  1  0  0.104865  0.103298  0  1.048847  0
H  H4  1  0.58350079  0.76948736  0.64886459  1  0  0.109575  0.109404  0  1.032724  0
H  H5  1  0.41650131  0.23051136  0.35113818  1  0  0.10952  0.109315  0  1.032769  0
H  H6  1  0.18676077  0.12909916  0.64945770  1  0  0.105815  0.10543  0  1.044925  0
H  H7  1  0.81324026  0.87089649  0.35054309  1  0  0.105838  0.105452  0  1.044888  0
H  H8  1  0.14418709  0.82230737  0.44946033  1  0  0.143424  0.121379  0  1.028438  0
H  H9  1  0.85581201  0.17769344  0.55053875  1  0  0.143411  0.121366  0  1.028396  0
H  H10  1  0.22960136  0.39495118  0.45456562  1  0  0.13876  0.113655  0  1.016203  0
H  H11  1  0.77039775  0.60504962  0.54543431  1  0  0.138788  0.11367  0  1.016218  0
H  H12  1  0.04482870  0.87123549  0.25576377  1  0  0.12143  0.116541  0  1.001411  0
H  H13  1  0.95517262  0.12876530  0.74423472  1  0  0.121422  0.116544  0  1.001407  0
H  H14  1  0.05418550  0.72565871  0.18488444  1  0  0.121474  0.116449  0  0.988505  0
H  H15  1  0.94581471  0.27434209  0.81511434  1  0  0.121481  0.116466  0  0.988499  0
H  H16  1  0.13698599  0.96973045  0.05234758  1  0  0.096594  0.097744  0  1.013233  0
H  H17  1  0.86301461  0.03026932  0.94765121  1  0  0.096593  0.097714  0  1.013189  0
H  H18  1  0.37142632  0.00048463  0.89771304  1  0  0.097462  0.095302  0  1.033466  0
H  H19  1  0.62857467  0.99951410  0.10228745  1  0  0.09745  0.095285  0  1.033467  0
H  H20  1  0.63591316  0.83262776  0.88319332  1  0  0.098345  0.098125  0  1.036181  0
H  H21  1  0.36408705  0.16737304  0.11680547  1  0  0.098329  0.098118  0  1.036183  0
H  H22  1  0.43118336  0.60149649  0.17956121  1  0  0.105815  0.115174  0  1.020739  0
H  H23  1  0.56881685  0.39850432  0.82043757  1  0  0.105807  0.11515  0  1.020752  0
H  H24  1  0.71387371  0.57534193  0.11741395  1  0  0.119353  0.112481  0  1.01593  0
H  H25  1  0.28612651  0.42465886  0.88258654  1  0  0.119363  0.112477  0  1.015932  0
H  H26  1  0.71667761  0.50178715  0.98666776  1  0  0.120206  0.107736  0  0.972592  0
H  H27  1  0.28332333  0.49821467  0.01333073  1  0  0.120211  0.107713  0  0.972676  0
H  H28  1  0.90900732  0.53112053  0.78444403  1  0  0.140835  0.110523  0  1.078928  0
H  H29  1  0.09099401  0.46888025  0.21555702  1  0  0.140821  0.110486  0  1.078943  0
H  H30  1  0.10641806  0.76855786  0.91296437  1  0  0.135892  0.102838  0  0.987792  0
H  H31  1  0.89358250  0.23144499  0.08703411  1  0  0.135907  0.102829  0  0.987821  0
H  H32  1  0.96821659  0.92773926  0.65494073  1  0  0.306671  0.373426  0  0.97104  0
H  H33  1  0.03178359  0.07226462  0.34505860  1  0  0.306684  0.373441  0  0.971017  0
C  C34  1  0.30409908  0.31906830  0.67078340  1  0  0.196388  0.553281  0  4.21681  0
C  C35  1  0.69589968  0.68093045  0.32921597  1  0  0.196354  0.553094  0  4.216991  0
C  C36  1  0.78208304  0.89447682  0.64850645  1  0  0.225411  0.57382  0  4.13444  0
C  C37  1  0.21791602  0.10552707  0.35149318  1  0  0.225406  0.57375  0  4.134586  0
C  C38  1  0.28192644  0.84922254  0.64611598  1  0  0.211221  0.586402  0  4.204466  0
C  C39  1  0.71807531  0.15077414  0.35388538  1  0  0.211289  0.586562  0  4.204067  0
C  C40  1  0.38646080  0.16643607  0.66604981  1  0  -0.015748  -0.033405  0  3.965978  0
C  C41  1  0.61353984  0.83356061  0.33395185  1  0  -0.01576  -0.033343  0  3.965938  0
C  C42  1  0.54165120  0.10732069  0.66747525  1  0  -0.06777  -0.08213  0  3.890487  0
C  C43  1  0.45835167  0.89267598  0.33252667  1  0  -0.067814  -0.082206  0  3.890423  0
C  C44  1  0.61401282  0.96424841  0.65749391  1  0  -0.019782  -0.0578  0  3.994963  0
C  C45  1  0.38598744  0.03574931  0.34250603  1  0  -0.019694  -0.057655  0  3.994898  0
C  C46  1  0.52869510  0.88065324  0.65218008  1  0  -0.064348  -0.082988  0  3.929584  0
C  C47  1  0.47130112  0.11934345  0.34782445  1  0  -0.064371  -0.082975  0  3.929693  0
C  C48  1  0.37371728  0.93875462  0.65149368  1  0  -0.019694  -0.048365  0  3.991813  0
C  C49  1  0.62628188  0.06124309  0.34850827  1  0  -0.019696  -0.048418  0  3.991725  0
C  C50  1  0.30487366  0.08170630  0.65557390  1  0  -0.06763  -0.085242  0  3.915688  0
C  C51  1  0.69512622  0.91829243  0.34442860  1  0  -0.067622  -0.085244  0  3.915538  0
C  C52  1  0.16343785  0.71830529  0.42546994  1  0  0.17313  0.102079  0  3.862488  0
C  C53  1  0.83656164  0.28169449  0.57452914  1  0  0.173099  0.102075  0  3.862382  0
C  C54  1  0.20999257  0.50071007  0.42436246  1  0  0.160636  0.163923  0  3.923785  0
C  C55  1  0.79000765  0.49929073  0.57563633  1  0  0.160601  0.163915  0  3.92387  0
C  C56  1  0.12208381  0.76892800  0.22011304  1  0  -0.04022  -0.14977  0  3.887855  0
C  C57  1  0.87791679  0.23107177  0.77988660  1  0  -0.040222  -0.149806  0  3.887841  0
C  C58  1  0.26774539  0.78116623  0.12431585  1  0  -0.014815  0.093221  0  4.009151  0
C  C59  1  0.73225338  0.21883252  0.87568352  1  0  -0.01487  0.093177  0  4.009127  0
C  C60  1  0.25234898  0.89342923  0.04416738  1  0  -0.100755  -0.152693  0  3.995972  0
C  C61  1  0.74764868  0.10656952  0.95583400  1  0  -0.100721  -0.15263  0  3.995885  0
C  C62  1  0.38416846  0.91124115  0.95768936  1  0  -0.090146  -0.059747  0  4.024893  0
C  C63  1  0.61582989  0.08876170  0.04231228  1  0  -0.090137  -0.05972  0  4.0249  0
C  C64  1  0.53305007  0.81703325  0.94986773  1  0  -0.095597  -0.142341  0  3.974102  0
C  C65  1  0.46694864  0.18296859  0.05012963  1  0  -0.095585  -0.142346  0  3.974218  0
C  C66  1  0.54965698  0.70504570  0.02885894  1  0  -0.009343  0.111673  0  3.967591  0
C  C67  1  0.45034396  0.29495613  0.97114040  1  0  -0.009348  0.111635  0  3.967649  0
C  C68  1  0.41655756  0.68738948  0.11592747  1  0  -0.097813  -0.204058  0  3.951218  0
C  C69  1  0.58344304  0.31261029  0.88407217  1  0  -0.097788  -0.204  0  3.951205  0
C  C70  1  0.70619394  0.59793513  0.02510240  1  0  -0.038997  -0.135977  0  3.87758  0
C  C71  1  0.29380590  0.40206669  0.97489809  1  0  -0.039027  -0.135943  0  3.877644  0
C  C72  1  0.93338094  0.59220414  0.84085434  1  0  0.171777  0.106623  0  3.860729  0
C  C73  1  0.06661889  0.40779769  0.15914615  1  0  0.1718  0.106679  0  3.860727  0
C  C74  1  0.02877152  0.71506295  0.90833172  1  0  0.14435  0.13096  0  4.006368  0
C  C75  1  0.97122793  0.28493991  0.09166705  1  0  0.144312  0.130989  0  4.00626  0
N  N76  1  0.19885307  0.60477476  0.49233495  1  0  -0.344758  -0.303022  0  3.564717  0
N  N77  1  0.80114604  0.39522604  0.50766413  1  0  -0.344719  -0.30299  0  3.564678  0
N  N78  1  0.15458965  0.68268687  0.32202572  1  0  -0.128577  0.1842  0  3.725831  0
N  N79  1  0.84541167  0.31731393  0.67797277  1  0  -0.128538  0.184224  0  3.72585  0
N  N80  1  0.18516160  0.54438556  0.31935692  1  0  -0.207564  -0.236377  0  3.126371  0
N  N81  1  0.81483824  0.45561628  0.68064186  1  0  -0.207579  -0.236418  0  3.126479  0
N  N82  1  0.05290959  0.64138897  0.80974497  1  0  -0.34879  -0.321891  0  3.573968  0
N  N83  1  0.94709361  0.35860976  0.19025494  1  0  -0.348759  -0.321869  0  3.573842  0
N  N84  1  0.84345597  0.63419038  0.95336563  1  0  -0.131078  0.172977  0  3.719735  0
N  N85  1  0.15654497  0.36581144  0.04663457  1  0  -0.131079  0.172929  0  3.719781  0
N  N86  1  0.90216588  0.71324488  0.99850052  1  0  -0.2235  -0.263905  0  3.06618  0
N  N87  1  0.09783506  0.28675695  0.00149797  1  0  -0.223486  -0.26391  0  3.066166  0
O  O88  1  0.16330716  0.36443106  0.67239336  1  0  -0.31719  -0.557018  0  2.200171  0
O  O89  1  0.83669161  0.63556769  0.32760687  1  0  -0.317207  -0.556986  0  2.200166  0
O  O90  1  0.38341598  0.39885625  0.67056318  1  0  -0.335796  -0.548503  0  2.23118  0
O  O91  1  0.61658129  0.60114353  0.32943649  1  0  -0.335748  -0.548392  0  2.231265  0
O  O92  1  0.85274730  0.97833129  0.66642795  1  0  -0.335851  -0.498949  0  2.354773  0
O  O93  1  0.14725138  0.02167362  0.33357168  1  0  -0.335851  -0.498934  0  2.354863  0
O  O94  1  0.84989347  0.77112817  0.62615572  1  0  -0.287887  -0.497246  0  2.168084  0
O  O95  1  0.15010931  0.22887467  0.37384474  1  0  -0.28786  -0.49719  0  2.168104  0
O  O96  1  0.34734470  0.71911643  0.65715689  1  0  -0.325039  -0.533678  0  2.290656  0
O  O97  1  0.65265705  0.28088024  0.34284447  1  0  -0.325075  -0.53374  0  2.29046  0
O  O98  1  0.14837389  0.90671351  0.63164188  1  0  -0.324678  -0.584179  0  2.245761  0
O  O99  1  0.85162969  0.09328420  0.36835718  1  0  -0.324718  -0.584265  0  2.24565  0
