# generated using pymatgen
data_MnH13C16N3O4
_symmetry_space_group_name_H-M   'P 1'
_cell_length_a   11.63694007
_cell_length_b   11.63690569
_cell_length_c   16.18951791
_cell_angle_alpha   71.10035681
_cell_angle_beta   71.10029056
_cell_angle_gamma   82.32340540
_symmetry_Int_Tables_number   1
_chemical_formula_structural   MnH13C16N3O4
_chemical_formula_sum   'Mn4 H52 C64 N12 O16'
_cell_volume   1961.32594179
_cell_formula_units_Z   4
loop_
 _symmetry_equiv_pos_site_id
 _symmetry_equiv_pos_as_xyz
  1  'x, y, z'
loop_
 _atom_site_type_symbol
 _atom_site_label
 _atom_site_symmetry_multiplicity
 _atom_site_fract_x
 _atom_site_fract_y
 _atom_site_fract_z
 _atom_site_occupancy
 _atom_site_pbe_bader_charge
 _atom_site_pbe_bader_spin_density
 _atom_site_pbe_cm5_charge
 _atom_site_pbe_ddec_charge
 _atom_site_pbe_ddec_spin_density
 _atom_site_pbe_ddec_sum_bond_order
 _atom_site_pbe_magmom
Mn  Mn0  1  0.62430682  0.84206616  0.04555082  1  1.510887  4.527357  0.611778  0.943594  4.660944  2.39265  4.448
Mn  Mn1  1  0.15793727  0.37569073  0.45444834  1  1.510821  4.527365  0.61175  0.943552  4.660929  2.392702  4.448
Mn  Mn2  1  0.37569282  0.15793611  0.95444560  1  1.510859  4.527375  0.611771  0.943578  4.660957  2.392662  4.448
Mn  Mn3  1  0.84207126  0.62430465  0.54555443  1  1.510847  4.527395  0.611777  0.943548  4.660997  2.392596  4.448
H  H4  1  0.15578862  0.40654915  0.04395026  1  0.503024  0.000341  0.294152  0.262855  -0.00013  1.016922  0.0
H  H5  1  0.59345438  0.84420631  0.45605072  1  0.503048  0.000341  0.29414  0.262786  -0.000129  1.01701  0.0
H  H6  1  0.84420644  0.59345241  0.95604858  1  0.503067  0.000341  0.294155  0.262814  -0.000129  1.017028  0.0
H  H7  1  0.40654875  0.15579386  0.54395280  1  0.503085  0.000341  0.29417  0.262788  -0.000129  1.01708  0.0
H  H8  1  0.81854435  0.68445908  0.27402895  1  0.110483  0.000512  0.100136  0.106043  -7.1e-05  1.067537  0.0
H  H9  1  0.31554565  0.18145224  0.22597049  1  0.110553  0.000512  0.100136  0.106088  -7.1e-05  1.067581  0.0
H  H10  1  0.18145693  0.31553756  0.72597455  1  0.110445  0.000512  0.100131  0.106051  -7.1e-05  1.067511  0.0
H  H11  1  0.68446120  0.81854873  0.77402769  1  0.110437  0.000512  0.100142  0.106067  -7.1e-05  1.067553  0.0
H  H12  1  0.15140384  0.47234900  0.25261688  1  0.123782  0.000187  0.108622  0.122839  7.3e-05  1.044153  0.0
H  H13  1  0.52765388  0.84859239  0.24738524  1  0.1237  0.000187  0.108619  0.122828  7.4e-05  1.04424  0.0
H  H14  1  0.84859933  0.52764762  0.74738187  1  0.12379  0.000187  0.108605  0.12281  7.4e-05  1.044165  0.0
H  H15  1  0.47234283  0.15140445  0.75262047  1  0.123584  0.000187  0.108608  0.122811  7.4e-05  1.044117  0.0
H  H16  1  0.97995643  0.55950058  0.03784904  1  0.06698  0.000475  0.098934  0.106594  0.000196  1.045468  0.0
H  H17  1  0.44050665  0.02004202  0.46215168  1  0.06661  0.000475  0.098923  0.106634  0.000196  1.045403  0.0
H  H18  1  0.02003682  0.44050285  0.96215165  1  0.066636  0.000475  0.098944  0.106579  0.000196  1.045454  0.0
H  H19  1  0.55950018  0.97996250  0.53785064  1  0.067052  0.000475  0.098937  0.1066  0.000196  1.045516  0.0
H  H20  1  0.25507788  0.34742956  0.19173826  1  0.110379  0.000425  0.108779  0.100505  -9.5e-05  1.01888  0.0
H  H21  1  0.65257215  0.74491321  0.30826203  1  0.110407  0.000425  0.108787  0.100529  -9.5e-05  1.0189  0.0
H  H22  1  0.74491989  0.65256916  0.80825938  1  0.110361  0.000425  0.108803  0.100548  -9.5e-05  1.0188  0.0
H  H23  1  0.34742911  0.25508073  0.69174085  1  0.110355  0.000425  0.108792  0.10054  -9.5e-05  1.018793  0.0
H  H24  1  0.32507935  0.33223320  0.08148777  1  0.109797  0.000602  0.120717  0.112469  0.000186  1.003391  0.0
H  H25  1  0.66776606  0.67491281  0.41851400  1  0.109819  0.000602  0.120776  0.112549  0.000186  1.003325  0.0
H  H26  1  0.67491480  0.66776751  0.91851085  1  0.109811  0.000602  0.120776  0.112567  0.000186  1.003288  0.0
H  H27  1  0.33223068  0.32508406  0.58148985  1  0.109935  0.000602  0.120757  0.112524  0.000186  1.003348  0.0
H  H28  1  0.28321952  0.63180928  0.00261736  1  0.084204  0.000656  0.104521  0.109218  0.000368  1.016551  0.0
H  H29  1  0.36818803  0.71678357  0.49738141  1  0.084193  0.000656  0.10454  0.109216  0.000368  1.016588  0.0
H  H30  1  0.71677923  0.36819305  0.99737801  1  0.084025  0.000656  0.104519  0.109207  0.000368  1.016639  0.0
H  H31  1  0.63180614  0.28322341  0.50262074  1  0.084022  0.000656  0.104522  0.109227  0.000368  1.01664  0.0
H  H32  1  0.46143882  0.38971090  0.19073842  1  0.097253  0.000836  0.108664  0.118856  0.000344  1.003049  0.0
H  H33  1  0.61028322  0.53855269  0.30926584  1  0.097823  0.000836  0.108633  0.118835  0.000344  1.00294  0.0
H  H34  1  0.53855893  0.61028781  0.80925984  1  0.097257  0.000836  0.108648  0.118835  0.000344  1.003064  0.0
H  H35  1  0.38971166  0.46144421  0.69074214  1  0.097232  0.000836  0.108649  0.118823  0.000344  1.003058  0.0
H  H36  1  0.59539519  0.56109779  0.15856630  1  0.105788  0.001212  0.114692  0.078307  0.000484  1.016165  0.001
H  H37  1  0.43889283  0.40460304  0.34143849  1  0.105708  0.001212  0.114665  0.078313  0.000484  1.01622  0.001
H  H38  1  0.40460526  0.43889718  0.84143096  1  0.106004  0.001211  0.114685  0.078357  0.000483  1.016135  0.001
H  H39  1  0.56110211  0.59539750  0.65856802  1  0.105965  0.001211  0.114712  0.078398  0.000483  1.016179  0.001
H  H40  1  0.42202727  0.79470247  0.97966870  1  0.068019  0.001643  0.117943  0.083068  0.000776  1.010997  0.001
H  H41  1  0.20529077  0.57797796  0.52033320  1  0.067963  0.001643  0.117941  0.083017  0.000776  1.011003  0.001
H  H42  1  0.57797498  0.20529419  0.02033087  1  0.068028  0.001643  0.117939  0.08303  0.000776  1.011036  0.001
H  H43  1  0.79470161  0.42202913  0.47966810  1  0.068022  0.001643  0.117925  0.083013  0.000776  1.011006  0.001
H  H44  1  0.98860524  0.12941330  0.96784568  1  0.114457  0.000945  0.122121  0.175774  0.00039  0.965422  0.001
H  H45  1  0.87058856  0.01139362  0.53215542  1  0.114462  0.000945  0.12213  0.175803  0.000391  0.96533  0.001
H  H46  1  0.01139890  0.87059139  0.03215474  1  0.114412  0.000945  0.122124  0.175785  0.000391  0.965476  0.001
H  H47  1  0.12940559  0.98860797  0.46784424  1  0.11442  0.000945  0.122124  0.175781  0.000391  0.965287  0.001
H  H48  1  0.95568457  0.15533768  0.86272277  1  0.137378  0.002088  0.127279  0.185661  0.001224  0.944497  0.001
H  H49  1  0.84466311  0.04431560  0.63727524  1  0.137313  0.00209  0.127292  0.185663  0.001225  0.944502  0.001
H  H50  1  0.04431418  0.84466822  0.13727613  1  0.137347  0.00209  0.127348  0.185761  0.001225  0.944477  0.001
H  H51  1  0.15532856  0.95569709  0.36271754  1  0.137657  0.002089  0.127319  0.18576  0.001225  0.944529  0.001
H  H52  1  0.87916653  0.24352157  0.93685600  1  0.120956  0.00114  0.117696  0.17038  0.000654  1.001143  0.001
H  H53  1  0.75648311  0.12083107  0.56314368  1  0.12101  0.001142  0.117742  0.170449  0.000655  1.001004  0.001
H  H54  1  0.12083311  0.75648874  0.06314725  1  0.121114  0.001142  0.117735  0.170428  0.000655  1.00097  0.001
H  H55  1  0.24352037  0.87917748  0.43684366  1  0.120986  0.001141  0.117703  0.170371  0.000654  1.001005  0.001
C  C56  1  0.88892756  0.63281951  0.23694962  1  -0.07756  0.008039  -0.107302  -0.16823  0.005826  3.994154  0.005
C  C57  1  0.36718122  0.11107184  0.26305247  1  -0.077486  0.008035  -0.107296  -0.168335  0.005822  3.994201  0.005
C  C58  1  0.11107383  0.36718172  0.76304973  1  -0.077827  0.008037  -0.10726  -0.168198  0.005824  3.994224  0.005
C  C59  1  0.63281734  0.88892673  0.73695244  1  -0.077885  0.008037  -0.107329  -0.168308  0.005824  3.994378  0.005
C  C60  1  0.98454614  0.57668265  0.27191110  1  0.01685  0.001585  -0.026604  -0.033367  0.000313  4.041439  0.0
C  C61  1  0.42331974  0.01545220  0.22809136  1  0.016753  0.001588  -0.026664  -0.033333  0.000315  4.041042  0.0
C  C62  1  0.01545886  0.42331749  0.72808830  1  0.01723  0.001585  -0.026685  -0.033492  0.000313  4.041002  0.0
C  C63  1  0.57668055  0.98454083  0.77191503  1  0.017146  0.001584  -0.026683  -0.033468  0.000312  4.041315  0.0
C  C64  1  0.79262545  0.69410778  0.11006969  1  1.520503  0.008199  0.195773  0.541382  0.009618  4.232468  0.006
C  C65  1  0.30589923  0.20737500  0.38992963  1  1.520398  0.0082  0.195759  0.541311  0.009618  4.232622  0.006
C  C66  1  0.20737233  0.30589632  0.88993106  1  1.520521  0.008201  0.195786  0.541473  0.009619  4.232495  0.006
C  C67  1  0.69410486  0.79262607  0.61007100  1  1.52053  0.008198  0.195806  0.541387  0.009616  4.232429  0.006
C  C68  1  0.07697456  0.50215088  0.13941252  1  0.427662  -0.00034  0.095192  0.23517  -0.000514  4.106  -0.001
C  C69  1  0.49785110  0.92302139  0.36058562  1  0.427634  -0.000338  0.095262  0.23525  -0.000513  4.105947  -0.001
C  C70  1  0.92302504  0.49784956  0.86058556  1  0.427536  -0.00034  0.095185  0.235189  -0.000514  4.105989  -0.001
C  C71  1  0.50214839  0.07697448  0.63941536  1  0.42739  -0.000339  0.095224  0.235256  -0.000514  4.105811  -0.001
C  C72  1  0.88796381  0.62527415  0.15252892  1  -0.067511  -0.001368  -0.030888  -0.029206  -0.002413  4.057039  -0.002
C  C73  1  0.37472786  0.11203416  0.34747010  1  -0.06723  -0.001365  -0.030857  -0.029103  -0.002411  4.057135  -0.002
C  C74  1  0.11203404  0.37473002  0.84746747  1  -0.067295  -0.001367  -0.030805  -0.029075  -0.002413  4.057001  -0.002
C  C75  1  0.62526890  0.88796540  0.65253499  1  -0.067059  -0.001367  -0.030768  -0.028956  -0.002412  4.056859  -0.002
C  C76  1  0.07843976  0.51384365  0.22328362  1  -0.046393  0.006903  -0.097442  -0.210248  0.005297  3.914163  0.004
C  C77  1  0.48616062  0.92155331  0.27671652  1  -0.046417  0.006901  -0.097463  -0.21033  0.005295  3.914215  0.004
C  C78  1  0.92155705  0.48615686  0.77671878  1  -0.04642  0.006903  -0.097438  -0.210245  0.005297  3.913838  0.004
C  C79  1  0.51383972  0.07843888  0.72328573  1  -0.046189  0.006903  -0.097457  -0.210283  0.005298  3.91391  0.004
C  C80  1  0.98047648  0.56027835  0.10477299  1  -0.08061  0.007243  -0.103431  -0.220744  0.005579  3.94928  0.004
C  C81  1  0.43972693  0.01952102  0.39522528  1  -0.080745  0.007242  -0.10342  -0.220798  0.005579  3.94925  0.004
C  C82  1  0.01951858  0.43972410  0.89522689  1  -0.080792  0.007244  -0.103439  -0.220742  0.00558  3.949169  0.004
C  C83  1  0.56027443  0.98047928  0.60477551  1  -0.080771  0.007244  -0.103479  -0.22087  0.00558  3.949262  0.004
C  C84  1  0.98607993  0.58233263  0.36301756  1  1.575799  0.02881  0.224727  0.596803  0.028334  4.165042  0.025
C  C85  1  0.41766722  0.01391626  0.13698040  1  1.575872  0.028815  0.224772  0.596889  0.028338  4.164597  0.025
C  C86  1  0.01392333  0.41766676  0.63697746  1  1.575824  0.028816  0.224878  0.596967  0.028339  4.164556  0.025
C  C87  1  0.58233133  0.98607693  0.86302140  1  1.575755  0.028815  0.224865  0.597045  0.028336  4.164669  0.025
C  C88  1  0.36066850  0.49778305  0.09924118  1  -0.039729  0.005212  0.016501  0.152312  0.003876  3.917999  0.003
C  C89  1  0.50221617  0.63933058  0.40075914  1  -0.039848  0.005214  0.016531  0.152417  0.003878  3.918036  0.003
C  C90  1  0.63933201  0.50221646  0.90075567  1  -0.039782  0.005213  0.016523  0.152316  0.003878  3.918186  0.003
C  C91  1  0.49778336  0.36066889  0.59924288  1  -0.039817  0.005213  0.016508  0.15229  0.003877  3.91822  0.003
C  C92  1  0.27681529  0.39746153  0.11817662  1  0.299758  0.000466  -0.056904  -0.085383  0.000272  3.937845  0.0
C  C93  1  0.60253622  0.72317759  0.38182418  1  0.299847  0.000466  -0.05697  -0.085603  0.000272  3.937946  0.0
C  C94  1  0.72318152  0.60253450  0.88182246  1  0.299817  0.000466  -0.056962  -0.085569  0.000272  3.937849  0.0
C  C95  1  0.39746418  0.27681822  0.61817723  1  0.299652  0.000466  -0.056944  -0.085568  0.000272  3.937907  0.0
C  C96  1  0.35100460  0.61337085  0.03895068  1  -0.061918  0.000206  -0.089698  -0.19134  -0.000286  3.979496  0.0
C  C97  1  0.38662716  0.64899883  0.46104902  1  -0.06189  0.000206  -0.089726  -0.191318  -0.000287  3.979347  0.0
C  C98  1  0.64899680  0.38662770  0.96104618  1  -0.061695  0.000205  -0.089736  -0.191297  -0.000287  3.979641  0.0
C  C99  1  0.61336968  0.35100349  0.53895296  1  -0.061693  0.000206  -0.089746  -0.191339  -0.000287  3.979633  0.0
C  C100  1  0.45077154  0.47815071  0.14271850  1  0.013468  0.000138  -0.082907  -0.181146  -0.00041  3.94344  0.0
C  C101  1  0.52184270  0.54922441  0.35728560  1  0.01308  0.000137  -0.082848  -0.181057  -0.000411  3.943431  0.0
C  C102  1  0.54923166  0.52184683  0.85727880  1  0.013449  0.000136  -0.082891  -0.181078  -0.000412  3.943556  0.0
C  C103  1  0.47815494  0.45077329  0.64271971  1  0.013613  0.000136  -0.082863  -0.181031  -0.000412  3.943397  0.0
C  C104  1  0.82165063  0.06425188  0.98106190  1  0.88128  0.031243  0.224988  0.397474  0.024528  3.936592  0.024
C  C105  1  0.93574630  0.17833900  0.51894219  1  0.881252  0.031261  0.224906  0.397488  0.024545  3.936629  0.024
C  C106  1  0.17834063  0.93574521  0.01894561  1  0.881195  0.031265  0.224847  0.397421  0.024548  3.936513  0.024
C  C107  1  0.06425704  0.82166138  0.48104764  1  0.880905  0.031244  0.224906  0.397509  0.024529  3.93678  0.024
C  C108  1  0.52480882  0.57281054  0.12545456  1  0.442733  0.006303  0.0508  0.099027  0.004978  3.958684  0.004
C  C109  1  0.42718485  0.47518653  0.37454863  1  0.442916  0.006303  0.050689  0.098791  0.00498  3.958677  0.004
C  C110  1  0.47519076  0.42718719  0.87454290  1  0.442479  0.006305  0.050739  0.09884  0.00498  3.958427  0.004
C  C111  1  0.57281373  0.52481474  0.62545690  1  0.44258  0.006303  0.050682  0.09875  0.004978  3.958418  0.004
C  C112  1  0.42795497  0.70348479  0.02580401  1  0.522013  0.006633  0.050364  0.098924  0.005234  3.961966  0.004
C  C113  1  0.29651110  0.57204925  0.47419600  1  0.522015  0.006635  0.050302  0.098852  0.005236  3.961857  0.004
C  C114  1  0.57204730  0.29651279  0.97419473  1  0.521964  0.006635  0.050363  0.098924  0.005236  3.962064  0.004
C  C115  1  0.70348396  0.42795588  0.52580575  1  0.522065  0.006634  0.050405  0.09899  0.005235  3.961984  0.004
C  C116  1  0.91611713  0.15216121  0.93488198  1  0.005796  0.000986  -0.194597  -0.428901  0.001379  3.961654  0.0
C  C117  1  0.84784323  0.08388387  0.56511690  1  0.005796  0.000986  -0.194597  -0.428942  0.00138  3.961828  0.0
C  C118  1  0.08387800  0.84784846  0.06511935  1  0.005726  0.000986  -0.194666  -0.428992  0.00138  3.961852  0.0
C  C119  1  0.15215193  0.91612047  0.43487759  1  0.005684  0.000985  -0.194645  -0.42902  0.001379  3.96175  0.0
N  N120  1  0.16888999  0.44076397  0.09088431  1  -1.257623  9.2e-05  -0.447563  -0.336916  -0.000214  3.587315  0.0
N  N121  1  0.55923915  0.83110932  0.40911332  1  -1.257782  9.2e-05  -0.447533  -0.336757  -0.000213  3.587282  0.0
N  N122  1  0.83111046  0.55923369  0.90911482  1  -1.257595  9.2e-05  -0.44756  -0.336844  -0.000214  3.587387  0.0
N  N123  1  0.44076316  0.16889097  0.59088541  1  -1.257636  9.2e-05  -0.447555  -0.336759  -0.000214  3.587284  0.0
N  N124  1  0.51372855  0.68446375  0.06849493  1  -1.271311  0.052034  -0.321297  -0.252363  0.035283  3.514319  0.019
N  N125  1  0.31553000  0.48627135  0.43150893  1  -1.271333  0.052033  -0.321158  -0.252134  0.03528  3.51394  0.019
N  N126  1  0.48627274  0.31553023  0.93150545  1  -1.271278  0.052031  -0.321234  -0.252269  0.035282  3.514023  0.019
N  N127  1  0.68446773  0.51373002  0.56849307  1  -1.271349  0.052025  -0.321245  -0.252275  0.03528  3.514143  0.019
N  N128  1  0.74557433  0.99346130  0.01850311  1  -1.253056  0.042269  -0.293364  -0.400571  0.026666  3.075791  0.004
N  N129  1  0.00654023  0.25442775  0.48149671  1  -1.252979  0.042248  -0.293333  -0.40064  0.026656  3.075465  0.004
N  N130  1  0.25443868  0.00653113  0.98149992  1  -1.252964  0.042246  -0.293251  -0.400577  0.026652  3.075403  0.004
N  N131  1  0.99346414  0.74557985  0.51849064  1  -1.25281  0.042256  -0.293249  -0.400538  0.026657  3.075641  0.004
O  O132  1  0.70136657  0.74297806  0.15823496  1  -1.196243  0.054677  -0.315759  -0.561938  0.038332  2.253857  0.027
O  O133  1  0.25702932  0.29863347  0.34176446  1  -1.196153  0.054682  -0.315768  -0.561976  0.038332  2.253988  0.027
O  O134  1  0.29863307  0.25702688  0.84176394  1  -1.196169  0.054685  -0.315782  -0.562055  0.038337  2.253937  0.027
O  O135  1  0.74297654  0.70136746  0.65823888  1  -1.196268  0.054683  -0.315764  -0.561989  0.038334  2.253787  0.027
O  O136  1  0.80411390  0.70617997  0.02663846  1  -1.194439  0.042695  -0.314519  -0.565068  0.031116  2.1886  0.024
O  O137  1  0.29382515  0.19588570  0.47336271  1  -1.194446  0.042692  -0.314514  -0.564995  0.031119  2.188609  0.024
O  O138  1  0.19588566  0.29382043  0.97336211  1  -1.194466  0.042695  -0.314514  -0.565078  0.031116  2.188649  0.024
O  O139  1  0.70617522  0.80411099  0.52664098  1  -1.194384  0.042687  -0.314554  -0.565082  0.031113  2.188661  0.024
O  O140  1  0.07605151  0.53441296  0.39197589  1  -1.221408  0.081002  -0.319071  -0.57559  0.057385  2.378658  0.038
O  O141  1  0.46558425  0.92394862  0.10801871  1  -1.221401  0.081004  -0.319044  -0.575575  0.057383  2.378654  0.038
O  O142  1  0.92396178  0.46558599  0.60801450  1  -1.22144  0.081014  -0.319093  -0.575528  0.057385  2.378725  0.038
O  O143  1  0.53442068  0.07604519  0.89198090  1  -1.221462  0.081004  -0.319031  -0.575557  0.057383  2.378673  0.038
O  O144  1  0.89504276  0.63566614  0.40691672  1  -1.201319  0.078527  -0.313056  -0.55624  0.054453  2.329479  0.037
O  O145  1  0.36433062  0.10496221  0.09308376  1  -1.201346  0.078528  -0.313116  -0.556361  0.054455  2.329297  0.037
O  O146  1  0.10497023  0.36432269  0.59308466  1  -1.201464  0.078534  -0.313157  -0.556403  0.054456  2.329191  0.037
O  O147  1  0.63566978  0.89503540  0.90691847  1  -1.201375  0.078535  -0.313218  -0.556479  0.054458  2.329308  0.037
