# generated using pymatgen
data_CuH10C10SIN
_symmetry_space_group_name_H-M   'P 1'
_cell_length_a   9.56823086
_cell_length_b   10.24012027
_cell_length_c   12.04915638
_cell_angle_alpha   106.17609568
_cell_angle_beta   90.00005753
_cell_angle_gamma   89.99976257
_symmetry_Int_Tables_number   1
_chemical_formula_structural   CuH10C10SIN
_chemical_formula_sum   'Cu4 H40 C40 S4 I4 N4'
_cell_volume   1133.83541287
_cell_formula_units_Z   4
loop_
 _symmetry_equiv_pos_site_id
 _symmetry_equiv_pos_as_xyz
  1  'x, y, z'
loop_
 _atom_site_type_symbol
 _atom_site_label
 _atom_site_symmetry_multiplicity
 _atom_site_fract_x
 _atom_site_fract_y
 _atom_site_fract_z
 _atom_site_occupancy
 _atom_site_pbe_bader_spin_density
 _atom_site_pbe_cm5_charge
 _atom_site_pbe_ddec_charge
 _atom_site_pbe_ddec_spin_density
 _atom_site_pbe_ddec_sum_bond_order
 _atom_site_pbe_magmom
Cu  Cu0  1  0.60138508  0.54217207  0.45615497  1  0  0.26743  0.112922  0  2.836083  0
Cu  Cu1  1  0.89861491  0.04217142  0.95615566  1  0  0.267435  0.112919  0  2.836182  0
Cu  Cu2  1  0.39862161  0.45783523  0.54384661  1  0  0.267367  0.112822  0  2.836116  0
Cu  Cu3  1  0.10137506  0.95783079  0.04384474  1  0  0.267381  0.112845  0  2.836165  0
H  H4  1  0.75655178  0.06189989  0.56485912  1  0  0.093  0.09393  0  1.038276  0
H  H5  1  0.74344971  0.56189391  0.06486032  1  0  0.09299  0.093934  0  1.038265  0
H  H6  1  0.24347058  0.93810130  0.43513939  1  0  0.092904  0.093784  0  1.038268  0
H  H7  1  0.25653085  0.43810117  0.93513595  1  0  0.092928  0.093788  0  1.038261  0
H  H8  1  0.77900569  0.82884396  0.63966190  1  0  0.09843  0.118714  0  1.026981  0
H  H9  1  0.72099053  0.32883541  0.13966430  1  0  0.098429  0.118749  0  1.026937  0
H  H10  1  0.22101563  0.17115723  0.36033744  1  0  0.098407  0.118727  0  1.026879  0
H  H11  1  0.27898689  0.67115257  0.86033365  1  0  0.098396  0.118669  0  1.026887  0
H  H12  1  0.87117969  0.69958127  0.53819279  1  0  0.095456  0.112302  0  1.005675  0
H  H13  1  0.62881907  0.19957715  0.03819614  1  0  0.095472  0.112318  0  1.005683  0
H  H14  1  0.12884267  0.30041779  0.46179527  1  0  0.095465  0.112274  0  1.00562  0
H  H15  1  0.37116150  0.80041686  0.96179407  1  0  0.095479  0.112281  0  1.005577  0
H  H16  1  0.64152266  0.69179431  0.26292822  1  0  0.101355  0.127379  0  1.006102  0
H  H17  1  0.85847642  0.19179080  0.76293237  1  0  0.101357  0.127393  0  1.006111  0
H  H18  1  0.35847358  0.30820893  0.73707326  1  0  0.10137  0.127444  0  1.006064  0
H  H19  1  0.14153027  0.80819824  0.23706997  1  0  0.10138  0.12746  0  1.006109  0
H  H20  1  0.79393622  0.79361946  0.30284463  1  0  0.089745  0.123473  0  1.021571  0
H  H21  1  0.70606246  0.29361550  0.80284442  1  0  0.089775  0.123526  0  1.021531  0
H  H22  1  0.20606316  0.20637759  0.69714545  1  0  0.089798  0.123543  0  1.021479  0
H  H23  1  0.29394527  0.70638044  0.19713545  1  0  0.089784  0.123517  0  1.021542  0
H  H24  1  0.08568425  0.76393623  0.47271691  1  0  0.090374  0.091683  0  1.041076  0
H  H25  1  0.41431800  0.26393957  0.97271688  1  0  0.090384  0.091684  0  1.041101  0
H  H26  1  0.91433916  0.23606395  0.52728303  1  0  0.090374  0.091638  0  1.041076  0
H  H27  1  0.58566465  0.73606366  0.02728376  1  0  0.090386  0.091703  0  1.040983  0
H  H28  1  0.80056764  0.29533354  0.37097944  1  0  0.108523  0.079392  0  1.015658  0
H  H29  1  0.69944157  0.79533024  0.87097922  1  0  0.10851  0.079421  0  1.015602  0
H  H30  1  0.19943278  0.70466249  0.62901041  1  0  0.108525  0.079475  0  1.015604  0
H  H31  1  0.30055989  0.20466991  0.12901822  1  0  0.108529  0.079503  0  1.015613  0
H  H32  1  0.97229861  0.64286402  0.19443417  1  0  0.098237  0.108946  0  1.043243  0
H  H33  1  0.52770269  0.14285562  0.69442615  1  0  0.098244  0.108883  0  1.04328  0
H  H34  1  0.02771122  0.35714329  0.80556908  1  0  0.098293  0.108999  0  1.043191  0
H  H35  1  0.47228310  0.85714353  0.30557189  1  0  0.098317  0.108955  0  1.043266  0
H  H36  1  0.01555421  0.24505420  0.24886621  1  0  0.099423  0.112088  0  1.027251  0
H  H37  1  0.48445202  0.74504775  0.74886548  1  0  0.099398  0.11203  0  1.027287  0
H  H38  1  0.98445352  0.75494698  0.75113147  1  0  0.099383  0.112022  0  1.027328  0
H  H39  1  0.51554004  0.25495250  0.25114194  1  0  0.099401  0.11197  0  1.027362  0
H  H40  1  0.10685695  0.42536478  0.16079701  1  0  0.103365  0.10742  0  0.991468  0
H  H41  1  0.39314628  0.92535560  0.66079143  1  0  0.10337  0.107459  0  0.991343  0
H  H42  1  0.89316124  0.57464667  0.83921549  1  0  0.103367  0.107448  0  0.991296  0
H  H43  1  0.60683114  0.07464777  0.33922584  1  0  0.103368  0.1074  0  0.99135  0
C  C44  1  0.86381408  0.03481506  0.53708814  1  0  -0.09877  -0.135471  0  3.99283  0
C  C45  1  0.63618959  0.53480644  0.03708782  1  0  -0.098828  -0.135472  0  3.992857  0
C  C46  1  0.13620724  0.96519329  0.46291783  1  0  -0.098686  -0.135181  0  3.992772  0
C  C47  1  0.36379933  0.46518767  0.96291403  1  0  -0.098753  -0.135248  0  3.992721  0
C  C48  1  0.91068393  0.90178496  0.52380610  1  0  -0.020545  0.119219  0  3.991998  0
C  C49  1  0.58932019  0.40177893  0.02380483  1  0  -0.020514  0.11919  0  3.99208  0
C  C50  1  0.08933844  0.09822548  0.47620700  1  0  -0.02071  0.11897  0  3.992154  0
C  C51  1  0.41066769  0.59821625  0.97620308  1  0  -0.020652  0.119042  0  3.99193  0
C  C52  1  0.81730850  0.79721084  0.55033747  1  0  -0.151861  -0.233244  0  3.907803  0
C  C53  1  0.68268566  0.29720548  0.05033975  1  0  -0.151895  -0.233318  0  3.907907  0
C  C54  1  0.18270864  0.20278831  0.44965973  1  0  -0.151866  -0.233299  0  3.907597  0
C  C55  1  0.31729177  0.70278655  0.94965665  1  0  -0.151839  -0.23318  0  3.907325  0
C  C56  1  0.73282794  0.71112714  0.32105200  1  0  -0.153994  -0.275705  0  3.902714  0
C  C57  1  0.76717113  0.21112295  0.82105261  1  0  -0.154055  -0.275841  0  3.902761  0
C  C58  1  0.26717562  0.28887095  0.67894081  1  0  -0.154092  -0.275948  0  3.902584  0
C  C59  1  0.23282406  0.78887312  0.17894140  1  0  -0.154081  -0.275926  0  3.902667  0
C  C60  1  0.04769477  0.86772134  0.48546093  1  0  -0.098296  -0.137596  0  3.988105  0
C  C61  1  0.45230913  0.36771845  0.98546198  1  0  -0.098285  -0.137491  0  3.988087  0
C  C62  1  0.95233491  0.13228091  0.51454281  1  0  -0.098155  -0.137183  0  3.988011  0
C  C63  1  0.54766934  0.63227262  0.01454000  1  0  -0.098189  -0.137381  0  3.987995  0
C  C64  1  0.81785333  0.58318093  0.30070462  1  0  0.11064  0.259559  0  3.927212  0
C  C65  1  0.68215151  0.08318112  0.80070368  1  0  0.110604  0.259555  0  3.927269  0
C  C66  1  0.18214605  0.41681921  0.69929033  1  0  0.110588  0.259468  0  3.92738  0
C  C67  1  0.31784787  0.91681902  0.19929126  1  0  0.110635  0.25958  0  3.927266  0
C  C68  1  0.84260343  0.36961568  0.33016912  1  0  0.037479  0.083561  0  3.943569  0
C  C69  1  0.65739913  0.86961356  0.83016915  1  0  0.037456  0.083446  0  3.943584  0
C  C70  1  0.15738967  0.63038238  0.66982037  1  0  0.037421  0.083404  0  3.943429  0
C  C71  1  0.34260129  0.13038760  0.16982687  1  0  0.037368  0.083282  0  3.943503  0
C  C72  1  0.93824654  0.56352438  0.23266869  1  0  -0.088269  -0.177663  0  3.935737  0
C  C73  1  0.56175935  0.06351893  0.73266553  1  0  -0.088254  -0.177592  0  3.935735  0
C  C74  1  0.06176224  0.43648090  0.76733491  1  0  -0.088273  -0.177666  0  3.935976  0
C  C75  1  0.43822853  0.93648332  0.26733903  1  0  -0.08831  -0.177712  0  3.936069  0
C  C76  1  0.96330183  0.34282479  0.26299258  1  0  -0.089624  -0.13518  0  3.98669  0
C  C77  1  0.53670285  0.84282314  0.76299179  1  0  -0.089606  -0.135118  0  3.986578  0
C  C78  1  0.03670486  0.65717340  0.73701188  1  0  -0.089563  -0.135113  0  3.986567  0
C  C79  1  0.46328712  0.15718020  0.23702133  1  0  -0.089543  -0.135102  0  3.98652  0
C  C80  1  0.01234209  0.44194930  0.21332776  1  0  -0.072641  -0.018275  0  3.983072  0
C  C81  1  0.48766532  0.94194383  0.71332395  1  0  -0.07263  -0.01831  0  3.982943  0
C  C82  1  0.98766878  0.55804990  0.78667610  1  0  -0.072664  -0.018286  0  3.982959  0
C  C83  1  0.51232465  0.05805338  0.28668443  1  0  -0.072662  -0.018075  0  3.982856  0
S  S84  1  0.65741689  0.76628164  0.46468296  1  0  -0.029267  0.068818  0  3.100056  0
S  S85  1  0.84257898  0.26627514  0.96468475  1  0  -0.029256  0.068879  0  3.100124  0
S  S86  1  0.34259398  0.23372359  0.53531483  1  0  -0.029182  0.069019  0  3.100049  0
S  S87  1  0.15740472  0.73372298  0.03531139  1  0  -0.029208  0.068951  0  3.099968  0
I  I88  1  0.64642190  0.46600365  0.64182476  1  0  -0.233254  -0.374733  0  1.785573  0
I  I89  1  0.85357476  0.96601349  0.14182804  1  0  -0.233263  -0.374769  0  1.785551  0
I  I90  1  0.35358374  0.53399347  0.35817364  1  0  -0.233314  -0.374806  0  1.785588  0
I  I91  1  0.14641521  0.03399585  0.85817484  1  0  -0.233323  -0.374834  0  1.785599  0
N  N92  1  0.77065781  0.48705113  0.34911121  1  0  -0.356876  -0.231613  0  3.582235  0
N  N93  1  0.72934530  0.98704771  0.84911099  1  0  -0.356821  -0.231499  0  3.582234  0
N  N94  1  0.22934366  0.51294902  0.65088456  1  0  -0.356805  -0.231455  0  3.582211  0
N  N95  1  0.27064989  0.01295347  0.15088751  1  0  -0.356819  -0.231493  0  3.582162  0
