# generated using pymatgen
data_LiH12C3SeN3
_symmetry_space_group_name_H-M   'P 1'
_cell_length_a   7.04724203
_cell_length_b   6.94477989
_cell_length_c   7.41592784
_cell_angle_alpha   72.57880692
_cell_angle_beta   86.72085695
_cell_angle_gamma   89.57915762
_symmetry_Int_Tables_number   1
_chemical_formula_structural   LiH12C3SeN3
_chemical_formula_sum   'Li2 H24 C6 Se2 N6'
_cell_volume   345.71324319
_cell_formula_units_Z   2
loop_
 _symmetry_equiv_pos_site_id
 _symmetry_equiv_pos_as_xyz
  1  'x, y, z'
loop_
 _atom_site_type_symbol
 _atom_site_label
 _atom_site_symmetry_multiplicity
 _atom_site_fract_x
 _atom_site_fract_y
 _atom_site_fract_z
 _atom_site_occupancy
 _atom_site_hle17_bader_spin_density
 _atom_site_hle17_ddec_charge
 _atom_site_hle17_ddec_spin_density
 _atom_site_hle17_ddec_sum_bond_order
 _atom_site_hle17_magmom
 _atom_site_hse06_10hf_bader_spin_density
 _atom_site_hse06_10hf_ddec_charge
 _atom_site_hse06_10hf_ddec_spin_density
 _atom_site_hse06_10hf_ddec_sum_bond_order
 _atom_site_hse06_10hf_magmom
 _atom_site_hse06_bader_spin_density
 _atom_site_hse06_ddec_charge
 _atom_site_hse06_ddec_spin_density
 _atom_site_hse06_ddec_sum_bond_order
 _atom_site_hse06_magmom
 _atom_site_pbe_bader_spin_density
 _atom_site_pbe_cm5_charge
 _atom_site_pbe_ddec_charge
 _atom_site_pbe_ddec_spin_density
 _atom_site_pbe_ddec_sum_bond_order
 _atom_site_pbe_magmom
Li  Li0  1  0.18318592  0.18807991  0.20665203  1  0  0.762703  0  0.517518  0  0  0.699213  0  0.65422  0  0  0.708027  0  0.641431  0  0  0.4371  0.693056  0  0.663077  0
Li  Li1  1  0.81681330  0.81192130  0.79334599  1  0  0.762698  0  0.517616  0  0  0.699225  0  0.654308  0  0  0.708036  0  0.641517  0  0  0.437174  0.693071  0  0.663168  0
H  H2  1  0.19244279  0.36103379  0.88144349  1  0  0.268348  0  0.959942  0  0  0.256117  0  1.027723  0  0  0.261941  0  1.0231  0  0  0.268206  0.251986  0  1.031009  0
H  H3  1  0.80755079  0.63894629  0.11854182  1  0  0.26855  0  0.959739  0  0  0.256337  0  1.02748  0  0  0.262163  0  1.022855  0  0  0.268311  0.252208  0  1.030766  0
H  H4  1  0.18322645  0.56366331  0.95882189  1  0  0.267587  0  0.9688  0  0  0.254486  0  1.039566  0  0  0.260706  0  1.03464  0  0  0.261851  0.250046  0  1.043118  0
H  H5  1  0.81676143  0.43631823  0.04116733  1  0  0.267579  0  0.968713  0  0  0.254524  0  1.039395  0  0  0.260741  0  1.034472  0  0  0.261866  0.25009  0  1.04295  0
H  H6  1  0.48749163  0.57110422  0.78491779  1  0  0.027654  0  0.952924  0  0  0.044139  0  1.02262  0  0  0.044712  0  1.022405  0  0  0.092893  0.043612  0  1.022912  0
H  H7  1  0.51249349  0.42889091  0.21506238  1  0  0.02745  0  0.952897  0  0  0.043916  0  1.022594  0  0  0.04449  0  1.022373  0  0  0.092777  0.043368  0  1.022909  0
H  H8  1  0.51972043  0.31817898  0.92431496  1  0  0.042925  0  0.954075  0  0  0.058565  0  1.023573  0  0  0.059479  0  1.023121  0  0  0.096395  0.057761  0  1.024099  0
H  H9  1  0.48027614  0.68181773  0.07565477  1  0  0.042899  0  0.954045  0  0  0.05851  0  1.023538  0  0  0.059424  0  1.023085  0  0  0.09637  0.057704  0  1.024071  0
H  H10  1  0.32101563  0.86035692  0.25298549  1  0  0.269123  0  0.951844  0  0  0.257686  0  1.021444  0  0  0.263285  0  1.016699  0  0  0.275284  0.253724  0  1.02481  0
H  H11  1  0.67899927  0.13964439  0.74700635  1  0  0.269149  0  0.951874  0  0  0.257724  0  1.021427  0  0  0.263318  0  1.016687  0  0  0.275415  0.253766  0  1.024789  0
H  H12  1  0.50921030  0.00343748  0.18912040  1  0  0.276412  0  0.948396  0  0  0.267551  0  1.012363  0  0  0.273272  0  1.007874  0  0  0.26588  0.263431  0  1.015721  0
H  H13  1  0.49082031  0.99659108  0.81086983  1  0  0.276427  0  0.948373  0  0  0.267629  0  1.012231  0  0  0.273342  0  1.007752  0  0  0.265998  0.263513  0  1.015589  0
H  H14  1  0.55885188  0.78744425  0.50018171  1  0  0.037921  0  0.949641  0  0  0.053545  0  1.018347  0  0  0.054471  0  1.017524  0  0  0.096048  0.052795  0  1.019048  0
H  H15  1  0.44116148  0.21256456  0.49982969  1  0  0.037998  0  0.949779  0  0  0.053637  0  1.018511  0  0  0.054553  0  1.017679  0  0  0.096088  0.052892  0  1.019214  0
H  H16  1  0.33150831  0.85700360  0.57594261  1  0  0.044065  0  0.950903  0  0  0.066731  0  1.008089  0  0  0.066658  0  1.008716  0  0  0.098995  0.066666  0  1.007841  0
H  H17  1  0.66849242  0.14302628  0.42405274  1  0  0.043989  0  0.950975  0  0  0.06673  0  1.008143  0  0  0.066648  0  1.008762  0  0  0.098984  0.066674  0  1.007893  0
H  H18  1  0.93050014  0.23319972  0.40138345  1  0  0.252756  0  0.969656  0  0  0.246333  0  1.029123  0  0  0.251905  0  1.024433  0  0  0.272579  0.242289  0  1.032674  0
H  H19  1  0.06953578  0.76679108  0.59864806  1  0  0.252594  0  0.969503  0  0  0.246236  0  1.02894  0  0  0.251806  0  1.024264  0  0  0.272365  0.242206  0  1.032451  0
H  H20  1  0.07810205  0.16500686  0.57279684  1  0  0.261345  0  0.992131  0  0  0.245335  0  1.069269  0  0  0.252183  0  1.063937  0  0  0.252083  0.24047  0  1.07305  0
H  H21  1  0.92189882  0.83500196  0.42717066  1  0  0.26117  0  0.992014  0  0  0.245189  0  1.069224  0  0  0.252042  0  1.06389  0  0  0.251892  0.240326  0  1.072998  0
H  H22  1  0.07952914  0.57257456  0.29310597  1  0  0.049334  0  0.947836  0  0  0.064283  0  1.017792  0  0  0.065403  0  1.017025  0  0  0.098003  0.063369  0  1.018477  0
H  H23  1  0.92044261  0.42741730  0.70696072  1  0  0.049443  0  0.947346  0  0  0.064215  0  1.017562  0  0  0.065347  0  1.016789  0  0  0.097843  0.063296  0  1.018248  0
H  H24  1  0.21790365  0.48928161  0.49287724  1  0  0.046063  0  0.915048  0  0  0.069918  0  0.971528  0  0  0.069819  0  0.971987  0  0  0.099614  0.069866  0  0.971384  0
H  H25  1  0.78204994  0.51072229  0.50714651  1  0  0.046079  0  0.914898  0  0  0.069923  0  0.971427  0  0  0.069826  0  0.971891  0  0  0.099581  0.069868  0  0.971278  0
C  C26  1  0.45450368  0.46229649  0.92593722  1  0  0.07785  0  3.679411  0  0  0.025929  0  3.94381  0  0  0.029006  0  3.956114  0  0  -0.073384  0.023968  0  3.935305  0
C  C27  1  0.54549285  0.53769871  0.07403698  1  0  0.078444  0  3.679287  0  0  0.026741  0  3.943422  0  0  0.029823  0  3.95573  0  0  -0.073119  0.024779  0  3.934932  0
C  C28  1  0.45546642  0.91157451  0.47626099  1  0  0.078929  0  3.666907  0  0  0.027142  0  3.93191  0  0  0.030157  0  3.944178  0  0  -0.06855  0.025193  0  3.923488  0
C  C29  1  0.54454835  0.08846295  0.52376258  1  0  0.078738  0  3.667911  0  0  0.026725  0  3.9331  0  0  0.029806  0  3.945305  0  0  -0.068645  0.024745  0  3.924702  0
C  C30  1  0.07877369  0.46950216  0.43893208  1  0  0.061518  0  3.688935  0  0  0.008435  0  3.960153  0  0  0.011963  0  3.971504  0  0  -0.075838  0.006131  0  3.952322  0
C  C31  1  0.92126958  0.53040133  0.56103038  1  0  0.061327  0  3.685706  0  0  0.008294  0  3.95705  0  0  0.011801  0  3.9684  0  0  -0.075795  0.005992  0  3.949252  0
Se  Se32  1  0.87500346  0.04512367  0.09788191  1  0  -0.656909  0  1.774827  0  0  -0.587556  0  2.126018  0  0  -0.603639  0  2.110204  0  0  -0.245785  -0.575722  0  2.13666  0
Se  Se33  1  0.12500552  0.95482629  0.90212588  1  0  -0.656981  0  1.77484  0  0  -0.587612  0  2.125967  0  0  -0.603689  0  2.110151  0  0  -0.24582  -0.575781  0  2.136605  0
N  N34  1  0.24975443  0.42759022  0.97248625  1  0  -0.729466  0  3.093723  0  0  -0.688727  0  3.329217  0  0  -0.703004  0  3.327072  0  0  -0.717778  -0.678673  0  3.330645  0
N  N35  1  0.75023486  0.57238983  0.02750332  1  0  -0.729692  0  3.093626  0  0  -0.689123  0  3.329169  0  0  -0.7034  0  3.327022  0  0  -0.717856  -0.679075  0  3.3306  0
N  N36  1  0.39127296  0.97532849  0.28229417  1  0  -0.717159  0  3.070182  0  0  -0.684638  0  3.312044  0  0  -0.698017  0  3.309954  0  0  -0.712737  -0.675244  0  3.313505  0
N  N37  1  0.60873075  0.02471652  0.71768602  1  0  -0.717094  0  3.071102  0  0  -0.684588  0  3.313044  0  0  -0.697972  0  3.310927  0  0  -0.712949  -0.675196  0  3.314519  0
N  N38  1  0.06426960  0.25990240  0.43646812  1  0  -0.720866  0  3.104534  0  0  -0.684349  0  3.346245  0  0  -0.698207  0  3.343201  0  0  -0.720788  -0.674575  0  3.348408  0
N  N39  1  0.93567825  0.74017079  0.56359052  1  0  -0.7209  0  3.101101  0  0  -0.684369  0  3.342704  0  0  -0.698228  0  3.339652  0  0  -0.720552  -0.674597  0  3.344868  0
