# generated using pymatgen
data_Cu3H21C26N8ClO8
_symmetry_space_group_name_H-M   'P 1'
_cell_length_a   10.04866983
_cell_length_b   12.04749892
_cell_length_c   14.36182027
_cell_angle_alpha   95.06470584
_cell_angle_beta   101.07932522
_cell_angle_gamma   113.37737101
_symmetry_Int_Tables_number   1
_chemical_formula_structural   Cu3H21C26N8ClO8
_chemical_formula_sum   'Cu6 H42 C52 N16 Cl2 O16'
_cell_volume   1539.84602335
_cell_formula_units_Z   2
loop_
 _symmetry_equiv_pos_site_id
 _symmetry_equiv_pos_as_xyz
  1  'x, y, z'
loop_
 _atom_site_type_symbol
 _atom_site_label
 _atom_site_symmetry_multiplicity
 _atom_site_fract_x
 _atom_site_fract_y
 _atom_site_fract_z
 _atom_site_occupancy
 _atom_site_pbe_bader_charge
 _atom_site_pbe_bader_spin_density
 _atom_site_pbe_cm5_charge
 _atom_site_pbe_ddec_charge
 _atom_site_pbe_ddec_spin_density
 _atom_site_pbe_ddec_sum_bond_order
 _atom_site_pbe_magmom
Cu  Cu0  1  0.42840672  0.54973764  0.44744917  1  1.061395  -0.534412  0.678347  0.740946  -0.710486  2.410666  -0.532
Cu  Cu1  1  0.57159180  0.45025600  0.55255289  1  1.061771  0.534382  0.678382  0.74099  0.710452  2.410592  0.531
Cu  Cu2  1  0.04743292  0.82155166  0.14054556  1  0.990098  0.530779  0.686312  0.682824  0.706505  2.4586  0.53
Cu  Cu3  1  0.95257474  0.17845395  0.85945443  1  0.990149  -0.530768  0.686309  0.682821  -0.706493  2.458478  -0.53
Cu  Cu4  1  0.83357600  0.98151732  0.22905009  1  1.013104  0.529668  0.707008  0.70632  0.705479  2.417485  0.528
Cu  Cu5  1  0.16642116  0.01848364  0.77095160  1  1.013157  -0.52967  0.706969  0.706301  -0.705477  2.41752  -0.528
H  H6  1  0.94059405  0.60145937  0.27342346  1  0.087735  0.001015  0.127123  0.10809  0.000488  0.981842  0.001
H  H7  1  0.05940516  0.39854160  0.72657643  1  0.087777  -0.001015  0.127095  0.108079  -0.000488  0.981803  -0.001
H  H8  1  0.08772150  0.51432099  0.38249527  1  0.138274  0.000681  0.126865  0.111592  0.000351  0.999441  0.0
H  H9  1  0.91226897  0.48567076  0.61750484  1  0.138371  -0.000681  0.12686  0.111552  -0.000351  0.999478  0.0
H  H10  1  0.47799087  0.74544320  0.31449854  1  0.169668  0.000788  0.126643  0.108291  0.000552  1.020805  0.001
H  H11  1  0.52200585  0.25455503  0.68550986  1  0.169839  -0.000788  0.126616  0.108196  -0.000552  1.020784  -0.001
H  H12  1  0.51698306  0.07976875  0.16772720  1  0.132593  -0.000376  0.114522  0.126366  -0.00027  1.016028  0.0
H  H13  1  0.48302268  0.92023501  0.83226961  1  0.132424  0.000376  0.114494  0.126342  0.00027  1.015883  0.0
H  H14  1  0.59121848  0.23954023  0.06382785  1  0.0793  -0.000394  0.112044  0.119426  -0.000251  0.972494  0.0
H  H15  1  0.40877928  0.76045981  0.93616968  1  0.07928  0.000394  0.112056  0.119413  0.000251  0.972475  0.0
H  H16  1  0.79168687  0.64221525  0.00385087  1  0.109664  0.001279  0.111972  0.093605  0.000463  1.041907  0.002
H  H17  1  0.20831221  0.35778938  0.99614577  1  0.109626  -0.00128  0.112028  0.093703  -0.000464  1.041937  -0.002
H  H18  1  0.70897633  0.54591462  0.82744229  1  0.093803  0.000707  0.10618  0.110946  0.000488  1.022192  0.0
H  H19  1  0.29102600  0.45409644  0.17255595  1  0.093808  -0.000708  0.106184  0.110967  -0.000488  1.02208  0.0
H  H20  1  0.66561638  0.51500571  0.18748004  1  0.05075  0.001186  0.098837  0.157124  0.000556  0.986749  0.001
H  H21  1  0.33438745  0.48499438  0.81252112  1  0.05078  -0.001187  0.09881  0.157085  -0.000557  0.98678  -0.001
H  H22  1  0.53159309  0.56973176  0.13936802  1  0.04795  0.0  0.10061  0.151937  -8.1e-05  0.983713  0.0
H  H23  1  0.46840870  0.43026832  0.86063356  1  0.047915  -0.0  0.100611  0.151961  8.1e-05  0.983646  0.0
H  H24  1  0.59374446  0.58885308  0.26636289  1  0.109722  0.001953  0.099386  0.168332  0.000984  1.028188  0.001
H  H25  1  0.40625583  0.41114607  0.73363980  1  0.109735  -0.001953  0.099406  0.168373  -0.000984  1.028192  -0.001
H  H26  1  0.41441213  0.20678061  0.90421545  1  0.114836  -0.001722  0.113299  0.083894  -0.0007  1.037051  -0.001
H  H27  1  0.58558867  0.79321945  0.09578320  1  0.114861  0.001722  0.113276  0.083831  0.000699  1.037214  0.001
H  H28  1  0.87185890  0.64488947  0.71964599  1  0.119066  0.000411  0.114376  0.128456  0.000216  1.005223  0.001
H  H29  1  0.12814817  0.35511707  0.28035886  1  0.10952  -0.000401  0.114372  0.12843  -0.000216  1.005204  -0.001
H  H30  1  0.27869903  0.73050421  0.56001483  1  0.159997  -0.001574  0.118883  0.106268  -0.001027  1.024644  -0.001
H  H31  1  0.72128894  0.26948661  0.43998417  1  0.159889  0.001574  0.118854  0.106235  0.001027  1.024675  0.001
H  H32  1  0.36014143  0.05698695  0.45565869  1  0.122619  -0.001338  0.119752  0.102971  -0.000717  0.977345  -0.001
H  H33  1  0.63984682  0.94301026  0.54433313  1  0.122666  0.001337  0.119711  0.102858  0.000716  0.977378  0.001
H  H34  1  0.28427683  0.13781681  0.59448318  1  0.165503  -0.001582  0.121291  0.103727  -0.000591  1.049751  -0.002
H  H35  1  0.71573331  0.86218974  0.40552070  1  0.165674  0.001582  0.121311  0.103743  0.000591  1.049828  0.002
H  H36  1  0.88640173  0.79168016  0.40579660  1  0.077817  0.001825  0.098487  0.159016  0.000863  1.01499  0.001
H  H37  1  0.11355971  0.20830040  0.59420146  1  0.077561  -0.001826  0.098508  0.159088  -0.000863  1.014868  -0.001
H  H38  1  0.98337572  0.72525857  0.48505025  1  0.059223  -0.001711  0.095456  0.14958  -0.000799  1.019203  -0.001
H  H39  1  0.01664787  0.27475810  0.51493602  1  0.059096  0.001711  0.095495  0.149594  0.000799  1.019085  0.001
H  H40  1  0.93152373  0.83907564  0.53306925  1  0.071395  2e-06  0.103624  0.164333  -1.3e-05  0.985264  0.0
H  H41  1  0.06848040  0.16093084  0.46692265  1  0.071215  -2e-06  0.103629  0.164397  1.2e-05  0.985182  0.0
H  H42  1  0.42725112  0.30176924  0.19604814  1  0.045871  0.002445  0.091704  0.14396  0.001193  1.020634  0.001
H  H43  1  0.57274445  0.69824453  0.80395074  1  0.046035  -0.002446  0.09178  0.144039  -0.001194  1.020645  -0.001
H  H44  1  0.39515794  0.18111132  0.26396567  1  0.101207  -0.000575  0.096788  0.168274  -0.000231  0.993877  0.0
H  H45  1  0.60484932  0.81888325  0.73602305  1  0.10086  0.000573  0.096811  0.168286  0.00023  0.993889  0.0
H  H46  1  0.58304212  0.27983871  0.26356737  1  0.068664  -0.001169  0.097505  0.155172  -0.000561  1.026241  -0.001
H  H47  1  0.41695683  0.72015947  0.73641975  1  0.068639  0.001167  0.09754  0.155292  0.00056  1.02638  0.001
C  C48  1  0.06123414  0.63482949  0.28392658  1  0.543651  -0.000292  0.065293  0.072472  0.000483  3.887705  0.0
C  C49  1  0.93876082  0.36516503  0.71607018  1  0.543624  0.000291  0.065345  0.072473  -0.000482  3.887567  0.0
C  C50  1  0.14291532  0.58694324  0.34439096  1  0.523817  0.002491  0.065725  0.060762  0.001773  3.881087  0.002
C  C51  1  0.85708414  0.41306233  0.65561485  1  0.523517  -0.00249  0.06573  0.06082  -0.001773  3.88124  -0.002
C  C52  1  0.35797574  0.71315231  0.30684023  1  0.508295  0.001945  0.067356  0.045715  0.001358  3.879786  0.001
C  C53  1  0.64202909  0.28684780  0.69316386  1  0.50792  -0.001945  0.06742  0.045832  -0.001358  3.87972  -0.001
C  C54  1  0.27649041  0.76098828  0.24628410  1  0.501683  -0.002354  0.123498  0.090397  -0.001723  3.965807  -0.002
C  C55  1  0.72350889  0.23900905  0.75372460  1  0.50177  0.002354  0.123473  0.090295  0.001723  3.96587  0.002
C  C56  1  0.35155072  0.85668735  0.19096693  1  1.40987  -0.001366  0.220465  0.431336  0.000433  4.180692  0.0
C  C57  1  0.64844598  0.14330260  0.80902975  1  1.410017  0.001369  0.220561  0.431582  -0.000434  4.181018  0.0
C  C58  1  0.30257899  0.96937153  0.06956427  1  0.46426  -0.010999  0.106014  0.187236  -0.006759  4.003586  -0.01
C  C59  1  0.69742486  0.03062856  0.93043550  1  0.464493  0.011002  0.106034  0.187209  0.006762  4.003527  0.01
C  C60  1  0.44272880  0.07185842  0.09935578  1  0.024144  0.019815  -0.068269  -0.100369  0.013446  3.907599  0.013
C  C61  1  0.55727030  0.92814439  0.90064770  1  0.024358  -0.01982  -0.068241  -0.10032  -0.01345  3.907329  -0.013
C  C62  1  0.48367878  0.15918080  0.04141797  1  -0.045175  -0.01016  -0.084386  -0.113344  -0.006923  4.004682  -0.008
C  C63  1  0.51632095  0.84081927  0.95858610  1  -0.045466  0.010164  -0.084462  -0.113437  0.006925  4.004629  0.008
C  C64  1  0.07201271  0.84195594  0.93377153  1  0.500497  -0.016366  0.120143  0.107782  -0.010223  3.888625  -0.012
C  C65  1  0.92799009  0.15804415  0.06623158  1  0.500486  0.016367  0.120194  0.107778  0.010223  3.888661  0.012
C  C66  1  0.85743982  0.68129882  0.95330259  1  0.442908  -0.020279  0.027285  0.060412  -0.013687  3.978277  -0.013
C  C67  1  0.14255638  0.31870212  0.04669339  1  0.442853  0.020281  0.02714  0.060095  0.013689  3.978485  0.013
C  C68  1  0.81372610  0.62744387  0.85633596  1  0.0179  0.011176  -0.088326  -0.112926  0.007634  4.016435  0.009
C  C69  1  0.18627714  0.37255895  0.14366113  1  0.017995  -0.011178  -0.088376  -0.112853  -0.007636  4.016211  -0.009
C  C70  1  0.75016056  0.71248746  0.19738695  1  1.563465  0.00081  0.217843  0.6782  0.002588  4.12326  -0.001
C  C71  1  0.24983503  0.28751441  0.80261527  1  1.562974  -0.000809  0.21786  0.678297  -0.002587  4.123082  0.001
C  C72  1  0.62914851  0.58851921  0.19897927  1  -0.098863  0.014805  -0.246271  -0.523007  0.010957  3.868664  0.011
C  C73  1  0.37085281  0.41147995  0.80102218  1  -0.098853  -0.014805  -0.246244  -0.523037  -0.010958  3.868629  -0.011
C  C74  1  0.38573611  0.14216720  0.95313842  1  0.477974  0.015359  0.034521  0.082532  0.01032  3.987773  0.01
C  C75  1  0.61426558  0.85783471  0.04686466  1  0.478277  -0.015364  0.034583  0.082652  -0.010323  3.987886  -0.01
C  C76  1  0.21064149  0.95534507  0.97624443  1  0.491375  0.013249  0.120159  0.104573  0.008186  3.887424  0.01
C  C77  1  0.78936625  0.04465871  0.02375684  1  0.490909  -0.013255  0.120156  0.10462  -0.008191  3.887321  -0.01
C  C78  1  0.90351005  0.68164599  0.79648345  1  -0.000568  -0.024702  -0.064992  -0.090501  -0.016716  3.893809  -0.016
C  C79  1  0.09650091  0.31835415  0.20351802  1  0.009333  0.024691  -0.06492  -0.090458  0.016716  3.893876  0.016
C  C80  1  0.03504311  0.78957499  0.83430314  1  0.473578  0.012336  0.104772  0.190579  0.007516  4.028806  0.012
C  C81  1  0.96496062  0.21042694  0.16570023  1  0.472968  -0.012336  0.10469  0.190554  -0.007517  4.028932  -0.012
C  C82  1  0.16136627  0.78444981  0.70921338  1  1.400625  0.001686  0.21944  0.432455  -0.000103  4.202554  0.0
C  C83  1  0.83863475  0.21554476  0.29078840  1  1.400519  -0.001687  0.219371  0.432351  0.000102  4.202691  0.0
C  C84  1  0.22598028  0.86219049  0.63925330  1  0.5  0.002139  0.118431  0.070951  0.001347  3.969721  0.002
C  C85  1  0.77400856  0.13780400  0.36074468  1  0.500203  -0.00214  0.118404  0.071003  -0.001348  3.969591  -0.002
C  C86  1  0.27599496  0.82043371  0.56505444  1  0.502722  -0.00337  0.057607  0.035153  -0.002436  3.906905  -0.002
C  C87  1  0.72399543  0.17955987  0.43494439  1  0.502781  0.003369  0.057658  0.035161  0.002436  3.906831  0.002
C  C88  1  0.32286471  0.00023648  0.50889495  1  0.49278  -0.004789  0.060524  0.060326  -0.003335  3.921447  -0.004
C  C89  1  0.67712769  0.99975892  0.49109803  1  0.492577  0.004787  0.060597  0.060494  0.003334  3.921405  0.004
C  C90  1  0.27799680  0.04511343  0.58467766  1  0.510196  0.000446  0.057888  0.054521  -0.000824  3.881823  0.0
C  C91  1  0.72200806  0.95488667  0.41532296  1  0.509723  -0.000445  0.057855  0.054394  0.000824  3.882083  0.0
C  C92  1  0.75033870  0.66254293  0.48245620  1  1.543536  -0.00018  0.217475  0.685548  -0.000163  4.085976  0.0
C  C93  1  0.24966448  0.33745991  0.51754576  1  1.543409  0.000178  0.217473  0.685689  0.00016  4.085757  0.0
C  C94  1  0.89739075  0.76011882  0.47488296  1  -0.080891  -4.4e-05  -0.243719  -0.514602  1.3e-05  3.846464  0.0
C  C95  1  0.10261421  0.23987944  0.52511614  1  -0.080252  5.2e-05  -0.243771  -0.514818  -8e-06  3.84627  0.0
C  C96  1  0.48204370  0.35906290  0.35023295  1  1.529687  0.000148  0.218455  0.690534  8.3e-05  4.083252  0.0
C  C97  1  0.51796156  0.64092804  0.64976986  1  1.529662  -0.00015  0.218266  0.690262  -8.3e-05  4.082511  0.0
C  C98  1  0.47148361  0.27578580  0.26207665  1  -0.07234  -0.000516  -0.246733  -0.522362  -0.000211  3.875423  -0.001
C  C99  1  0.52851516  0.72422433  0.73792590  1  -0.072247  0.000515  -0.246852  -0.522457  0.00021  3.875361  0.001
N  N100  1  0.29122973  0.62581512  0.35535772  1  -1.199847  -0.000167  -0.306666  -0.196011  -0.000374  3.469072  -0.001
N  N101  1  0.70876959  0.37418401  0.64463996  1  -1.199904  0.000169  -0.306633  -0.195923  0.000374  3.46909  0.001
N  N102  1  0.12831041  0.72124262  0.23481631  1  -1.201479  0.040103  -0.308442  -0.215954  0.02846  3.544524  0.036
N  N103  1  0.87168775  0.27875836  0.76518830  1  -1.20105  -0.040107  -0.308457  -0.215952  -0.028465  3.544409  -0.036
N  N104  1  0.25422295  0.88274981  0.12728753  1  -1.208708  0.132024  -0.398578  -0.450615  0.089056  3.606385  0.111
N  N105  1  0.74577281  0.11725849  0.87271935  1  -1.208966  -0.132033  -0.398566  -0.45064  -0.089059  3.606279  -0.111
N  N106  1  0.98282745  0.78487120  0.99106182  1  -1.192895  0.077716  -0.333728  -0.253431  0.054638  3.580516  0.071
N  N107  1  0.01717969  0.21512342  0.00893943  1  -1.192905  -0.077715  -0.333655  -0.253309  -0.054637  3.580421  -0.071
N  N108  1  0.25486541  0.04268254  0.92097037  1  -1.202913  -0.068191  -0.327685  -0.26252  -0.047874  3.569376  -0.062
N  N109  1  0.74513766  0.95732213  0.07903519  1  -1.202685  0.068191  -0.32769  -0.262536  0.047873  3.569285  0.062
N  N110  1  0.12206003  0.84660046  0.77397072  1  -1.248568  -0.131517  -0.403643  -0.454786  -0.088496  3.635883  -0.11
N  N111  1  0.87794723  0.15340241  0.22603251  1  -1.248333  0.131523  -0.403574  -0.454727  0.088501  3.635917  0.11
N  N112  1  0.22816757  0.97497879  0.64857863  1  -1.194854  -0.07099  -0.31617  -0.20071  -0.049901  3.598827  -0.063
N  N113  1  0.77183625  0.02502131  0.35142323  1  -1.194718  0.070981  -0.316119  -0.200558  0.049897  3.598783  0.063
N  N114  1  0.32288039  0.88853651  0.49896062  1  -1.175631  0.00182  -0.299218  -0.218866  0.001207  3.294803  0.001
N  N115  1  0.67710336  0.11145793  0.50103526  1  -1.175574  -0.001822  -0.299323  -0.218953  -0.001208  3.294671  -0.001
Cl  Cl116  1  0.08986309  0.99929371  0.25130664  1  -0.634955  0.069303  -0.346963  -0.560566  0.047374  1.25775  0.058
Cl  Cl117  1  0.91013038  0.00071178  0.74868580  1  -0.635002  -0.069286  -0.346968  -0.560596  -0.047363  1.257705  -0.058
O  O118  1  0.63095099  0.66921553  0.43904110  1  -1.12121  -0.082623  -0.312687  -0.532012  -0.055725  2.346275  -0.075
O  O119  1  0.36904108  0.33077350  0.56096530  1  -1.121189  0.082658  -0.31271  -0.532073  0.055749  2.346015  0.075
O  O120  1  0.42507851  0.43590486  0.33792008  1  -1.115364  -0.084327  -0.314599  -0.538578  -0.056761  2.394112  -0.077
O  O121  1  0.57493135  0.56408701  0.66207648  1  -1.11535  0.084312  -0.314471  -0.538402  0.056751  2.39384  0.077
O  O122  1  0.54749995  0.34589699  0.43096471  1  -1.115552  0.08459  -0.317204  -0.529069  0.056771  2.355348  0.077
O  O123  1  0.45249290  0.65409754  0.56903871  1  -1.115405  -0.084611  -0.317133  -0.529015  -0.056786  2.355172  -0.077
O  O124  1  0.75727372  0.58247527  0.53303174  1  -1.119779  0.08384  -0.312736  -0.526387  0.05657  2.327961  0.076
O  O125  1  0.24274707  0.41753227  0.46697301  1  -1.119844  -0.083802  -0.312702  -0.526393  -0.056546  2.328174  -0.076
O  O126  1  0.49035301  0.89964953  0.20442086  1  -1.136324  0.022924  -0.286482  -0.479726  0.014903  2.214788  0.019
O  O127  1  0.50965418  0.10034507  0.79557552  1  -1.136255  -0.022927  -0.286588  -0.479889  -0.014905  2.215157  -0.019
O  O128  1  0.84384244  0.71208112  0.14920856  1  -1.156009  0.074308  -0.327487  -0.557929  0.050003  2.458923  0.068
O  O129  1  0.15615298  0.28792442  0.85079320  1  -1.155686  -0.074313  -0.327525  -0.557969  -0.050006  2.458807  -0.068
O  O130  1  0.74480376  0.80626400  0.24170289  1  -1.154091  0.07032  -0.320998  -0.53663  0.047229  2.415782  0.064
O  O131  1  0.25519733  0.19373884  0.75830505  1  -1.153942  -0.070316  -0.320992  -0.536655  -0.047226  2.415819  -0.064
O  O132  1  0.14950934  0.67664866  0.70484380  1  -1.137372  -0.022815  -0.313954  -0.502115  -0.014947  2.086928  -0.019
O  O133  1  0.85048870  0.32334587  0.29515129  1  -1.137226  0.02282  -0.313921  -0.502081  0.014951  2.086968  0.019
