# generated using pymatgen
data_KH5C3N2O5
_symmetry_space_group_name_H-M   'P 1'
_cell_length_a   6.86866448
_cell_length_b   7.71927918
_cell_length_c   12.73874947
_cell_angle_alpha   89.99994747
_cell_angle_beta   89.99992983
_cell_angle_gamma   89.99994053
_symmetry_Int_Tables_number   1
_chemical_formula_structural   KH5C3N2O5
_chemical_formula_sum   'K4 H20 C12 N8 O20'
_cell_volume   675.42300226
_cell_formula_units_Z   4
loop_
 _symmetry_equiv_pos_site_id
 _symmetry_equiv_pos_as_xyz
  1  'x, y, z'
loop_
 _atom_site_type_symbol
 _atom_site_label
 _atom_site_symmetry_multiplicity
 _atom_site_fract_x
 _atom_site_fract_y
 _atom_site_fract_z
 _atom_site_occupancy
 _atom_site_hle17_bader_spin_density
 _atom_site_hle17_ddec_charge
 _atom_site_hle17_ddec_spin_density
 _atom_site_hle17_ddec_sum_bond_order
 _atom_site_hle17_magmom
 _atom_site_hse06_10hf_bader_spin_density
 _atom_site_hse06_10hf_ddec_charge
 _atom_site_hse06_10hf_ddec_spin_density
 _atom_site_hse06_10hf_ddec_sum_bond_order
 _atom_site_hse06_10hf_magmom
 _atom_site_hse06_bader_spin_density
 _atom_site_hse06_ddec_charge
 _atom_site_hse06_ddec_spin_density
 _atom_site_hse06_ddec_sum_bond_order
 _atom_site_hse06_magmom
 _atom_site_pbe_bader_spin_density
 _atom_site_pbe_cm5_charge
 _atom_site_pbe_ddec_charge
 _atom_site_pbe_ddec_spin_density
 _atom_site_pbe_ddec_sum_bond_order
 _atom_site_pbe_magmom
K  K0  1  0.24547166  0.99999442  0.50000398  1  0  0.93336  0  0.507255  0  0  0.885193  0  0.706204  0  0  0.89897  0  0.683361  0  0  0.814794  0.874829  0  0.722606  0
K  K1  1  0.25453393  0.50000381  0.00000135  1  0  0.933387  0  0.507323  0  0  0.885226  0  0.70623  0  0  0.899005  0  0.683378  0  0  0.814771  0.874834  0  0.722651  0
K  K2  1  0.75453186  0.00000442  0.49999780  1  0  0.933349  0  0.50728  0  0  0.885193  0  0.706205  0  0  0.898974  0  0.683359  0  0  0.81479  0.874824  0  0.722616  0
K  K3  1  0.74546522  0.49999762  0.99999808  1  0  0.933382  0  0.507331  0  0  0.885228  0  0.706228  0  0  0.899007  0  0.683376  0  0  0.814772  0.874826  0  0.722657  0
H  H4  1  0.00000066  0.61905489  0.41360872  1  0  0.343228  0  0.899774  0  0  0.316631  0  0.974195  0  0  0.326951  0  0.964801  0  0  0.319468  0.309322  0  0.980935  0
H  H5  1  0.99999849  0.38094265  0.58639150  1  0  0.343243  0  0.899733  0  0  0.316644  0  0.974159  0  0  0.326965  0  0.964764  0  0  0.319476  0.309335  0  0.980904  0
H  H6  1  0.50000109  0.88094141  0.91360811  1  0  0.343368  0  0.899678  0  0  0.316783  0  0.974077  0  0  0.327103  0  0.964683  0  0  0.319563  0.30947  0  0.980822  0
H  H7  1  0.50000097  0.11906003  0.08639211  1  0  0.343363  0  0.899655  0  0  0.316768  0  0.974074  0  0  0.327088  0  0.964678  0  0  0.31954  0.309455  0  0.98082  0
H  H8  1  0.00000106  0.13480252  0.28642839  1  0  0.345505  0  0.92795  0  0  0.321185  0  1.000733  0  0  0.331014  0  0.99158  0  0  0.303248  0.314201  0  1.007194  0
H  H9  1  0.00000019  0.86519681  0.71357059  1  0  0.345504  0  0.927973  0  0  0.321179  0  1.000767  0  0  0.331008  0  0.991615  0  0  0.303232  0.314195  0  1.007226  0
H  H10  1  0.50000151  0.36519775  0.78643328  1  0  0.345523  0  0.92786  0  0  0.321186  0  1.000672  0  0  0.331014  0  0.991522  0  0  0.303304  0.314202  0  1.007127  0
H  H11  1  0.50000055  0.63480368  0.21356458  1  0  0.345527  0  0.927872  0  0  0.321193  0  1.000688  0  0  0.331023  0  0.991533  0  0  0.30332  0.314209  0  1.007141  0
H  H12  1  0.99999895  0.32157342  0.20179489  1  0  0.35758  0  0.912559  0  0  0.335333  0  0.979587  0  0  0.344331  0  0.971665  0  0  0.312327  0.328968  0  0.985177  0
H  H13  1  0.00000166  0.67842672  0.79820611  1  0  0.357561  0  0.912571  0  0  0.335309  0  0.979612  0  0  0.344308  0  0.971688  0  0  0.312307  0.328942  0  0.985206  0
H  H14  1  0.50000171  0.17842649  0.70179630  1  0  0.357282  0  0.912617  0  0  0.33504  0  0.979667  0  0  0.344038  0  0.97175  0  0  0.312214  0.328674  0  0.985266  0
H  H15  1  0.49999890  0.82157494  0.29820156  1  0  0.357065  0  0.912948  0  0  0.334876  0  0.979881  0  0  0.343874  0  0.971971  0  0  0.312181  0.328509  0  0.985476  0
H  H16  1  0.50000016  0.68007061  0.53710731  1  0  0.411216  0  0.902155  0  0  0.37767  0  0.971943  0  0  0.388998  0  0.95513  0  0  0.281306  0.369637  0  0.983837  0
H  H17  1  0.50000044  0.31993082  0.46289290  1  0  0.411242  0  0.90212  0  0  0.377698  0  0.971903  0  0  0.389025  0  0.95509  0  0  0.28133  0.369663  0  0.983787  0
H  H18  1  0.00000097  0.81993145  0.03711017  1  0  0.411265  0  0.902065  0  0  0.377729  0  0.971838  0  0  0.389059  0  0.955023  0  0  0.281337  0.369693  0  0.983721  0
H  H19  1  0.99999963  0.18006998  0.96289162  1  0  0.411234  0  0.902123  0  0  0.377696  0  0.971903  0  0  0.389024  0  0.955088  0  0  0.28133  0.369656  0  0.983793  0
H  H20  1  0.49999887  0.61279240  0.41996161  1  0  0.42454  0  0.869451  0  0  0.399713  0  0.923397  0  0  0.409252  0  0.909219  0  0  0.294027  0.39291  0  0.933512  0
H  H21  1  0.50000173  0.38721033  0.58003861  1  0  0.424519  0  0.869476  0  0  0.39969  0  0.923426  0  0  0.409228  0  0.909251  0  0  0.294007  0.392887  0  0.933542  0
H  H22  1  0.99999930  0.88720728  0.91996178  1  0  0.424537  0  0.869462  0  0  0.399717  0  0.923399  0  0  0.40926  0  0.909215  0  0  0.294015  0.39291  0  0.933523  0
H  H23  1  0.99999920  0.11279236  0.08003889  1  0  0.424511  0  0.869495  0  0  0.399692  0  0.923432  0  0  0.409232  0  0.909253  0  0  0.294001  0.392883  0  0.933557  0
C  C24  1  0.00000072  0.83304780  0.25215247  1  0  0.56624  0  3.953225  0  0  0.519448  0  4.257313  0  0  0.548546  0  4.250173  0  0  0.215356  0.499675  0  4.261657  0
C  C25  1  0.99999842  0.16695104  0.74784932  1  0  0.56609  0  3.953376  0  0  0.519344  0  4.257393  0  0  0.548445  0  4.25025  0  0  0.215286  0.499585  0  4.26171  0
C  C26  1  0.50000139  0.66695264  0.75214491  1  0  0.566269  0  3.953541  0  0  0.519512  0  4.25751  0  0  0.548626  0  4.250357  0  0  0.215394  0.499761  0  4.2618  0
C  C27  1  0.49999922  0.33304879  0.24785374  1  0  0.566289  0  3.953585  0  0  0.519518  0  4.257571  0  0  0.54863  0  4.25042  0  0  0.215401  0.499769  0  4.261863  0
C  C28  1  0.99999873  0.63143133  0.25003895  1  0  0.498019  0  3.73515  0  0  0.454363  0  4.01914  0  0  0.481209  0  4.0154  0  0  0.261828  0.43613  0  4.021381  0
C  C29  1  0.99999831  0.36856702  0.74996172  1  0  0.498085  0  3.735083  0  0  0.454384  0  4.019127  0  0  0.48123  0  4.015385  0  0  0.261825  0.436149  0  4.021365  0
C  C30  1  0.50000128  0.86857250  0.75003319  1  0  0.49759  0  3.735951  0  0  0.453942  0  4.019953  0  0  0.480772  0  4.016215  0  0  0.26159  0.435709  0  4.022194  0
C  C31  1  0.49999932  0.13142763  0.24996703  1  0  0.497633  0  3.73589  0  0  0.453981  0  4.019898  0  0  0.480816  0  4.016159  0  0  0.261575  0.435742  0  4.022152  0
C  C32  1  0.00000086  0.36694720  0.35990493  1  0  0.818466  0  3.829734  0  0  0.753924  0  4.126167  0  0  0.789155  0  4.121153  0  0  0.345543  0.730016  0  4.12898  0
C  C33  1  0.00000040  0.63305084  0.64009562  1  0  0.818479  0  3.829781  0  0  0.753936  0  4.126204  0  0  0.789169  0  4.121189  0  0  0.345573  0.730034  0  4.129004  0
C  C34  1  0.50000156  0.13305426  0.85989425  1  0  0.818175  0  3.829873  0  0  0.753739  0  4.126147  0  0  0.78897  0  4.121145  0  0  0.345517  0.729837  0  4.128928  0
C  C35  1  0.49999905  0.86694588  0.14010440  1  0  0.8181  0  3.829888  0  0  0.753642  0  4.126222  0  0  0.788871  0  4.121223  0  0  0.345449  0.729738  0  4.129006  0
N  N36  1  0.00000078  0.54847582  0.34427226  1  0  -0.50799  0  3.225452  0  0  -0.44455  0  3.45871  0  0  -0.470372  0  3.45993  0  0  -0.374074  -0.42701  0  3.45759  0
N  N37  1  0.99999837  0.45152302  0.65572796  1  0  -0.508029  0  3.225364  0  0  -0.444577  0  3.458639  0  0  -0.4704  0  3.459858  0  0  -0.374091  -0.427041  0  3.457518  0
N  N38  1  0.50000113  0.95152318  0.84427711  1  0  -0.507825  0  3.22506  0  0  -0.444437  0  3.45827  0  0  -0.470251  0  3.459483  0  0  -0.374214  -0.426903  0  3.45715  0
N  N39  1  0.49999947  0.04847825  0.15572154  1  0  -0.507862  0  3.224997  0  0  -0.444453  0  3.458215  0  0  -0.47027  0  3.459429  0  0  -0.374204  -0.426914  0  3.457097  0
N  N40  1  0.00000101  0.26652208  0.27467838  1  0  -0.730533  0  3.073245  0  0  -0.690067  0  3.308846  0  0  -0.714809  0  3.300842  0  0  -0.573032  -0.67307  0  3.314232  0
N  N41  1  0.00000025  0.73347596  0.72532217  1  0  -0.730513  0  3.073233  0  0  -0.690043  0  3.308832  0  0  -0.714787  0  3.300826  0  0  -0.573002  -0.673045  0  3.31422  0
N  N42  1  0.50000160  0.23347821  0.77468648  1  0  -0.72999  0  3.073318  0  0  -0.689552  0  3.308856  0  0  -0.714287  0  3.300868  0  0  -0.572941  -0.672565  0  3.314236  0
N  N43  1  0.49999901  0.76652193  0.22531295  1  0  -0.729787  0  3.073536  0  0  -0.689378  0  3.309096  0  0  -0.714114  0  3.301111  0  0  -0.572923  -0.67239  0  3.314472  0
O  O44  1  0.00000350  0.90647298  0.34085974  1  0  -0.686182  0  2.031721  0  0  -0.642298  0  2.273976  0  0  -0.664695  0  2.265344  0  0  -0.446415  -0.626486  0  2.279519  0
O  O45  1  0.99999711  0.09352327  0.65914205  1  0  -0.686133  0  2.031799  0  0  -0.642253  0  2.274023  0  0  -0.664654  0  2.265392  0  0  -0.446358  -0.626442  0  2.279556  0
O  O46  1  0.50000133  0.59352473  0.84086007  1  0  -0.686156  0  2.031577  0  0  -0.642336  0  2.273845  0  0  -0.664744  0  2.265209  0  0  -0.446397  -0.626518  0  2.279359  0
O  O47  1  0.49999928  0.40647541  0.15914015  1  0  -0.686171  0  2.031595  0  0  -0.642345  0  2.273864  0  0  -0.664751  0  2.265227  0  0  -0.446409  -0.626527  0  2.279377  0
O  O48  1  0.00000078  0.90578782  0.16347263  1  0  -0.597017  0  2.010919  0  0  -0.539935  0  2.224241  0  0  -0.563607  0  2.215999  0  0  -0.297377  -0.523463  0  2.229668  0
O  O49  1  0.99999982  0.09421361  0.83652916  1  0  -0.596967  0  2.010908  0  0  -0.539894  0  2.224204  0  0  -0.563566  0  2.215959  0  0  -0.297362  -0.523425  0  2.229624  0
O  O50  1  0.50000007  0.59421664  0.66347453  1  0  -0.597092  0  2.011319  0  0  -0.539919  0  2.224545  0  0  -0.563589  0  2.216298  0  0  -0.297395  -0.523462  0  2.229975  0
O  O51  1  0.50000054  0.40578350  0.33652490  1  0  -0.597118  0  2.011345  0  0  -0.539941  0  2.224583  0  0  -0.563614  0  2.216337  0  0  -0.297388  -0.523487  0  2.230004  0
O  O52  1  0.99999887  0.55615493  0.16374400  1  0  -0.58988  0  2.066512  0  0  -0.544485  0  2.302206  0  0  -0.564874  0  2.296924  0  0  -0.391522  -0.530401  0  2.305716  0
O  O53  1  0.00000028  0.44384520  0.83625622  1  0  -0.589895  0  2.066491  0  0  -0.544479  0  2.302193  0  0  -0.564868  0  2.296909  0  0  -0.391522  -0.530394  0  2.305704  0
O  O54  1  0.50000134  0.94384644  0.66375154  1  0  -0.589521  0  2.067208  0  0  -0.544173  0  2.30299  0  0  -0.564571  0  2.297755  0  0  -0.39129  -0.53008  0  2.306464  0
O  O55  1  0.49999927  0.05615240  0.33624789  1  0  -0.589474  0  2.067141  0  0  -0.544144  0  2.302924  0  0  -0.564543  0  2.297681  0  0  -0.391267  -0.530052  0  2.306403  0
O  O56  1  0.99999868  0.30734651  0.45134373  1  0  -0.676153  0  1.934271  0  0  -0.634639  0  2.172775  0  0  -0.656088  0  2.16083  0  0  -0.363344  -0.619653  0  2.18067  0
O  O57  1  0.00000047  0.69265104  0.54865649  1  0  -0.676126  0  1.934313  0  0  -0.634623  0  2.172837  0  0  -0.656074  0  2.160891  0  0  -0.363351  -0.619638  0  2.180723  0
O  O58  1  0.50000288  0.19265302  0.95135140  1  0  -0.676342  0  1.93426  0  0  -0.63482  0  2.172575  0  0  -0.656278  0  2.160629  0  0  -0.363346  -0.619826  0  2.180453  0
O  O59  1  0.49999918  0.80734712  0.04864724  1  0  -0.676268  0  1.934341  0  0  -0.634734  0  2.172657  0  0  -0.656191  0  2.160714  0  0  -0.363266  -0.619738  0  2.180535  0
O  O60  1  0.50000023  0.71868049  0.46264002  1  0  -0.910394  0  1.789992  0  0  -0.86753  0  1.958407  0  0  -0.884019  0  1.926598  0  0  -0.702114  -0.855647  0  1.980727  0
O  O61  1  0.50000038  0.28132094  0.53736019  1  0  -0.910415  0  1.789988  0  0  -0.867536  0  1.958408  0  0  -0.884023  0  1.926601  0  0  -0.702114  -0.855639  0  1.980752  0
O  O62  1  0.99999931  0.78132042  0.96264104  1  0  -0.910473  0  1.789895  0  0  -0.867608  0  1.958314  0  0  -0.884105  0  1.926493  0  0  -0.702147  -0.85571  0  1.980662  0
O  O63  1  0.99999919  0.21868052  0.03736041  1  0  -0.91042  0  1.789988  0  0  -0.867554  0  1.958383  0  0  -0.884046  0  1.926573  0  0  -0.702129  -0.855653  0  1.980731  0
