# generated using pymatgen
data_ZnPH6C3NO6
_symmetry_space_group_name_H-M   'P 1'
_cell_length_a   5.08127069
_cell_length_b   7.72963249
_cell_length_c   17.86915284
_cell_angle_alpha   90.00027469
_cell_angle_beta   89.99959404
_cell_angle_gamma   89.99996312
_symmetry_Int_Tables_number   1
_chemical_formula_structural   ZnPH6C3NO6
_chemical_formula_sum   'Zn4 P4 H24 C12 N4 O24'
_cell_volume   701.83519046
_cell_formula_units_Z   4
loop_
 _symmetry_equiv_pos_site_id
 _symmetry_equiv_pos_as_xyz
  1  'x, y, z'
loop_
 _atom_site_type_symbol
 _atom_site_label
 _atom_site_symmetry_multiplicity
 _atom_site_fract_x
 _atom_site_fract_y
 _atom_site_fract_z
 _atom_site_occupancy
 _atom_site_hle17_bader_spin_density
 _atom_site_hle17_ddec_charge
 _atom_site_hle17_ddec_spin_density
 _atom_site_hle17_ddec_sum_bond_order
 _atom_site_hle17_magmom
 _atom_site_hse06_10hf_bader_spin_density
 _atom_site_hse06_10hf_ddec_charge
 _atom_site_hse06_10hf_ddec_spin_density
 _atom_site_hse06_10hf_ddec_sum_bond_order
 _atom_site_hse06_10hf_magmom
 _atom_site_hse06_bader_spin_density
 _atom_site_hse06_ddec_charge
 _atom_site_hse06_ddec_spin_density
 _atom_site_hse06_ddec_sum_bond_order
 _atom_site_hse06_magmom
 _atom_site_pbe_bader_spin_density
 _atom_site_pbe_cm5_charge
 _atom_site_pbe_ddec_charge
 _atom_site_pbe_ddec_spin_density
 _atom_site_pbe_ddec_sum_bond_order
 _atom_site_pbe_magmom
Zn  Zn0  1  0.67087717  0.02271432  0.32674905  1  0  1.234395  0  1.748702  0  0  1.061711  0  2.235494  0  0  1.108092  0  2.170453  0  0  0.71257  1.028803  0  2.280669  0
Zn  Zn1  1  0.82914157  0.97729805  0.82675176  1  0  1.234406  0  1.748771  0  0  1.061734  0  2.23554  0  0  1.108149  0  2.170505  0  0  0.712576  1.028827  0  2.280709  0
Zn  Zn2  1  0.17084592  0.47729681  0.67325272  1  0  1.234431  0  1.748768  0  0  1.061791  0  2.235556  0  0  1.108203  0  2.170519  0  0  0.712627  1.028882  0  2.280726  0
Zn  Zn3  1  0.32913559  0.52270494  0.17324570  1  0  1.234406  0  1.748862  0  0  1.061698  0  2.23566  0  0  1.108105  0  2.170628  0  0  0.712571  1.028797  0  2.280834  0
P  P4  1  0.17019552  0.82860235  0.27301363  1  0  1.699206  0  4.903416  0  0  1.514525  0  5.415302  0  0  1.572828  0  5.365264  0  0  0.415697  1.473815  0  5.44926  0
P  P5  1  0.32981489  0.17141088  0.77301356  1  0  1.699126  0  4.902918  0  0  1.514471  0  5.414863  0  0  1.572812  0  5.364802  0  0  0.415669  1.47375  0  5.448828  0
P  P6  1  0.67017886  0.67140199  0.72698582  1  0  1.698906  0  4.903373  0  0  1.514351  0  5.415129  0  0  1.572692  0  5.365059  0  0  0.415596  1.47363  0  5.44909  0
P  P7  1  0.82982277  0.32859761  0.22698231  1  0  1.699485  0  4.902141  0  0  1.514826  0  5.413954  0  0  1.573173  0  5.36389  0  0  0.415865  1.474107  0  5.447914  0
H  H8  1  0.32668340  0.33797393  0.33806082  1  0  0.355866  0  0.830778  0  0  0.332495  0  0.896213  0  0  0.340134  0  0.890185  0  0  0.321673  0.327075  0  0.900505  0
H  H9  1  0.17330566  0.66202579  0.83805423  1  0  0.355806  0  0.830785  0  0  0.332459  0  0.896171  0  0  0.340102  0  0.890141  0  0  0.321605  0.327039  0  0.900464  0
H  H10  1  0.82666449  0.16201128  0.66194457  1  0  0.355807  0  0.830792  0  0  0.332443  0  0.896193  0  0  0.340084  0  0.890167  0  0  0.321659  0.327022  0  0.900484  0
H  H11  1  0.67331126  0.83798372  0.16194465  1  0  0.355823  0  0.830768  0  0  0.332472  0  0.896191  0  0  0.34011  0  0.890168  0  0  0.321612  0.327053  0  0.900481  0
H  H12  1  0.02266454  0.31630560  0.37097984  1  0  0.33853  0  0.863049  0  0  0.316576  0  0.92721  0  0  0.324306  0  0.921405  0  0  0.315115  0.311097  0  0.93138  0
H  H13  1  0.47733153  0.68368802  0.87097885  1  0  0.338537  0  0.863058  0  0  0.316559  0  0.92724  0  0  0.324289  0  0.921432  0  0  0.315104  0.31108  0  0.93141  0
H  H14  1  0.52266221  0.18367453  0.62901719  1  0  0.338501  0  0.862939  0  0  0.316502  0  0.927164  0  0  0.324235  0  0.921353  0  0  0.315097  0.311021  0  0.931341  0
H  H15  1  0.97732818  0.81630328  0.12901999  1  0  0.338509  0  0.863118  0  0  0.316548  0  0.927271  0  0  0.324277  0  0.921467  0  0  0.315103  0.311071  0  0.931441  0
H  H16  1  0.27957021  0.22189900  0.41770862  1  0  0.339647  0  0.889772  0  0  0.31626  0  0.95717  0  0  0.325415  0  0.949707  0  0  0.306694  0.309768  0  0.962529  0
H  H17  1  0.22043253  0.77809126  0.91770553  1  0  0.33973  0  0.88974  0  0  0.316292  0  0.957198  0  0  0.325448  0  0.949729  0  0  0.306718  0.309799  0  0.962553  0
H  H18  1  0.77957290  0.27809527  0.58229630  1  0  0.339638  0  0.889678  0  0  0.31613  0  0.95722  0  0  0.325285  0  0.949759  0  0  0.306683  0.309637  0  0.962576  0
H  H19  1  0.72042460  0.72191048  0.08229325  1  0  0.339741  0  0.889737  0  0  0.316307  0  0.95721  0  0  0.325463  0  0.949743  0  0  0.306724  0.309812  0  0.962571  0
H  H20  1  0.47356255  0.50350111  0.44143509  1  0  0.096371  0  0.897844  0  0  0.103832  0  0.95773  0  0  0.106443  0  0.956062  0  0  0.124103  0.101917  0  0.959078  0
H  H21  1  0.02639038  0.49648813  0.94142956  1  0  0.096279  0  0.897755  0  0  0.103713  0  0.957642  0  0  0.106321  0  0.955979  0  0  0.124098  0.101799  0  0.958991  0
H  H22  1  0.97359707  0.99649278  0.55856993  1  0  0.0964  0  0.897716  0  0  0.103809  0  0.957618  0  0  0.106419  0  0.95595  0  0  0.12414  0.101868  0  0.958995  0
H  H23  1  0.52640103  0.00351658  0.05856690  1  0  0.096276  0  0.897758  0  0  0.103731  0  0.957634  0  0  0.106339  0  0.955971  0  0  0.124111  0.101797  0  0.959004  0
H  H24  1  0.92585747  0.62979524  0.39077429  1  0  0.073752  0  0.914276  0  0  0.085097  0  0.979358  0  0  0.086564  0  0.977848  0  0  0.110157  0.083904  0  0.980611  0
H  H25  1  0.57413403  0.37019973  0.89077624  1  0  0.073711  0  0.91425  0  0  0.085045  0  0.97935  0  0  0.086522  0  0.977834  0  0  0.110102  0.083852  0  0.980603  0
H  H26  1  0.42586933  0.87020384  0.60921627  1  0  0.073764  0  0.91417  0  0  0.085127  0  0.979239  0  0  0.086612  0  0.977723  0  0  0.110141  0.083933  0  0.980493  0
H  H27  1  0.07412957  0.12980108  0.10922460  1  0  0.073655  0  0.914292  0  0  0.084992  0  0.979401  0  0  0.086467  0  0.977887  0  0  0.110113  0.083801  0  0.980651  0
H  H28  1  0.17593421  0.76229090  0.43149672  1  0  0.077871  0  0.916033  0  0  0.089343  0  0.979393  0  0  0.090646  0  0.978362  0  0  0.111067  0.088276  0  0.980296  0
H  H29  1  0.32404850  0.23770470  0.93149680  1  0  0.077901  0  0.916091  0  0  0.089346  0  0.979482  0  0  0.090647  0  0.978454  0  0  0.111082  0.088283  0  0.980376  0
H  H30  1  0.67595502  0.73769921  0.56850047  1  0  0.07788  0  0.916076  0  0  0.089344  0  0.979472  0  0  0.090642  0  0.978456  0  0  0.111097  0.088281  0  0.98036  0
H  H31  1  0.82406645  0.26229086  0.06850524  1  0  0.077828  0  0.915986  0  0  0.089288  0  0.979381  0  0  0.090589  0  0.978352  0  0  0.11106  0.088222  0  0.980281  0
C  C32  1  0.13069862  0.45978149  0.51055337  1  0  0.656762  0  3.87456  0  0  0.607906  0  4.178879  0  0  0.641003  0  4.172257  0  0  0.219113  0.585434  0  4.182651  0
C  C33  1  0.36929102  0.54018868  0.01056253  1  0  0.656949  0  3.874743  0  0  0.607891  0  4.179367  0  0  0.640985  0  4.172748  0  0  0.219177  0.585425  0  4.183138  0
C  C34  1  0.63072171  0.04022577  0.48945016  1  0  0.657115  0  3.874293  0  0  0.608117  0  4.178777  0  0  0.641213  0  4.172151  0  0  0.21919  0.585649  0  4.182545  0
C  C35  1  0.86930266  0.95980912  0.98944324  1  0  0.65703  0  3.874667  0  0  0.608042  0  4.179214  0  0  0.641135  0  4.172587  0  0  0.21923  0.585573  0  4.182986  0
C  C36  1  0.26052145  0.48828822  0.43394527  1  0  0.037978  0  3.521616  0  0  0.011691  0  3.770549  0  0  0.010407  0  3.779958  0  0  0.011909  0.012504  0  3.76416  0
C  C37  1  0.23944938  0.51170740  0.93394888  1  0  0.037945  0  3.521164  0  0  0.011883  0  3.769856  0  0  0.010598  0  3.779268  0  0  0.011812  0.012687  0  3.76348  0
C  C38  1  0.76054850  0.01170477  0.56605577  1  0  0.037749  0  3.521427  0  0  0.011671  0  3.770085  0  0  0.010387  0  3.779496  0  0  0.011778  0.012496  0  3.763706  0
C  C39  1  0.73944744  0.98828656  0.06605043  1  0  0.037946  0  3.521152  0  0  0.011804  0  3.770017  0  0  0.010519  0  3.779425  0  0  0.011801  0.012627  0  3.76364  0
C  C40  1  0.13997915  0.64663450  0.39699361  1  0  0.093564  0  3.603911  0  0  0.029409  0  3.872762  0  0  0.037088  0  3.876709  0  0  -0.056019  0.02429  0  3.870041  0
C  C41  1  0.36000838  0.35336200  0.89699385  1  0  0.093596  0  3.603952  0  0  0.02943  0  3.872771  0  0  0.037105  0  3.876726  0  0  -0.055936  0.024314  0  3.870048  0
C  C42  1  0.63999893  0.85335950  0.60300478  1  0  0.093481  0  3.603887  0  0  0.029251  0  3.872746  0  0  0.036908  0  3.876716  0  0  -0.056051  0.024136  0  3.87002  0
C  C43  1  0.86000787  0.14663354  0.10300756  1  0  0.093771  0  3.60399  0  0  0.029584  0  3.872828  0  0  0.037256  0  3.876788  0  0  -0.0559  0.024467  0  3.8701  0
N  N44  1  0.21819022  0.33163110  0.38692502  1  0  -0.50545  0  3.179206  0  0  -0.46036  0  3.386948  0  0  -0.474858  0  3.383858  0  0  -0.606534  -0.450355  0  3.389252  0
N  N45  1  0.28181135  0.66837176  0.88692382  1  0  -0.5055  0  3.179182  0  0  -0.460331  0  3.38676  0  0  -0.474824  0  3.383655  0  0  -0.606437  -0.450327  0  3.389067  0
N  N46  1  0.71819225  0.16836191  0.61307555  1  0  -0.505274  0  3.179012  0  0  -0.46004  0  3.386574  0  0  -0.474536  0  3.383474  0  0  -0.606432  -0.45003  0  3.38887  0
N  N47  1  0.78181429  0.83163125  0.11307540  1  0  -0.505513  0  3.179215  0  0  -0.460417  0  3.38694  0  0  -0.474915  0  3.383851  0  0  -0.606484  -0.450409  0  3.389238  0
O  O48  1  0.26779743  0.50994976  0.56656937  1  0  -0.657615  0  2.051471  0  0  -0.591568  0  2.332141  0  0  -0.620336  0  2.316278  0  0  -0.320292  -0.571457  0  2.3424  0
O  O49  1  0.23217896  0.49005986  0.06656079  1  0  -0.657425  0  2.052089  0  0  -0.591332  0  2.332863  0  0  -0.620085  0  2.316979  0  0  -0.320086  -0.571229  0  2.343122  0
O  O50  1  0.76782930  0.99005972  0.43343324  1  0  -0.657704  0  2.051231  0  0  -0.59164  0  2.331997  0  0  -0.62041  0  2.31613  0  0  -0.320213  -0.571525  0  2.342252  0
O  O51  1  0.73219455  0.00995384  0.93344422  1  0  -0.657548  0  2.051876  0  0  -0.59145  0  2.3326  0  0  -0.620213  0  2.316735  0  0  -0.320191  -0.571344  0  2.342857  0
O  O52  1  0.90436734  0.39482485  0.51116142  1  0  -0.604037  0  1.958651  0  0  -0.553773  0  2.182158  0  0  -0.577504  0  2.173801  0  0  -0.309402  -0.53733  0  2.187472  0
O  O53  1  0.59561625  0.60516845  0.01116118  1  0  -0.604183  0  1.958276  0  0  -0.553961  0  2.181949  0  0  -0.577694  0  2.173593  0  0  -0.309608  -0.537511  0  2.18726  0
O  O54  1  0.40440231  0.10517197  0.48884158  1  0  -0.604119  0  1.958621  0  0  -0.553906  0  2.18226  0  0  -0.577634  0  2.173904  0  0  -0.309521  -0.537461  0  2.187571  0
O  O55  1  0.09562221  0.89484238  0.98884233  1  0  -0.604166  0  1.958342  0  0  -0.553992  0  2.182015  0  0  -0.577722  0  2.173656  0  0  -0.309598  -0.537546  0  2.187328  0
O  O56  1  0.25759829  0.66488332  0.32439969  1  0  -0.540327  0  2.233736  0  0  -0.454597  0  2.490035  0  0  -0.474598  0  2.478976  0  0  -0.223891  -0.44056  0  2.497275  0
O  O57  1  0.24241079  0.33510201  0.82440069  1  0  -0.540308  0  2.234144  0  0  -0.454606  0  2.490486  0  0  -0.474601  0  2.479409  0  0  -0.223845  -0.440567  0  2.497729  0
O  O58  1  0.75759064  0.83511193  0.67559958  1  0  -0.540187  0  2.233796  0  0  -0.4545  0  2.490123  0  0  -0.474491  0  2.479057  0  0  -0.223874  -0.440463  0  2.497363  0
O  O59  1  0.74242019  0.16490004  0.17559703  1  0  -0.540445  0  2.234221  0  0  -0.454673  0  2.49053  0  0  -0.474675  0  2.47946  0  0  -0.223929  -0.440632  0  2.497768  0
O  O60  1  0.87048685  0.84466122  0.27527608  1  0  -0.903078  0  2.028646  0  0  -0.807921  0  2.329792  0  0  -0.837252  0  2.301967  0  0  -0.378848  -0.787256  0  2.348509  0
O  O61  1  0.62954895  0.15533634  0.77528197  1  0  -0.903096  0  2.028366  0  0  -0.807953  0  2.329501  0  0  -0.837374  0  2.301755  0  0  -0.378872  -0.787287  0  2.348223  0
O  O62  1  0.37046647  0.65534176  0.72472074  1  0  -0.902929  0  2.028465  0  0  -0.807885  0  2.329644  0  0  -0.837302  0  2.301902  0  0  -0.378846  -0.787211  0  2.348357  0
O  O63  1  0.12955110  0.34466446  0.22472045  1  0  -0.903232  0  2.028323  0  0  -0.808082  0  2.329475  0  0  -0.837486  0  2.301683  0  0  -0.378908  -0.787425  0  2.3482  0
O  O64  1  0.26855189  0.77384120  0.19451955  1  0  -0.897326  0  1.952565  0  0  -0.795991  0  2.229582  0  0  -0.825629  0  2.203461  0  0  -0.37198  -0.775175  0  2.247368  0
O  O65  1  0.23146646  0.22615044  0.69452202  1  0  -0.897244  0  1.952778  0  0  -0.795968  0  2.229836  0  0  -0.825608  0  2.203706  0  0  -0.371888  -0.775141  0  2.247608  0
O  O66  1  0.76854101  0.72615793  0.80547691  1  0  -0.89719  0  1.952626  0  0  -0.795923  0  2.229659  0  0  -0.825575  0  2.203562  0  0  -0.371904  -0.775097  0  2.24743  0
O  O67  1  0.73145466  0.27385937  0.30547684  1  0  -0.897297  0  1.952498  0  0  -0.796018  0  2.229576  0  0  -0.825643  0  2.203412  0  0  -0.371938  -0.775195  0  2.247356  0
O  O68  1  0.30059548  0.99147053  0.30383494  1  0  -0.896165  0  2.008183  0  0  -0.804615  0  2.316323  0  0  -0.832722  0  2.286418  0  0  -0.381132  -0.78473  0  2.336457  0
O  O69  1  0.19941217  0.00850552  0.80383871  1  0  -0.896231  0  2.007604  0  0  -0.804656  0  2.315726  0  0  -0.832761  0  2.285803  0  0  -0.38123  -0.784776  0  2.335868  0
O  O70  1  0.80058965  0.50852989  0.69616593  1  0  -0.896163  0  2.008192  0  0  -0.804616  0  2.316311  0  0  -0.83272  0  2.286386  0  0  -0.381148  -0.784736  0  2.336453  0
O  O71  1  0.69941277  0.49150171  0.19615462  1  0  -0.896317  0  2.007306  0  0  -0.804725  0  2.315421  0  0  -0.83285  0  2.285511  0  0  -0.381301  -0.784841  0  2.335555  0
