# generated using pymatgen
data_AlH12C24NO12
_symmetry_space_group_name_H-M   'P 1'
_cell_length_a   4.11427104
_cell_length_b   23.37687673
_cell_length_c   23.37716652
_cell_angle_alpha   119.99825186
_cell_angle_beta   90.00072324
_cell_angle_gamma   89.99962349
_symmetry_Int_Tables_number   1
_chemical_formula_structural   AlH12C24NO12
_chemical_formula_sum   'Al3 H36 C72 N3 O36'
_cell_volume   1947.19541034
_cell_formula_units_Z   3
loop_
 _symmetry_equiv_pos_site_id
 _symmetry_equiv_pos_as_xyz
  1  'x, y, z'
loop_
 _atom_site_type_symbol
 _atom_site_label
 _atom_site_symmetry_multiplicity
 _atom_site_fract_x
 _atom_site_fract_y
 _atom_site_fract_z
 _atom_site_occupancy
 _atom_site_pbe_bader_charge
 _atom_site_pbe_bader_spin_density
 _atom_site_pbe_cm5_charge
 _atom_site_pbe_ddec_charge
 _atom_site_pbe_ddec_spin_density
 _atom_site_pbe_ddec_sum_bond_order
 _atom_site_pbe_magmom
Al  Al0  1  0.98230586  0.00173252  0.50133061  1  2.511723  0  0.449011  1.617025  0  2.526501  0
Al  Al1  1  0.98231964  0.33200082  0.16706566  1  2.510731  0  0.449033  1.616983  0  2.526546  0
Al  Al2  1  0.98228103  0.66624399  0.83158275  1  2.510955  0  0.449031  1.617014  0  2.526398  0
H  H3  1  0.18585031  0.86179123  0.92015941  1  0.064861  0  0.117728  0.128117  0  0.961689  0
H  H4  1  0.08295791  0.96643311  0.92475015  1  0.108514  0  0.115991  0.131964  0  0.998594  0
H  H5  1  0.62931936  0.89595744  0.74397040  1  0.131757  0  0.109481  0.111323  0  1.065927  0
H  H6  1  0.62933986  0.01466941  0.93737781  1  0.132323  0  0.109419  0.111173  0  1.065996  0
H  H7  1  0.18588078  0.22502118  0.97152827  1  0.065571  0  0.11784  0.128239  0  0.961703  0
H  H8  1  0.08295425  0.12497120  0.86689375  1  0.11118  0  0.11599  0.132009  0  0.998679  0
H  H9  1  0.62939508  0.08935651  0.81865990  1  0.133708  0  0.109494  0.111339  0  1.065837  0
H  H10  1  0.18580435  0.91318157  0.60831836  1  0.105546  0  0.11783  0.128265  0  0.961635  0
H  H11  1  0.08288572  0.90859610  0.70836822  1  0.110515  0  0.115929  0.131953  0  0.998594  0
H  H12  1  0.79274327  0.41778202  0.35954990  1  0.104371  0  0.119845  0.134358  0  0.959277  0
H  H13  1  0.90080003  0.42328580  0.46447556  1  0.112385  0  0.116313  0.131765  0  0.998412  0
H  H14  1  0.35559622  0.24268002  0.39656513  1  0.099936  0  0.110037  0.112212  0  1.064402  0
H  H15  1  0.35566482  0.43676716  0.51276738  1  0.103713  0  0.110003  0.112161  0  1.064295  0
H  H16  1  0.79269435  0.47375650  0.72488511  1  0.107646  0  0.119877  0.134383  0  0.959286  0
H  H17  1  0.90079455  0.36883768  0.62546253  1  0.109819  0  0.116367  0.131858  0  0.998173  0
H  H18  1  0.35569399  0.32055047  0.59065925  1  0.111989  0  0.110012  0.112229  0  1.064266  0
H  H19  1  0.79267069  0.10843315  0.41553623  1  0.10901  0  0.119856  0.134345  0  0.959268  0
H  H20  1  0.90072914  0.20785410  0.41003101  1  0.115314  0  0.116335  0.131888  0  0.998259  0
H  H21  1  0.76640033  0.44455302  0.08362416  1  0.111172  0  0.119558  0.130917  0  0.958578  0
H  H22  1  0.82063876  0.54537672  0.07805163  1  0.099206  0  0.115166  0.128397  0  0.997398  0
H  H23  1  0.28526046  0.65075208  0.26097710  1  0.100329  0  0.109476  0.113338  0  1.051951  0
H  H24  1  0.28524740  0.57236204  0.05644783  1  0.107051  0  0.109492  0.113317  0  1.052093  0
H  H25  1  0.76631013  0.74971341  0.02758372  1  0.101081  0  0.1196  0.130937  0  0.958726  0
H  H26  1  0.82052022  0.75530015  0.13398424  1  0.0971  0  0.115151  0.128326  0  0.997503  0
H  H27  1  0.28512414  0.77688554  0.18258108  1  0.109493  0  0.109473  0.113316  0  1.052105  0
H  H28  1  0.76639961  0.80575171  0.38878121  1  0.104446  0  0.119495  0.130889  0  0.958529  0
H  H29  1  0.82064334  0.69935320  0.28796287  1  0.100743  0  0.115204  0.128464  0  0.997363  0
H  H30  1  0.99671225  0.73745926  0.75785153  1  0.620069  0  0.309405  0.33765  0  0.993737  0
H  H31  1  0.99680837  0.18705101  0.09585286  1  0.620703  0  0.30931  0.337619  0  0.993819  0
H  H32  1  0.99680550  0.07546490  0.64627598  1  0.617381  0  0.309302  0.337549  0  0.994078  0
H  H33  1  0.98149956  0.25602036  0.23785639  1  0.637369  0  0.309089  0.337551  0  0.990775  0
H  H34  1  0.98151882  0.59545343  0.68481554  1  0.640284  0  0.309062  0.337469  0  0.99102  0
H  H35  1  0.98151106  0.14850450  0.57730015  1  0.628321  0  0.309029  0.337413  0  0.991264  0
H  H36  1  0.97910428  0.47530593  0.24945427  1  0.641439  0  0.307327  0.341446  0  0.993154  0
H  H37  1  0.97904961  0.58386165  0.89251544  1  0.639444  0  0.30734  0.341332  0  0.993087  0
H  H38  1  0.97902911  0.94082798  0.35802674  1  0.640076  0  0.307435  0.341522  0  0.992781  0
C  C39  1  0.47717820  0.91544458  0.40933209  1  1.558641  0  0.289432  0.67649  0  4.034833  0
C  C40  1  0.48967738  0.00167243  0.59049760  1  1.556884  0  0.291279  0.684827  0  4.012413  0
C  C41  1  0.47993587  0.09286123  0.50534432  1  1.572498  0  0.29035  0.685326  0  4.011659  0
C  C42  1  0.48967678  0.24283367  0.07784301  1  1.55519  0  0.291364  0.685234  0  4.012505  0
C  C43  1  0.47723233  0.42399577  0.17276854  1  1.568315  0  0.289441  0.67639  0  4.034515  0
C  C44  1  0.47994946  0.32798531  0.25418143  1  1.574657  0  0.290111  0.684958  0  4.011972  0
C  C45  1  0.48961376  0.75547122  0.83164709  1  1.560068  0  0.291166  0.684512  0  4.013181  0
C  C46  1  0.47718620  0.66054887  0.91788085  1  1.564323  0  0.28945  0.676264  0  4.034615  0
C  C47  1  0.47991582  0.57913271  0.74045742  1  1.558062  0  0.290387  0.685523  0  4.01092  0
C  C48  1  0.28719361  0.86948953  0.88142302  1  0.066578  0  -0.078105  -0.080049  0  3.956943  0
C  C49  1  0.22321771  0.92892317  0.88347563  1  -0.029726  0  -0.076698  -0.139579  0  3.929017  0
C  C50  1  0.34641376  0.93992983  0.83368701  1  0.289001  0  0.097255  0.186168  0  4.013518  0
C  C51  1  0.52997885  0.89009512  0.78373169  1  0.030814  0  -0.087395  -0.188067  0  3.991086  0
C  C52  1  0.59103073  0.82962971  0.77982093  1  -0.034201  0  -0.01371  -0.059426  0  3.987861  0
C  C53  1  0.47057880  0.81895595  0.83022797  1  -0.069288  0  -0.020389  -0.101142  0  3.969621  0
C  C54  1  0.53000451  0.06029387  0.94323651  1  0.004212  0  -0.08719  -0.187636  0  3.990945  0
C  C55  1  0.59109420  0.11684664  0.00369521  1  0.001917  0  -0.013812  -0.059619  0  3.987595  0
C  C56  1  0.47062740  0.17792771  0.01436727  1  -0.012631  0  -0.020398  -0.101364  0  3.969586  0
C  C57  1  0.28722130  0.17858720  0.96383215  1  0.003515  0  -0.07817  -0.080066  0  3.957265  0
C  C58  1  0.22322836  0.12121026  0.90440598  1  -0.076252  0  -0.076667  -0.139584  0  3.929397  0
C  C59  1  0.34640765  0.06041397  0.89340125  1  0.335139  0  0.097193  0.185987  0  4.013686  0
C  C60  1  0.53002301  0.04959292  0.77303763  1  0.000458  0  -0.087309  -0.18787  0  3.991016  0
C  C61  1  0.59113019  0.05350157  0.71648584  1  0.009096  0  -0.013846  -0.059766  0  3.987625  0
C  C62  1  0.47061916  0.00309926  0.65540391  1  -0.081003  0  -0.020278  -0.100931  0  3.969035  0
C  C63  1  0.28717196  0.95191468  0.65474865  1  0.016303  0  -0.078195  -0.080234  0  3.957423  0
C  C64  1  0.22318941  0.94985896  0.71212445  1  -0.021517  0  -0.076653  -0.139491  0  3.929201  0
C  C65  1  0.34638865  0.99965001  0.77292361  1  0.280111  0  0.097301  0.18609  0  4.013586  0
C  C66  1  0.69392725  0.37918390  0.36777187  1  -0.040615  0  -0.075776  -0.075135  0  3.939232  0
C  C67  1  0.76015002  0.38178571  0.42740375  1  -0.034829  0  -0.075709  -0.139123  0  3.927478  0
C  C68  1  0.63803737  0.33251591  0.43934431  1  0.369161  0  0.09672  0.184989  0  4.01396  0
C  C69  1  0.45384597  0.28212453  0.39005988  1  -0.032106  0  -0.086874  -0.187836  0  3.991002  0
C  C70  1  0.39022875  0.27770522  0.32946505  1  0.034453  0  -0.014237  -0.060378  0  3.996939  0
C  C71  1  0.50931293  0.32761728  0.31797558  1  -0.058704  0  -0.020398  -0.101132  0  3.972884  0
C  C72  1  0.45388785  0.44326811  0.55872021  1  0.017582  0  -0.086941  -0.187695  0  3.990816  0
C  C73  1  0.39027113  0.50385740  0.61489721  1  0.034804  0  -0.014237  -0.060226  0  3.996471  0
C  C74  1  0.50931483  0.51534011  0.67629960  1  -0.062533  0  -0.020342  -0.101346  0  3.97276  0
C  C75  1  0.69390743  0.46553824  0.67806506  1  -0.0368  0  -0.075789  -0.075178  0  3.939361  0
C  C76  1  0.76015154  0.40591116  0.62103796  1  -0.020171  0  -0.075858  -0.139004  0  3.927153  0
C  C77  1  0.63804535  0.39397531  0.55982605  1  0.319603  0  0.096533  0.184184  0  4.014684  0
C  C78  1  0.45390039  0.27459991  0.55120938  1  0.008279  0  -0.086902  -0.187938  0  3.991094  0
C  C79  1  0.39027183  0.21842148  0.55562348  1  0.019903  0  -0.014169  -0.060242  0  3.996706  0
C  C80  1  0.50932267  0.15702064  0.50570589  1  -0.058722  0  -0.020268  -0.10114  0  3.972982  0
C  C81  1  0.69389064  0.15525101  0.45413593  1  -0.027064  0  -0.075795  -0.075041  0  3.939333  0
C  C82  1  0.76011508  0.21228135  0.45153399  1  -0.019059  0  -0.07584  -0.139435  0  3.927254  0
C  C83  1  0.63802117  0.27349240  0.50080981  1  0.297257  0  0.096775  0.18509  0  4.013995  0
C  C84  1  0.65558172  0.48981651  0.12235632  1  -0.085335  0  -0.076972  -0.077926  0  3.957607  0
C  C85  1  0.68946020  0.54752408  0.11951430  1  0.039389  0  -0.080044  -0.144155  0  3.942654  0
C  C86  1  0.55084333  0.60699335  0.16871986  1  0.281929  0  0.096771  0.183443  0  4.010369  0
C  C87  1  0.38828905  0.60592089  0.22057645  1  0.001156  0  -0.086416  -0.187485  0  3.977927  0
C  C88  1  0.35908946  0.54882321  0.22525534  1  -0.007023  0  -0.013687  -0.061168  0  3.987116  0
C  C89  1  0.48916284  0.48909181  0.17453843  1  0.004708  0  -0.019513  -0.095623  0  3.973241  0
C  C90  1  0.38824409  0.61276052  0.05201287  1  0.002362  0  -0.086553  -0.187628  0  3.977828  0
C  C91  1  0.35906185  0.60807603  0.99023521  1  -0.002283  0  -0.013644  -0.061019  0  3.98691  0
C  C92  1  0.48911281  0.65879274  0.98121600  1  0.019936  0  -0.019344  -0.095418  0  3.973204  0
C  C93  1  0.65551137  0.71098194  0.03411936  1  -0.082655  0  -0.077242  -0.07823  0  3.957908  0
C  C94  1  0.68939552  0.71382796  0.09466964  1  0.019809  0  -0.079884  -0.143854  0  3.942332  0
C  C95  1  0.55079871  0.66462296  0.10493876  1  0.285131  0  0.096829  0.183438  0  4.010175  0
C  C96  1  0.38817670  0.78132368  0.22741160  1  -0.013012  0  -0.086562  -0.187584  0  3.977832  0
C  C97  1  0.35896949  0.84309957  0.28450405  1  -0.014973  0  -0.013774  -0.061189  0  3.986926  0
C  C98  1  0.48908683  0.85211759  0.34423555  1  0.003768  0  -0.019378  -0.095363  0  3.97306  0
C  C99  1  0.65554982  0.79921784  0.34351661  1  -0.071937  0  -0.077104  -0.0782  0  3.957736  0
C  C100  1  0.68945527  0.73866846  0.28581366  1  0.019543  0  -0.079924  -0.144024  0  3.942267  0
C  C101  1  0.55077995  0.72839866  0.22634236  1  0.305342  0  0.096814  0.183376  0  4.010066  0
C  C102  1  0.77249288  0.78297266  0.71744778  1  1.564254  0  0.232039  0.574766  0  4.118812  0
C  C103  1  0.77260581  0.10112867  0.05035205  1  1.566243  0  0.231895  0.574724  0  4.118576  0
C  C104  1  0.77268060  0.11587111  0.73220223  1  1.583151  0  0.2319  0.574744  0  4.118818  0
C  C105  1  0.20802830  0.21548754  0.28311952  1  1.547814  0  0.231264  0.571783  0  4.121042  0
C  C106  1  0.20808678  0.55021275  0.59902580  1  1.544225  0  0.231116  0.571493  0  4.120924  0
C  C107  1  0.20811267  0.23429092  0.61784641  1  1.55308  0  0.231367  0.571976  0  4.120805  0
C  C108  1  0.21028507  0.56072921  0.28944229  1  1.563082  0  0.228674  0.567154  0  4.121188  0
C  C109  1  0.21023774  0.54388457  0.93796286  1  1.535169  0  0.228833  0.567154  0  4.120919  0
C  C110  1  0.21009120  0.89537329  0.27259301  1  1.556543  0  0.228997  0.567487  0  4.120449  0
N  N111  1  0.29671132  0.99999629  0.83333793  1  -1.159694  0  -0.247105  -0.145704  0  3.575315  0
N  N112  1  0.68892821  0.33332702  0.49999259  1  -1.158456  0  -0.246184  -0.1457  0  3.574477  0
N  N113  1  0.57457420  0.66667154  0.16666542  1  -1.171205  0  -0.242581  -0.140781  0  3.594388  0
O  O114  1  0.71444278  0.07825792  0.53208350  1  -1.260348  0  -0.232928  -0.613345  0  2.439836  0
O  O115  1  0.71606596  0.95560977  0.42337927  1  -1.254426  0  -0.225301  -0.598437  0  2.421378  0
O  O116  1  0.72301183  0.97239188  0.55061993  1  -1.258896  0  -0.233856  -0.591486  0  2.325709  0
O  O117  1  0.24014339  0.05478086  0.47673831  1  -1.262521  0  -0.23065  -0.592701  0  2.36936  0
O  O118  1  0.24952696  0.02808506  0.57718686  1  -1.266371  0  -0.227366  -0.606035  0  2.452511  0
O  O119  1  0.24312337  0.92478203  0.44856161  1  -1.252509  0  -0.229262  -0.587634  0  2.343917  0
O  O120  1  0.24016372  0.35659129  0.24470444  1  -1.25716  0  -0.230545  -0.59256  0  2.369642  0
O  O121  1  0.24954306  0.25614149  0.11756546  1  -1.26796  0  -0.227396  -0.606169  0  2.452638  0
O  O122  1  0.24315893  0.38476727  0.14287757  1  -1.258536  0  -0.229286  -0.587564  0  2.343791  0
O  O123  1  0.71445176  0.30124642  0.21284126  1  -1.267586  0  -0.232783  -0.613186  0  2.439965  0
O  O124  1  0.71610936  0.40994789  0.19888901  1  -1.262365  0  -0.225315  -0.598344  0  2.421093  0
O  O125  1  0.72301545  0.28271133  0.08844088  1  -1.257886  0  -0.233878  -0.591582  0  2.32571  0
O  O126  1  0.24012238  0.58860413  0.77853664  1  -1.256848  0  -0.230657  -0.592802  0  2.369128  0
O  O127  1  0.24946895  0.71574929  0.80523010  1  -1.269161  0  -0.227256  -0.60594  0  2.45269  0
O  O128  1  0.24310740  0.69043211  0.90853565  1  -1.254467  0  -0.22916  -0.587401  0  2.343845  0
O  O129  1  0.71442614  0.62047367  0.75505700  1  -1.261826  0  -0.232909  -0.613326  0  2.439597  0
O  O130  1  0.71605382  0.63442080  0.87771361  1  -1.254319  0  -0.225493  -0.598461  0  2.421236  0
O  O131  1  0.72294429  0.74487013  0.86092537  1  -1.258262  0  -0.233771  -0.591277  0  2.325821  0
O  O132  1  0.93607068  0.73217311  0.71462700  1  -1.127229  0  -0.32918  -0.445422  0  2.359398  0
O  O133  1  0.77000701  0.79154542  0.67005349  1  -1.098406  0  -0.273538  -0.432788  0  2.045122  0
O  O134  1  0.93623230  0.14911034  0.10114181  1  -1.133663  0  -0.329081  -0.445452  0  2.359326  0
O  O135  1  0.77012735  0.04516516  0.04178378  1  -1.096733  0  -0.273414  -0.43268  0  2.045107  0
O  O136  1  0.93626555  0.11869069  0.68422267  1  -1.124445  0  -0.32913  -0.445422  0  2.359416  0
O  O137  1  0.77030218  0.16325611  0.78817139  1  -1.111632  0  -0.27333  -0.432655  0  2.045402  0
O  O138  1  0.04356000  0.21281718  0.23229674  1  -1.145084  0  -0.332202  -0.449082  0  2.352761  0
O  O139  1  0.21089996  0.16796580  0.29141385  1  -1.090496  0  -0.269299  -0.425787  0  2.045406  0
O  O140  1  0.04359912  0.60102961  0.64718629  1  -1.146945  0  -0.332104  -0.448878  0  2.352846  0
O  O141  1  0.21101623  0.54193349  0.54321820  1  -1.092435  0  -0.269222  -0.425663  0  2.045505  0
O  O142  1  0.04357903  0.18613794  0.62050609  1  -1.140459  0  -0.332145  -0.448988  0  2.353012  0
O  O143  1  0.21106160  0.29009958  0.66537426  1  -1.094583  0  -0.269421  -0.426003  0  2.04551  0
O  O144  1  0.07198212  0.50966124  0.29198327  1  -1.154031  0  -0.340341  -0.464849  0  2.265756  0
O  O145  1  0.22472335  0.61525035  0.33854507  1  -1.094252  0  -0.2671  -0.421014  0  2.039378  0
O  O146  1  0.07192221  0.54133376  0.88434883  1  -1.149567  0  -0.340487  -0.464759  0  2.265713  0
O  O147  1  0.22467395  0.49478902  0.94339518  1  -1.083561  0  -0.267141  -0.421035  0  2.03947  0
O  O148  1  0.07185854  0.94899064  0.32366021  1  -1.157058  0  -0.34059  -0.464963  0  2.265708  0
O  O149  1  0.22438839  0.88993406  0.21805962  1  -1.086909  0  -0.267195  -0.421212  0  2.039046  0
