# generated using pymatgen
data_NbAgH8C10N2OF4
_symmetry_space_group_name_H-M   'P 1'
_cell_length_a   3.95228524
_cell_length_b   13.74868497
_cell_length_c   13.75748645
_cell_angle_alpha   69.06768385
_cell_angle_beta   81.11058634
_cell_angle_gamma   81.11988572
_symmetry_Int_Tables_number   1
_chemical_formula_structural   NbAgH8C10N2OF4
_chemical_formula_sum   'Nb2 Ag2 H16 C20 N4 O2 F8'
_cell_volume   685.84615311
_cell_formula_units_Z   2
loop_
 _symmetry_equiv_pos_site_id
 _symmetry_equiv_pos_as_xyz
  1  'x, y, z'
loop_
 _atom_site_type_symbol
 _atom_site_label
 _atom_site_symmetry_multiplicity
 _atom_site_fract_x
 _atom_site_fract_y
 _atom_site_fract_z
 _atom_site_occupancy
 _atom_site_hle17_bader_spin_density
 _atom_site_hle17_ddec_charge
 _atom_site_hle17_ddec_spin_density
 _atom_site_hle17_ddec_sum_bond_order
 _atom_site_hle17_magmom
 _atom_site_hse06_10hf_bader_spin_density
 _atom_site_hse06_10hf_ddec_charge
 _atom_site_hse06_10hf_ddec_spin_density
 _atom_site_hse06_10hf_ddec_sum_bond_order
 _atom_site_hse06_10hf_magmom
 _atom_site_hse06_bader_spin_density
 _atom_site_hse06_ddec_charge
 _atom_site_hse06_ddec_spin_density
 _atom_site_hse06_ddec_sum_bond_order
 _atom_site_hse06_magmom
 _atom_site_pbe_bader_spin_density
 _atom_site_pbe_cm5_charge
 _atom_site_pbe_ddec_charge
 _atom_site_pbe_ddec_spin_density
 _atom_site_pbe_ddec_sum_bond_order
 _atom_site_pbe_magmom
Nb  Nb0  1  0.92495961  0.26241395  0.26205721  1  0  2.569403  0  3.302959  0  0  2.548762  0  3.767606  0  0  2.661405  0  3.697943  0  0  1.578014  2.470797  0  3.814253  0
Nb  Nb1  1  0.07477191  0.73791788  0.73752435  1  0  2.56935  0  3.303266  0  0  2.548555  0  3.768242  0  0  2.661312  0  3.698293  0  0  1.578033  2.470598  0  3.8149  0
Ag  Ag2  1  0.50005760  0.50049251  0.99951784  1  0  0.577764  0  1.373744  0  0  0.442026  0  1.806198  0  0  0.470688  0  1.757225  0  0  0.489079  0.422593  0  1.840225  0
Ag  Ag3  1  0.49972605  0.00059422  0.49944007  1  0  0.578042  0  1.374242  0  0  0.442262  0  1.806998  0  0  0.470927  0  1.758017  0  0  0.489191  0.422826  0  1.841018  0
H  H4  1  0.71488027  0.51925212  0.76935097  1  0  0.092449  0  0.950269  0  0  0.099581  0  1.018608  0  0  0.102257  0  1.01497  0  0  0.119362  0.097513  0  1.021418  0
H  H5  1  0.28547028  0.23102068  0.48072773  1  0  0.092847  0  0.949071  0  0  0.099759  0  1.017829  0  0  0.102474  0  1.014139  0  0  0.119589  0.097686  0  1.020628  0
H  H6  1  0.28464759  0.48077467  0.23006602  1  0  0.092578  0  0.950257  0  0  0.099488  0  1.018735  0  0  0.102139  0  1.015144  0  0  0.119514  0.097437  0  1.021518  0
H  H7  1  0.71406948  0.76976972  0.51933063  1  0  0.09232  0  0.950546  0  0  0.099618  0  1.018733  0  0  0.102287  0  1.015098  0  0  0.119465  0.097563  0  1.021491  0
H  H8  1  0.69140088  0.41767323  0.65380211  1  0  0.106651  0  0.936866  0  0  0.1213  0  0.989061  0  0  0.124393  0  0.988103  0  0  0.111563  0.119091  0  0.989916  0
H  H9  1  0.30919931  0.34645923  0.58243331  1  0  0.106584  0  0.936793  0  0  0.121421  0  0.988737  0  0  0.124442  0  0.987863  0  0  0.111673  0.119251  0  0.989542  0
H  H10  1  0.30726454  0.58185315  0.34624381  1  0  0.107121  0  0.935835  0  0  0.121787  0  0.987936  0  0  0.124871  0  0.986988  0  0  0.111622  0.119578  0  0.988796  0
H  H11  1  0.69089913  0.65356698  0.41830558  1  0  0.106889  0  0.936417  0  0  0.121524  0  0.988577  0  0  0.124546  0  0.987725  0  0  0.111485  0.119355  0  0.989384  0
H  H12  1  0.32549997  0.16830699  0.92887428  1  0  0.106312  0  0.938071  0  0  0.119849  0  0.990965  0  0  0.122982  0  0.990211  0  0  0.109985  0.117616  0  0.991679  0
H  H13  1  0.67386313  0.07093749  0.83151800  1  0  0.106204  0  0.937955  0  0  0.119943  0  0.990619  0  0  0.123021  0  0.989932  0  0  0.110073  0.117751  0  0.991285  0
H  H14  1  0.67760294  0.83129648  0.07205519  1  0  0.105783  0  0.938659  0  0  0.119158  0  0.991751  0  0  0.122277  0  0.991025  0  0  0.109934  0.116946  0  0.992425  0
H  H15  1  0.32465272  0.92818209  0.16862132  1  0  0.105985  0  0.938171  0  0  0.119582  0  0.990961  0  0  0.122707  0  0.990217  0  0  0.109768  0.117362  0  0.991648  0
H  H16  1  0.35818119  0.27967493  0.03318965  1  0  0.09432  0  0.966946  0  0  0.102015  0  1.033461  0  0  0.10494  0  1.029421  0  0  0.115622  0.099807  0  1.03646  0
H  H17  1  0.64086407  0.96676214  0.72006216  1  0  0.094312  0  0.96734  0  0  0.102069  0  1.033823  0  0  0.104978  0  1.029796  0  0  0.115809  0.099865  0  1.036812  0
H  H18  1  0.64551007  0.72043878  0.96710545  1  0  0.094292  0  0.965962  0  0  0.101822  0  1.032779  0  0  0.104725  0  1.028723  0  0  0.115555  0.099616  0  1.035781  0
H  H19  1  0.35689140  0.03312232  0.27944944  1  0  0.094352  0  0.966009  0  0  0.102204  0  1.032453  0  0  0.105153  0  1.028338  0  0  0.115899  0.099985  0  1.03548  0
C  C20  1  0.62823658  0.44138028  0.80161707  1  0  0.138251  0  3.677179  0  0  0.106493  0  3.92359  0  0  0.113939  0  3.94309  0  0  0.055453  0.101623  0  3.91035  0
C  C21  1  0.37183319  0.19863115  0.55856598  1  0  0.138326  0  3.674773  0  0  0.106497  0  3.921283  0  0  0.11395  0  3.940763  0  0  0.055125  0.10163  0  3.908067  0
C  C22  1  0.37188210  0.55855178  0.19815366  1  0  0.138059  0  3.676757  0  0  0.106546  0  3.923295  0  0  0.114013  0  3.942744  0  0  0.055372  0.101664  0  3.910089  0
C  C23  1  0.62753764  0.80174380  0.44152036  1  0  0.138687  0  3.67648  0  0  0.10691  0  3.922577  0  0  0.114372  0  3.942031  0  0  0.055942  0.102052  0  3.909364  0
C  C24  1  0.61447706  0.38388543  0.73752032  1  0  -0.155724  0  3.704655  0  0  -0.175672  0  3.953423  0  0  -0.183734  0  3.975167  0  0  -0.080466  -0.170414  0  3.93875  0
C  C25  1  0.38578953  0.26266445  0.61612488  1  0  -0.155574  0  3.7036  0  0  -0.175574  0  3.952285  0  0  -0.183583  0  3.974029  0  0  -0.080077  -0.170343  0  3.937595  0
C  C26  1  0.38532994  0.61573523  0.26259898  1  0  -0.156017  0  3.704637  0  0  -0.175394  0  3.953545  0  0  -0.183457  0  3.975249  0  0  -0.079558  -0.170139  0  3.93888  0
C  C27  1  0.61379429  0.73730744  0.38435591  1  0  -0.155794  0  3.704899  0  0  -0.175418  0  3.953784  0  0  -0.183452  0  3.975542  0  0  -0.07982  -0.170187  0  3.939092  0
C  C28  1  0.41814706  0.24498709  0.89002572  1  0  -0.156661  0  3.714374  0  0  -0.175085  0  3.959125  0  0  -0.183113  0  3.981332  0  0  -0.082372  -0.16985  0  3.944144  0
C  C29  1  0.58140539  0.10992898  0.75488050  1  0  -0.157021  0  3.714468  0  0  -0.175565  0  3.959304  0  0  -0.183536  0  3.981479  0  0  -0.082589  -0.170376  0  3.944343  0
C  C30  1  0.58411241  0.75470294  0.11054674  1  0  -0.157807  0  3.714612  0  0  -0.175469  0  3.959735  0  0  -0.1835  0  3.981934  0  0  -0.08305  -0.170244  0  3.94474  0
C  C31  1  0.41725839  0.88959323  0.24526612  1  0  -0.157253  0  3.714008  0  0  -0.175303  0  3.958873  0  0  -0.183341  0  3.981088  0  0  -0.082404  -0.170079  0  3.943885  0
C  C32  1  0.50819958  0.28303315  0.78142866  1  0  0.086691  0  3.785609  0  0  0.09669  0  4.022952  0  0  0.100683  0  4.045312  0  0  0.009269  0.0942  0  4.007577  0
C  C33  1  0.49180283  0.21859663  0.71692978  1  0  0.08686  0  3.785087  0  0  0.096887  0  4.02249  0  0  0.100903  0  4.044781  0  0  0.009257  0.094393  0  4.007146  0
C  C34  1  0.49233924  0.71648009  0.21904698  1  0  0.088231  0  3.78376  0  0  0.096966  0  4.023258  0  0  0.100982  0  4.045548  0  0  0.009193  0.09448  0  4.007899  0
C  C35  1  0.50781696  0.78097206  0.28355202  1  0  0.086965  0  3.784291  0  0  0.096471  0  4.023112  0  0  0.100491  0  4.045391  0  0  0.008949  0.093981  0  4.00776  0
C  C36  1  0.43418984  0.30725119  0.94912080  1  0  0.127684  0  3.688842  0  0  0.096755  0  3.9327  0  0  0.103695  0  3.952293  0  0  0.051591  0.092234  0  3.919412  0
C  C37  1  0.56517904  0.05091397  0.69257131  1  0  0.127743  0  3.689618  0  0  0.096634  0  3.933486  0  0  0.103573  0  3.95315  0  0  0.051473  0.092111  0  3.920185  0
C  C38  1  0.56829462  0.69274895  0.05111639  1  0  0.12771  0  3.688764  0  0  0.096951  0  3.932574  0  0  0.10389  0  3.952188  0  0  0.051725  0.092428  0  3.919313  0
C  C39  1  0.43320476  0.94901762  0.30719927  1  0  0.127292  0  3.689126  0  0  0.096259  0  3.932817  0  0  0.103179  0  3.952446  0  0  0.051105  0.091732  0  3.919563  0
N  N40  1  0.53798446  0.40403851  0.90584975  1  0  -0.285602  0  3.330588  0  0  -0.194896  0  3.60375  0  0  -0.215138  0  3.621913  0  0  -0.342749  -0.181251  0  3.591237  0
N  N41  1  0.46163493  0.09430779  0.59583531  1  0  -0.285857  0  3.329598  0  0  -0.194958  0  3.602662  0  0  -0.215244  0  3.620866  0  0  -0.342922  -0.181302  0  3.590131  0
N  N42  1  0.46326427  0.59611968  0.09398818  1  0  -0.28499  0  3.330105  0  0  -0.19432  0  3.603104  0  0  -0.214546  0  3.621245  0  0  -0.342774  -0.180681  0  3.590579  0
N  N43  1  0.53727229  0.90602729  0.40387943  1  0  -0.284994  0  3.329938  0  0  -0.194305  0  3.60292  0  0  -0.214535  0  3.621088  0  0  -0.342734  -0.180673  0  3.590393  0
O  O44  1  0.47133762  0.26249214  0.26231377  1  0  -1.033836  0  1.677372  0  0  -1.062925  0  1.987043  0  0  -1.104935  0  1.965808  0  0  -0.677423  -1.034185  0  2.000886  0
O  O45  1  0.52834557  0.73770876  0.73740860  1  0  -1.033401  0  1.677045  0  0  -1.062376  0  1.986698  0  0  -1.104466  0  1.965424  0  0  -0.677393  -1.033647  0  2.000549  0
F  F46  1  0.89020702  0.34858497  0.34945316  1  0  -0.594544  0  0.72192  0  0  -0.569743  0  0.870782  0  0  -0.590807  0  0.852709  0  0  -0.393139  -0.554865  0  0.882933  0
F  F47  1  0.10947324  0.65026086  0.65161397  1  0  -0.594649  0  0.721946  0  0  -0.569938  0  0.870973  0  0  -0.590927  0  0.852733  0  0  -0.393295  -0.555064  0  0.883131  0
F  F48  1  0.07099934  0.17562214  0.17452347  1  0  -0.590319  0  0.740843  0  0  -0.563698  0  0.890926  0  0  -0.584596  0  0.871378  0  0  -0.381778  -0.548986  0  0.904171  0
F  F49  1  0.92873406  0.82558789  0.82417484  1  0  -0.590494  0  0.741104  0  0  -0.563782  0  0.891187  0  0  -0.584625  0  0.871515  0  0  -0.381826  -0.54909  0  0.904458  0
F  F50  1  0.98723751  0.38619730  0.13830271  1  0  -0.618856  0  0.870696  0  0  -0.594633  0  1.089811  0  0  -0.617179  0  1.06485  0  0  -0.374761  -0.578647  0  1.106686  0
F  F51  1  0.01261216  0.86160501  0.61368109  1  0  -0.618918  0  0.870249  0  0  -0.594798  0  1.089526  0  0  -0.617379  0  1.064556  0  0  -0.374806  -0.578813  0  1.106389  0
F  F52  1  0.01225202  0.61501707  0.86218631  1  0  -0.618839  0  0.872903  0  0  -0.594428  0  1.092729  0  0  -0.617029  0  1.067601  0  0  -0.374783  -0.578427  0  1.109713  0
F  F53  1  0.98741521  0.13779127  0.38498709  1  0  -0.618905  0  0.873089  0  0  -0.594503  0  1.093069  0  0  -0.617072  0  1.067955  0  0  -0.374972  -0.5785  0  1.110058  0
