# generated using pymatgen
data_ZnH5C8NO4
_symmetry_space_group_name_H-M   'P 1'
_cell_length_a   8.52519474
_cell_length_b   8.52522425
_cell_length_c   14.92256358
_cell_angle_alpha   96.69998434
_cell_angle_beta   96.70014317
_cell_angle_gamma   116.81751035
_symmetry_Int_Tables_number   1
_chemical_formula_structural   ZnH5C8NO4
_chemical_formula_sum   'Zn4 H20 C32 N4 O16'
_cell_volume   943.60227526
_cell_formula_units_Z   4
loop_
 _symmetry_equiv_pos_site_id
 _symmetry_equiv_pos_as_xyz
  1  'x, y, z'
loop_
 _atom_site_type_symbol
 _atom_site_label
 _atom_site_symmetry_multiplicity
 _atom_site_fract_x
 _atom_site_fract_y
 _atom_site_fract_z
 _atom_site_occupancy
 _atom_site_hle17_bader_spin_density
 _atom_site_hle17_ddec_charge
 _atom_site_hle17_ddec_spin_density
 _atom_site_hle17_ddec_sum_bond_order
 _atom_site_hle17_magmom
 _atom_site_hse06_10hf_bader_spin_density
 _atom_site_hse06_10hf_ddec_charge
 _atom_site_hse06_10hf_ddec_spin_density
 _atom_site_hse06_10hf_ddec_sum_bond_order
 _atom_site_hse06_10hf_magmom
 _atom_site_hse06_bader_spin_density
 _atom_site_hse06_ddec_charge
 _atom_site_hse06_ddec_spin_density
 _atom_site_hse06_ddec_sum_bond_order
 _atom_site_hse06_magmom
 _atom_site_pbe_bader_spin_density
 _atom_site_pbe_cm5_charge
 _atom_site_pbe_ddec_charge
 _atom_site_pbe_ddec_spin_density
 _atom_site_pbe_ddec_sum_bond_order
 _atom_site_pbe_magmom
Zn  Zn0  1  0.57047065  0.91687742  0.93412956  1  0  1.041753  0  1.869071  0  0  0.866992  0  2.3455  0  0  0.920274  0  2.278338  0  0  0.67414  0.829854  0  2.391558  0
Zn  Zn1  1  0.08312420  0.42952915  0.56587054  1  0  1.04173  0  1.869094  0  0  0.866961  0  2.345521  0  0  0.920243  0  2.278359  0  0  0.674136  0.829821  0  2.391577  0
Zn  Zn2  1  0.42953060  0.08312405  0.06587102  1  0  1.041703  0  1.869109  0  0  0.866918  0  2.34554  0  0  0.920202  0  2.278379  0  0  0.674113  0.829779  0  2.391596  0
Zn  Zn3  1  0.91687396  0.57046831  0.43412890  1  0  1.041709  0  1.869102  0  0  0.866927  0  2.345534  0  0  0.92021  0  2.278372  0  0  0.674128  0.829785  0  2.391588  0
H  H4  1  0.28595453  0.98687606  0.67640612  1  0  0.11925  0  0.946425  0  0  0.128391  0  1.00737  0  0  0.131329  0  1.006677  0  0  0.111657  0.126185  0  1.008113  0
H  H5  1  0.01312283  0.71404439  0.82359484  1  0  0.119262  0  0.946453  0  0  0.128407  0  1.007386  0  0  0.131349  0  1.006688  0  0  0.111668  0.126198  0  1.008132  0
H  H6  1  0.71404609  0.01312409  0.32359500  1  0  0.11923  0  0.946426  0  0  0.128379  0  1.007365  0  0  0.131318  0  1.00667  0  0  0.111656  0.126169  0  1.008111  0
H  H7  1  0.98687778  0.28595574  0.17640493  1  0  0.119247  0  0.946449  0  0  0.128393  0  1.007383  0  0  0.131335  0  1.006684  0  0  0.111668  0.126183  0  1.008129  0
H  H8  1  0.17743902  0.12430406  0.55968426  1  0  0.094375  0  0.923254  0  0  0.102878  0  0.984281  0  0  0.105775  0  0.981847  0  0  0.123867  0.100717  0  0.986152  0
H  H9  1  0.87569494  0.82256240  0.94031537  1  0  0.094362  0  0.923266  0  0  0.102864  0  0.984298  0  0  0.105762  0  0.981863  0  0  0.123865  0.100705  0  0.986167  0
H  H10  1  0.82256095  0.87569474  0.44031539  1  0  0.09435  0  0.923261  0  0  0.102853  0  0.984294  0  0  0.105751  0  0.981859  0  0  0.123865  0.100694  0  0.986163  0
H  H11  1  0.12430811  0.17744040  0.05968406  1  0  0.094377  0  0.923254  0  0  0.102872  0  0.984291  0  0  0.10577  0  0.981857  0  0  0.123863  0.100713  0  0.986161  0
H  H12  1  0.19587810  0.51022010  0.76439569  1  0  0.096762  0  0.945844  0  0  0.102354  0  1.01329  0  0  0.105653  0  1.009956  0  0  0.12068  0.099913  0  1.015755  0
H  H13  1  0.48977992  0.80412216  0.73560436  1  0  0.096771  0  0.945838  0  0  0.102363  0  1.013284  0  0  0.105663  0  1.00995  0  0  0.120682  0.099921  0  1.015751  0
H  H14  1  0.80411952  0.48977871  0.23560448  1  0  0.096755  0  0.945853  0  0  0.10234  0  1.013299  0  0  0.105638  0  1.009966  0  0  0.12066  0.099883  0  1.015781  0
H  H15  1  0.51022251  0.19587932  0.26439630  1  0  0.096769  0  0.945798  0  0  0.10235  0  1.01326  0  0  0.105648  0  1.009929  0  0  0.120671  0.099912  0  1.01572  0
H  H16  1  0.30303865  0.38797815  0.88776922  1  0  0.127263  0  0.944394  0  0  0.134493  0  1.0056  0  0  0.138716  0  1.002853  0  0  0.113971  0.131365  0  1.007844  0
H  H17  1  0.61202193  0.69695926  0.61223084  1  0  0.127279  0  0.94436  0  0  0.134509  0  1.005569  0  0  0.138732  0  1.002822  0  0  0.113978  0.131385  0  1.007808  0
H  H18  1  0.69696205  0.61202467  0.11223074  1  0  0.127276  0  0.944387  0  0  0.134506  0  1.005594  0  0  0.138728  0  1.002847  0  0  0.11398  0.131377  0  1.007839  0
H  H19  1  0.38797687  0.30303954  0.38776941  1  0  0.127271  0  0.94438  0  0  0.134504  0  1.005583  0  0  0.138727  0  1.002837  0  0  0.113982  0.13138  0  1.007822  0
H  H20  1  0.96242470  0.59135397  0.08399720  1  0  0.124593  0  0.940529  0  0  0.132181  0  1.000902  0  0  0.136285  0  0.998552  0  0  0.11113  0.12928  0  1.002665  0
H  H21  1  0.40864541  0.03757436  0.41600284  1  0  0.124681  0  0.940575  0  0  0.132246  0  1.000938  0  0  0.136352  0  0.998587  0  0  0.111162  0.129345  0  1.002701  0
H  H22  1  0.03757363  0.40864885  0.91600193  1  0  0.124617  0  0.940587  0  0  0.132213  0  1.000956  0  0  0.136319  0  0.998605  0  0  0.111143  0.129312  0  1.002719  0
H  H23  1  0.59135285  0.96242579  0.58399746  1  0  0.124621  0  0.940601  0  0  0.132216  0  1.000972  0  0  0.136322  0  0.998622  0  0  0.111158  0.129316  0  1.002734  0
C  C24  1  0.36373071  0.09971955  0.86501217  1  0  0.657859  0  3.89158  0  0  0.607121  0  4.183033  0  0  0.64224  0  4.17478  0  0  0.21745  0.583352  0  4.187733  0
C  C25  1  0.90028015  0.63626703  0.63498943  1  0  0.657836  0  3.891624  0  0  0.607069  0  4.183077  0  0  0.642188  0  4.174826  0  0  0.217431  0.583299  0  4.187777  0
C  C26  1  0.63626873  0.90028059  0.13498821  1  0  0.65789  0  3.891681  0  0  0.607153  0  4.183104  0  0  0.642272  0  4.17485  0  0  0.21747  0.583385  0  4.187804  0
C  C27  1  0.09971983  0.36373177  0.36501089  1  0  0.657942  0  3.891584  0  0  0.607205  0  4.18303  0  0  0.642323  0  4.174778  0  0  0.217474  0.583436  0  4.187732  0
C  C28  1  0.30021533  0.17587475  0.79119495  1  0  0.000537  0  3.717246  0  0  0.021168  0  3.945529  0  0  0.018987  0  3.965887  0  0  0.00894  0.022657  0  3.931799  0
C  C29  1  0.82412807  0.69978849  0.70880513  1  0  0.00041  0  3.717288  0  0  0.02114  0  3.945465  0  0  0.018959  0  3.965822  0  0  0.008941  0.022629  0  3.931735  0
C  C30  1  0.69978592  0.82412673  0.20880562  1  0  0.000445  0  3.717402  0  0  0.021147  0  3.945589  0  0  0.018967  0  3.965947  0  0  0.008959  0.022638  0  3.931854  0
C  C31  1  0.17587381  0.30021432  0.29119490  1  0  0.000437  0  3.717189  0  0  0.021078  0  3.945483  0  0  0.018898  0  3.96584  0  0  0.008924  0.022567  0  3.931752  0
C  C32  1  0.26656817  0.10234005  0.69783261  1  0  -0.119583  0  3.698189  0  0  -0.143328  0  3.945944  0  0  -0.149344  0  3.968329  0  0  -0.075216  -0.139446  0  3.931054  0
C  C33  1  0.89765917  0.73343060  0.80216895  1  0  -0.119591  0  3.698208  0  0  -0.143374  0  3.945958  0  0  -0.149393  0  3.968341  0  0  -0.075224  -0.139489  0  3.931071  0
C  C34  1  0.73343000  0.89765742  0.30216818  1  0  -0.119526  0  3.698212  0  0  -0.143304  0  3.94596  0  0  -0.149321  0  3.968346  0  0  -0.075211  -0.139419  0  3.931072  0
C  C35  1  0.10234198  0.26656818  0.19783077  1  0  -0.119513  0  3.698169  0  0  -0.143263  0  3.945929  0  0  -0.149282  0  3.968311  0  0  -0.07518  -0.139379  0  3.931041  0
C  C36  1  0.20676282  0.17806081  0.63316247  1  0  0.13338  0  3.670021  0  0  0.102718  0  3.9199  0  0  0.108995  0  3.938332  0  0  0.055253  0.098637  0  3.907374  0
C  C37  1  0.82193711  0.79323549  0.86683755  1  0  0.133461  0  3.669942  0  0  0.102805  0  3.919829  0  0  0.109082  0  3.938261  0  0  0.055277  0.098723  0  3.907305  0
C  C38  1  0.79323653  0.82193665  0.36683772  1  0  0.133408  0  3.669898  0  0  0.102743  0  3.919795  0  0  0.109019  0  3.938227  0  0  0.055233  0.09866  0  3.90727  0
C  C39  1  0.17806413  0.20676598  0.13316236  1  0  0.133366  0  3.669935  0  0  0.102712  0  3.919819  0  0  0.108988  0  3.938252  0  0  0.055226  0.09863  0  3.907294  0
C  C40  1  0.21720262  0.39439397  0.74765800  1  0  0.129408  0  3.673309  0  0  0.097709  0  3.92568  0  0  0.103933  0  3.943957  0  0  0.051414  0.093674  0  3.913318  0
C  C41  1  0.60560625  0.78279666  0.75234209  1  0  0.129387  0  3.673398  0  0  0.09769  0  3.925775  0  0  0.103913  0  3.944053  0  0  0.051413  0.093654  0  3.913414  0
C  C42  1  0.78279863  0.60560751  0.25234258  1  0  0.129395  0  3.673312  0  0  0.097704  0  3.925672  0  0  0.103929  0  3.943948  0  0  0.051431  0.09368  0  3.913315  0
C  C43  1  0.39439436  0.21720348  0.24765836  1  0  0.129401  0  3.673351  0  0  0.097712  0  3.925723  0  0  0.103935  0  3.944  0  0  0.051418  0.093674  0  3.913359  0
C  C44  1  0.27560022  0.32515299  0.81605817  1  0  -0.114463  0  3.695043  0  0  -0.137425  0  3.940159  0  0  -0.142845  0  3.960246  0  0  -0.07406  -0.133951  0  3.926865  0
C  C45  1  0.67484474  0.72439821  0.68394313  1  0  -0.11444  0  3.695089  0  0  -0.137436  0  3.940194  0  0  -0.142857  0  3.960278  0  0  -0.074094  -0.133965  0  3.926895  0
C  C46  1  0.72439921  0.67484716  0.18394221  1  0  -0.114456  0  3.695055  0  0  -0.13744  0  3.940149  0  0  -0.14286  0  3.960234  0  0  -0.07409  -0.133966  0  3.926851  0
C  C47  1  0.32515588  0.27560193  0.31605732  1  0  -0.11448  0  3.695088  0  0  -0.137449  0  3.940215  0  0  -0.142869  0  3.960299  0  0  -0.07411  -0.13398  0  3.926917  0
C  C48  1  0.78593587  0.30585483  0.02205890  1  0  0.690201  0  3.90199  0  0  0.644258  0  4.188986  0  0  0.679872  0  4.180747  0  0  0.211152  0.620168  0  4.193678  0
C  C49  1  0.69414374  0.21406260  0.47793912  1  0  0.690325  0  3.902027  0  0  0.644378  0  4.188986  0  0  0.679992  0  4.180744  0  0  0.211137  0.620288  0  4.193681  0
C  C50  1  0.21406300  0.69414663  0.97793951  1  0  0.690273  0  3.902001  0  0  0.644359  0  4.18897  0  0  0.679973  0  4.18073  0  0  0.211151  0.62027  0  4.193664  0
C  C51  1  0.30585452  0.78593755  0.52206118  1  0  0.690005  0  3.902126  0  0  0.644151  0  4.189015  0  0  0.679764  0  4.180778  0  0  0.211062  0.620061  0  4.193704  0
C  C52  1  0.94348190  0.48399887  0.02946621  1  0  -0.159579  0  3.647172  0  0  -0.178243  0  3.89966  0  0  -0.18385  0  3.913863  0  0  -0.080346  -0.174565  0  3.89012  0
C  C53  1  0.51600080  0.05651769  0.47053328  1  0  -0.159761  0  3.647264  0  0  -0.178342  0  3.899675  0  0  -0.183952  0  3.913875  0  0  -0.080356  -0.174666  0  3.890135  0
C  C54  1  0.05651815  0.51600259  0.97053228  1  0  -0.159508  0  3.647215  0  0  -0.178221  0  3.899725  0  0  -0.18383  0  3.913928  0  0  -0.080258  -0.174545  0  3.890186  0
C  C55  1  0.48399801  0.94348112  0.52946764  1  0  -0.159423  0  3.64723  0  0  -0.178184  0  3.8997  0  0  -0.183791  0  3.913902  0  0  -0.080286  -0.174508  0  3.890161  0
N  N56  1  0.18237025  0.32170902  0.65778480  1  0  -0.309479  0  3.273322  0  0  -0.226091  0  3.543303  0  0  -0.245048  0  3.557716  0  0  -0.3243  -0.213283  0  3.533412  0
N  N57  1  0.67828968  0.81762952  0.84221592  1  0  -0.309516  0  3.273275  0  0  -0.226144  0  3.543272  0  0  -0.245099  0  3.557682  0  0  -0.324318  -0.213335  0  3.533382  0
N  N58  1  0.81762973  0.67828978  0.34221552  1  0  -0.309474  0  3.273251  0  0  -0.22608  0  3.54323  0  0  -0.245036  0  3.55764  0  0  -0.324294  -0.213271  0  3.533334  0
N  N59  1  0.32171094  0.18237062  0.15778453  1  0  -0.309455  0  3.273219  0  0  -0.226069  0  3.543203  0  0  -0.245024  0  3.557614  0  0  -0.324263  -0.213262  0  3.533315  0
O  O60  1  0.43696869  0.00491769  0.84113080  1  0  -0.6195  0  2.05171  0  0  -0.557557  0  2.307379  0  0  -0.58589  0  2.294137  0  0  -0.307345  -0.537803  0  2.315733  0
O  O61  1  0.99508289  0.56303067  0.65886973  1  0  -0.619484  0  2.051745  0  0  -0.55754  0  2.307424  0  0  -0.585873  0  2.294182  0  0  -0.307331  -0.537788  0  2.315778  0
O  O62  1  0.56303311  0.99508244  0.15886972  1  0  -0.619511  0  2.051722  0  0  -0.557577  0  2.307402  0  0  -0.585908  0  2.294158  0  0  -0.307359  -0.537824  0  2.315757  0
O  O63  1  0.00491826  0.43696812  0.34113000  1  0  -0.619554  0  2.051705  0  0  -0.557612  0  2.307384  0  0  -0.585944  0  2.294141  0  0  -0.307375  -0.537858  0  2.315736  0
O  O64  1  0.33888102  0.13972176  0.94503160  1  0  -0.627301  0  2.060186  0  0  -0.564472  0  2.31906  0  0  -0.593191  0  2.305338  0  0  -0.311838  -0.544454  0  2.327724  0
O  O65  1  0.86027474  0.66111359  0.55496954  1  0  -0.627222  0  2.060133  0  0  -0.56439  0  2.319004  0  0  -0.593109  0  2.305285  0  0  -0.311827  -0.544371  0  2.327665  0
O  O66  1  0.66111906  0.86027972  0.05496890  1  0  -0.627258  0  2.060211  0  0  -0.564456  0  2.319099  0  0  -0.593175  0  2.305379  0  0  -0.311822  -0.544439  0  2.327763  0
O  O67  1  0.13972163  0.33888255  0.44503104  1  0  -0.627287  0  2.060191  0  0  -0.564471  0  2.319074  0  0  -0.593191  0  2.305354  0  0  -0.311821  -0.544453  0  2.327737  0
O  O68  1  0.77586526  0.17396964  0.96756993  1  0  -0.633065  0  2.05915  0  0  -0.567745  0  2.314229  0  0  -0.596555  0  2.300205  0  0  -0.316849  -0.547786  0  2.323176  0
O  O69  1  0.82602848  0.22413689  0.53243006  1  0  -0.633092  0  2.059207  0  0  -0.567786  0  2.314291  0  0  -0.596595  0  2.300263  0  0  -0.31682  -0.547827  0  2.323238  0
O  O70  1  0.22413590  0.82602916  0.03243046  1  0  -0.633079  0  2.059177  0  0  -0.567761  0  2.314246  0  0  -0.59657  0  2.300222  0  0  -0.316823  -0.547802  0  2.323192  0
O  O71  1  0.17396797  0.77586193  0.46757003  1  0  -0.632957  0  2.059185  0  0  -0.567671  0  2.314241  0  0  -0.59648  0  2.300216  0  0  -0.316772  -0.547712  0  2.323185  0
O  O72  1  0.67255145  0.30204836  0.07178956  1  0  -0.632434  0  2.058941  0  0  -0.565386  0  2.320203  0  0  -0.595322  0  2.306928  0  0  -0.309736  -0.544492  0  2.328488  0
O  O73  1  0.69795100  0.32744661  0.42820841  1  0  -0.632472  0  2.058957  0  0  -0.565439  0  2.320238  0  0  -0.595375  0  2.306958  0  0  -0.309744  -0.544546  0  2.328528  0
O  O74  1  0.32744742  0.69795310  0.92820885  1  0  -0.632511  0  2.058963  0  0  -0.565486  0  2.320238  0  0  -0.595421  0  2.306958  0  0  -0.30977  -0.544594  0  2.328529  0
O  O75  1  0.30204779  0.67255218  0.57179117  1  0  -0.632399  0  2.05896  0  0  -0.565389  0  2.3202  0  0  -0.595324  0  2.306922  0  0  -0.309741  -0.544498  0  2.328488  0
