# generated using pymatgen
data_HgP2H18Au2C30(ClF4)4
_symmetry_space_group_name_H-M   'P 1'
_cell_length_a   10.84212718
_cell_length_b   11.49284941
_cell_length_c   18.48021968
_cell_angle_alpha   91.42982176
_cell_angle_beta   107.04707385
_cell_angle_gamma   118.13803490
_symmetry_Int_Tables_number   1
_chemical_formula_structural   HgP2H18Au2C30(ClF4)4
_chemical_formula_sum   'Hg2 P4 H36 Au4 C60 Cl8 F32'
_cell_volume   1904.66890352
_cell_formula_units_Z   2
loop_
 _symmetry_equiv_pos_site_id
 _symmetry_equiv_pos_as_xyz
  1  'x, y, z'
loop_
 _atom_site_type_symbol
 _atom_site_label
 _atom_site_symmetry_multiplicity
 _atom_site_fract_x
 _atom_site_fract_y
 _atom_site_fract_z
 _atom_site_occupancy
 _atom_site_hle17_bader_spin_density
 _atom_site_hle17_ddec_charge
 _atom_site_hle17_ddec_spin_density
 _atom_site_hle17_ddec_sum_bond_order
 _atom_site_hle17_magmom
 _atom_site_hse06_10hf_bader_spin_density
 _atom_site_hse06_10hf_ddec_charge
 _atom_site_hse06_10hf_ddec_spin_density
 _atom_site_hse06_10hf_ddec_sum_bond_order
 _atom_site_hse06_10hf_magmom
 _atom_site_hse06_bader_spin_density
 _atom_site_hse06_ddec_charge
 _atom_site_hse06_ddec_spin_density
 _atom_site_hse06_ddec_sum_bond_order
 _atom_site_hse06_magmom
 _atom_site_pbe_bader_spin_density
 _atom_site_pbe_cm5_charge
 _atom_site_pbe_ddec_charge
 _atom_site_pbe_ddec_spin_density
 _atom_site_pbe_ddec_sum_bond_order
 _atom_site_pbe_magmom
Hg  Hg0  1  0.00000110  0.00000100  0.00000065  1  0  0.628663  0  2.020381  0  0  0.497437  0  2.478507  0  0  0.527649  0  2.45497  0  0  0.455138  0.475264  0  2.496551  0
Hg  Hg1  1  0.49999749  0.49999928  0.49999981  1  0  0.629159  0  2.024251  0  0  0.498056  0  2.482837  0  0  0.528323  0  2.45918  0  0  0.455824  0.475902  0  2.500922  0
P  P2  1  0.54348798  0.63402744  0.86548352  1  0  0.665839  0  3.907513  0  0  0.641451  0  4.402727  0  0  0.651721  0  4.401388  0  0  -0.020556  0.635028  0  4.402571  0
P  P3  1  0.54379854  0.86572074  0.63455721  1  0  0.665294  0  3.907893  0  0  0.641139  0  4.402489  0  0  0.651411  0  4.401211  0  0  -0.022071  0.634735  0  4.40226  0
P  P4  1  0.45651264  0.36597313  0.13451603  1  0  0.665898  0  3.907559  0  0  0.641511  0  4.402775  0  0  0.651779  0  4.401436  0  0  -0.020562  0.635087  0  4.402621  0
P  P5  1  0.45620126  0.13427883  0.36544293  1  0  0.665256  0  3.907919  0  0  0.641101  0  4.402516  0  0  0.651373  0  4.401239  0  0  -0.022074  0.634697  0  4.402287  0
H  H6  1  0.43492068  0.42012362  0.90583385  1  0  0.143802  0  0.952825  0  0  0.163524  0  1.009536  0  0  0.164958  0  1.010608  0  0  0.094175  0.162704  0  1.00867  0
H  H7  1  0.60874130  0.07964928  0.59419445  1  0  0.145042  0  0.953631  0  0  0.165151  0  1.009727  0  0  0.166626  0  1.01072  0  0  0.095367  0.164295  0  1.008908  0
H  H8  1  0.56508289  0.57987797  0.09416530  1  0  0.143746  0  0.952837  0  0  0.1635  0  1.009515  0  0  0.164934  0  1.010585  0  0  0.094163  0.162678  0  1.008649  0
H  H9  1  0.39125850  0.92035029  0.40580569  1  0  0.145075  0  0.953588  0  0  0.165166  0  1.009714  0  0  0.166636  0  1.010714  0  0  0.09538  0.164309  0  1.008896  0
H  H10  1  0.63457566  0.51039012  0.94705650  1  0  0.147457  0  0.955042  0  0  0.164486  0  1.016463  0  0  0.166775  0  1.015628  0  0  0.09381  0.162895  0  1.017036  0
H  H11  1  0.67694170  0.98941764  0.55294385  1  0  0.147563  0  0.955474  0  0  0.164801  0  1.016652  0  0  0.167095  0  1.015795  0  0  0.09436  0.163211  0  1.017219  0
H  H12  1  0.36542441  0.48961045  0.05294251  1  0  0.147442  0  0.955063  0  0  0.164466  0  1.016495  0  0  0.166755  0  1.015658  0  0  0.093805  0.162875  0  1.017066  0
H  H13  1  0.32305890  0.01058193  0.44705612  1  0  0.147565  0  0.955505  0  0  0.164807  0  1.016673  0  0  0.167083  0  1.015862  0  0  0.094354  0.163217  0  1.01724  0
H  H14  1  0.54460775  0.42452522  0.84897925  1  0  0.158299  0  0.954656  0  0  0.171577  0  1.019534  0  0  0.174644  0  1.017726  0  0  0.095451  0.169522  0  1.020653  0
H  H15  1  0.77083317  0.07522786  0.65102417  1  0  0.158745  0  0.953835  0  0  0.17173  0  1.019164  0  0  0.174813  0  1.017318  0  0  0.095623  0.169719  0  1.02017  0
H  H16  1  0.45539194  0.57547133  0.15101826  1  0  0.15829  0  0.954748  0  0  0.171554  0  1.019636  0  0  0.174623  0  1.017824  0  0  0.095437  0.169499  0  1.020756  0
H  H17  1  0.22916608  0.92477069  0.34897586  1  0  0.158774  0  0.953835  0  0  0.171765  0  1.019149  0  0  0.174828  0  1.017355  0  0  0.095642  0.169754  0  1.020156  0
H  H18  1  0.37658011  0.52058234  0.73503693  1  0  0.150597  0  0.952656  0  0  0.169675  0  1.012019  0  0  0.171524  0  1.012024  0  0  0.092579  0.168462  0  1.012016  0
H  H19  1  0.62088507  0.97932405  0.76500175  1  0  0.150676  0  0.953098  0  0  0.16987  0  1.012358  0  0  0.171749  0  1.012329  0  0  0.092968  0.168625  0  1.012401  0
H  H20  1  0.62341915  0.47941723  0.26496267  1  0  0.15059  0  0.95264  0  0  0.169654  0  1.012028  0  0  0.171505  0  1.012023  0  0  0.092575  0.16844  0  1.012025  0
H  H21  1  0.37911497  0.02067451  0.23499811  1  0  0.150689  0  0.953057  0  0  0.169887  0  1.012315  0  0  0.171762  0  1.012288  0  0  0.092984  0.168642  0  1.012359  0
H  H22  1  0.36504185  0.66210142  0.76534405  1  0  0.125589  0  1.011679  0  0  0.144164  0  1.076109  0  0  0.145252  0  1.077578  0  0  0.084507  0.143718  0  1.074651  0
H  H23  1  0.43752012  0.83783250  0.73475314  1  0  0.127359  0  1.010164  0  0  0.145546  0  1.074902  0  0  0.146659  0  1.076346  0  0  0.084592  0.145095  0  1.073442  0
H  H24  1  0.63495821  0.33789815  0.23465538  1  0  0.125659  0  1.011606  0  0  0.144217  0  1.076047  0  0  0.145303  0  1.077516  0  0  0.084532  0.143771  0  1.074589  0
H  H25  1  0.56248072  0.16216606  0.26524655  1  0  0.127332  0  1.010215  0  0  0.145522  0  1.07495  0  0  0.146635  0  1.076395  0  0  0.084576  0.145072  0  1.073489  0
H  H26  1  0.27492411  0.51087102  0.79843706  1  0  0.151979  0  0.953703  0  0  0.168563  0  1.012934  0  0  0.170992  0  1.012208  0  0  0.091782  0.167102  0  1.013676  0
H  H27  1  0.46555798  0.98902099  0.70158214  1  0  0.151397  0  0.953471  0  0  0.168388  0  1.012216  0  0  0.170771  0  1.011598  0  0  0.091874  0.16686  0  1.013042  0
H  H28  1  0.72507596  0.48912956  0.20156195  1  0  0.151967  0  0.953693  0  0  0.168568  0  1.012908  0  0  0.170998  0  1.012176  0  0  0.091764  0.167106  0  1.013651  0
H  H29  1  0.53444183  0.01097857  0.29841801  1  0  0.151374  0  0.953493  0  0  0.168365  0  1.01224  0  0  0.170747  0  1.011625  0  0  0.091864  0.166836  0  1.013066  0
H  H30  1  0.50918702  0.79786261  0.92876914  1  0  0.145307  0  0.983392  0  0  0.163722  0  1.044642  0  0  0.165478  0  1.044613  0  0  0.087342  0.162711  0  1.044178  0
H  H31  1  0.28237826  0.70175709  0.57135265  1  0  0.145622  0  0.98448  0  0  0.164122  0  1.045494  0  0  0.165884  0  1.045433  0  0  0.087426  0.163109  0  1.045053  0
H  H32  1  0.49081470  0.20213897  0.07123106  1  0  0.145318  0  0.983389  0  0  0.163721  0  1.044657  0  0  0.165476  0  1.044628  0  0  0.087347  0.16271  0  1.044193  0
H  H33  1  0.71762179  0.29824147  0.42864721  1  0  0.145583  0  0.984504  0  0  0.16408  0  1.045531  0  0  0.165865  0  1.045401  0  0  0.087393  0.163067  0  1.04509  0
H  H34  1  0.60369092  0.73514687  0.99646411  1  0  0.150298  0  0.955483  0  0  0.170251  0  1.011846  0  0  0.172039  0  1.011991  0  0  0.095374  0.169007  0  1.01182  0
H  H35  1  0.37189548  0.76451948  0.50363380  1  0  0.151176  0  0.955275  0  0  0.170635  0  1.012336  0  0  0.17244  0  1.012481  0  0  0.09538  0.169394  0  1.012283  0
H  H36  1  0.39630968  0.26485270  0.00353586  1  0  0.150302  0  0.955484  0  0  0.17026  0  1.01184  0  0  0.172047  0  1.011985  0  0  0.095378  0.169017  0  1.011814  0
H  H37  1  0.62810378  0.23548009  0.49636580  1  0  0.151153  0  0.955248  0  0  0.170611  0  1.012315  0  0  0.172429  0  1.012423  0  0  0.095374  0.16937  0  1.012262  0
H  H38  1  0.40587048  0.63442086  0.94809223  1  0  0.151868  0  0.948572  0  0  0.169656  0  1.007084  0  0  0.171793  0  1.006862  0  0  0.096445  0.168153  0  1.007237  0
H  H39  1  0.32312396  0.86520003  0.55199651  1  0  0.152251  0  0.948278  0  0  0.170006  0  1.006721  0  0  0.172125  0  1.006535  0  0  0.096303  0.168412  0  1.007014  0
H  H40  1  0.59412934  0.36557971  0.05190748  1  0  0.151851  0  0.948606  0  0  0.169641  0  1.007117  0  0  0.171778  0  1.006894  0  0  0.096439  0.168137  0  1.007272  0
H  H41  1  0.67687449  0.13479853  0.44800369  1  0  0.152245  0  0.948273  0  0  0.170003  0  1.006716  0  0  0.172183  0  1.006373  0  0  0.096307  0.168408  0  1.007009  0
Au  Au42  1  0.75566126  0.77426909  0.84082228  1  0  -0.04231  0  2.24199  0  0  -0.087415  0  2.725819  0  0  -0.08118  0  2.697397  0  0  0.229793  -0.090958  0  2.745171  0
Au  Au43  1  0.64051626  0.72554705  0.65915363  1  0  -0.041852  0  2.241833  0  0  -0.086827  0  2.724907  0  0  -0.080618  0  2.696578  0  0  0.23089  -0.090417  0  2.744345  0
Au  Au44  1  0.24434151  0.22573250  0.15917704  1  0  -0.042347  0  2.242037  0  0  -0.087459  0  2.725881  0  0  -0.081219  0  2.697454  0  0  0.229799  -0.091002  0  2.745234  0
Au  Au45  1  0.35948378  0.27445151  0.34084623  1  0  -0.041864  0  2.24184  0  0  -0.086838  0  2.724924  0  0  -0.080636  0  2.696599  0  0  0.230886  -0.090433  0  2.744362  0
C  C46  1  0.95521394  0.89268786  0.82390265  1  0  -0.360365  0  3.83379  0  0  -0.35164  0  4.155849  0  0  -0.365524  0  4.177826  0  0  -0.197001  -0.341953  0  4.140793  0
C  C47  1  0.73863215  0.60716473  0.67605367  1  0  -0.358967  0  3.83239  0  0  -0.34974  0  4.153436  0  0  -0.363663  0  4.17553  0  0  -0.197108  -0.340072  0  4.138416  0
C  C48  1  0.04479275  0.10731874  0.17610028  1  0  -0.360212  0  3.833556  0  0  -0.351482  0  4.155621  0  0  -0.365362  0  4.177601  0  0  -0.19695  -0.341796  0  4.140564  0
C  C49  1  0.26136845  0.39283484  0.32394630  1  0  -0.358943  0  3.832384  0  0  -0.349727  0  4.153468  0  0  -0.363644  0  4.175558  0  0  -0.197089  -0.340052  0  4.138429  0
C  C50  1  0.06126837  0.85240560  0.83719041  1  0  0.274481  0  3.830368  0  0  0.251423  0  4.117792  0  0  0.263025  0  4.132208  0  0  0.070153  0.243482  0  4.108061  0
C  C51  1  0.87182126  0.64746237  0.66292012  1  0  0.27317  0  3.831026  0  0  0.249728  0  4.118999  0  0  0.261344  0  4.133467  0  0  0.069365  0.241804  0  4.109191  0
C  C52  1  0.93873389  0.14759598  0.16281033  1  0  0.274438  0  3.830431  0  0  0.251379  0  4.11784  0  0  0.262983  0  4.132256  0  0  0.070148  0.243437  0  4.108106  0
C  C53  1  0.12817990  0.35253820  0.33707997  1  0  0.273219  0  3.831003  0  0  0.249754  0  4.118968  0  0  0.26137  0  4.133435  0  0  0.069369  0.241832  0  4.109159  0
C  C54  1  0.99402942  0.01360587  0.79837191  1  0  0.270955  0  3.839391  0  0  0.245446  0  4.130871  0  0  0.257771  0  4.143269  0  0  0.067628  0.236174  0  4.123592  0
C  C55  1  0.68187238  0.48619216  0.70151227  1  0  0.270133  0  3.839351  0  0  0.244682  0  4.130633  0  0  0.256987  0  4.143062  0  0  0.068045  0.235401  0  4.123332  0
C  C56  1  0.00597098  0.98639671  0.20162749  1  0  0.270889  0  3.839341  0  0  0.24535  0  4.130859  0  0  0.257673  0  4.143253  0  0  0.06756  0.236079  0  4.123577  0
C  C57  1  0.31812690  0.51380842  0.29848691  1  0  0.270133  0  3.839383  0  0  0.244659  0  4.13068  0  0  0.256963  0  4.143106  0  0  0.067998  0.235378  0  4.123379  0
C  C58  1  0.12885518  0.09287462  0.78658405  1  0  -0.08101  0  3.837784  0  0  -0.092971  0  4.130643  0  0  -0.094494  0  4.147826  0  0  -0.021548  -0.092178  0  4.119818  0
C  C59  1  0.74910120  0.40683145  0.71338023  1  0  -0.081055  0  3.840562  0  0  -0.092541  0  4.132755  0  0  -0.09406  0  4.149965  0  0  -0.020793  -0.091747  0  4.121917  0
C  C60  1  0.87114630  0.90712796  0.21341643  1  0  -0.080965  0  3.837743  0  0  -0.092901  0  4.130564  0  0  -0.094426  0  4.147742  0  0  -0.021496  -0.092108  0  4.119736  0
C  C61  1  0.25089837  0.59316911  0.28662020  1  0  -0.081179  0  3.840691  0  0  -0.092648  0  4.132859  0  0  -0.094168  0  4.150055  0  0  -0.020836  -0.091855  0  4.12202  0
C  C62  1  0.23098813  0.04726431  0.80164752  1  0  0.233885  0  3.79487  0  0  0.206835  0  4.086011  0  0  0.218136  0  4.09531  0  0  0.086041  0.198946  0  4.080267  0
C  C63  1  0.88193503  0.45247431  0.69848492  1  0  0.233862  0  3.796601  0  0  0.206881  0  4.087188  0  0  0.218247  0  4.09646  0  0  0.085354  0.199009  0  4.081368  0
C  C64  1  0.76901527  0.95273826  0.19835583  1  0  0.233908  0  3.795012  0  0  0.206864  0  4.08612  0  0  0.218171  0  4.09542  0  0  0.086082  0.198975  0  4.080373  0
C  C65  1  0.11806343  0.54752526  0.30151484  1  0  0.233882  0  3.796554  0  0  0.2069  0  4.087081  0  0  0.218255  0  4.096381  0  0  0.085357  0.199029  0  4.081265  0
C  C66  1  0.19925330  0.92661292  0.82769311  1  0  -0.080805  0  3.833619  0  0  -0.091288  0  4.123504  0  0  -0.093153  0  4.141183  0  0  -0.021106  -0.090352  0  4.111956  0
C  C67  1  0.94502459  0.57319220  0.67252389  1  0  -0.079588  0  3.834395  0  0  -0.090131  0  4.124563  0  0  -0.09208  0  4.142385  0  0  -0.020242  -0.089141  0  4.112908  0
C  C68  1  0.80075006  0.07338966  0.17230829  1  0  -0.080848  0  3.833704  0  0  -0.091322  0  4.123568  0  0  -0.093201  0  4.141263  0  0  -0.021119  -0.090385  0  4.112017  0
C  C69  1  0.05497522  0.42680737  0.32747625  1  0  -0.079597  0  3.834355  0  0  -0.090095  0  4.124451  0  0  -0.092052  0  4.142285  0  0  -0.020245  -0.089111  0  4.112806  0
C  C70  1  0.53872473  0.48229711  0.89462894  1  0  -0.504676  0  3.604693  0  0  -0.562596  0  3.839417  0  0  -0.569458  0  3.847558  0  0  -0.250288  -0.557609  0  3.832888  0
C  C71  1  0.66155440  0.01744814  0.60537976  1  0  -0.506914  0  3.604966  0  0  -0.565306  0  3.840025  0  0  -0.572124  0  3.848034  0  0  -0.252761  -0.560307  0  3.833498  0
C  C72  1  0.46127636  0.51770145  0.10537005  1  0  -0.504648  0  3.604779  0  0  -0.56257  0  3.839472  0  0  -0.56944  0  3.847627  0  0  -0.250275  -0.557583  0  3.832942  0
C  C73  1  0.33844486  0.98255143  0.39461984  1  0  -0.506969  0  3.604989  0  0  -0.565364  0  3.840069  0  0  -0.572223  0  3.848177  0  0  -0.252792  -0.560365  0  3.833543  0
C  C74  1  0.37325959  0.57526009  0.78326327  1  0  -0.518385  0  3.641496  0  0  -0.57783  0  3.874719  0  0  -0.58495  0  3.884158  0  0  -0.259795  -0.572624  0  3.868038  0
C  C75  1  0.51465636  0.92462080  0.71680152  1  0  -0.51878  0  3.64027  0  0  -0.578285  0  3.873098  0  0  -0.585461  0  3.882425  0  0  -0.259519  -0.573004  0  3.866439  0
C  C76  1  0.62674047  0.42473948  0.21673616  1  0  -0.518411  0  3.641441  0  0  -0.577854  0  3.874692  0  0  -0.584973  0  3.884126  0  0  -0.259777  -0.572648  0  3.868011  0
C  C77  1  0.48534424  0.07537876  0.28319845  1  0  -0.518751  0  3.640291  0  0  -0.578257  0  3.873116  0  0  -0.585428  0  3.882454  0  0  -0.259512  -0.572975  0  3.866456  0
C  C78  1  0.51195213  0.70664990  0.94198453  1  0  -0.511695  0  3.614316  0  0  -0.570601  0  3.846061  0  0  -0.577861  0  3.855497  0  0  -0.253594  -0.565492  0  3.839045  0
C  C79  1  0.36309294  0.79296915  0.55812696  1  0  -0.51305  0  3.61567  0  0  -0.571678  0  3.847329  0  0  -0.578913  0  3.856769  0  0  -0.253152  -0.566556  0  3.840344  0
C  C80  1  0.48804849  0.29335067  0.05801502  1  0  -0.511731  0  3.614333  0  0  -0.570632  0  3.846074  0  0  -0.57789  0  3.855508  0  0  -0.25361  -0.565524  0  3.839061  0
C  C81  1  0.63690686  0.20703042  0.44187319  1  0  -0.512948  0  3.615632  0  0  -0.571577  0  3.847283  0  0  -0.578721  0  3.856514  0  0  -0.253115  -0.566454  0  3.840297  0
C  C82  1  0.94660696  0.14871842  0.96467920  1  0  -0.387588  0  3.761343  0  0  -0.377122  0  4.090663  0  0  -0.392765  0  4.114776  0  0  -0.163921  -0.3663  0  4.074871  0
C  C83  1  0.33350237  0.35093604  0.53529007  1  0  -0.389175  0  3.764665  0  0  -0.37896  0  4.095308  0  0  -0.394582  0  4.119385  0  0  -0.164693  -0.368079  0  4.079431  0
C  C84  1  0.05339314  0.85128215  0.03532176  1  0  -0.387606  0  3.761393  0  0  -0.377115  0  4.090653  0  0  -0.392763  0  4.11477  0  0  -0.163926  -0.366296  0  4.07486  0
C  C85  1  0.66649499  0.64906252  0.46470904  1  0  -0.38911  0  3.764472  0  0  -0.378897  0  4.095124  0  0  -0.394522  0  4.119176  0  0  -0.16466  -0.368019  0  4.079251  0
C  C86  1  0.04440037  0.26314878  0.94479324  1  0  0.235664  0  3.84955  0  0  0.199131  0  4.159411  0  0  0.210591  0  4.169919  0  0  0.069409  0.190766  0  4.152884  0
C  C87  1  0.33672551  0.23651664  0.55522324  1  0  0.238797  0  3.84744  0  0  0.201692  0  4.158379  0  0  0.213197  0  4.168853  0  0  0.070756  0.193281  0  4.151979  0
C  C88  1  0.95559894  0.73685178  0.05520789  1  0  0.235691  0  3.849488  0  0  0.19914  0  4.159366  0  0  0.210605  0  4.169871  0  0  0.069449  0.190775  0  4.152846  0
C  C89  1  0.66327297  0.76348393  0.44477610  1  0  0.238748  0  3.84739  0  0  0.201639  0  4.158346  0  0  0.213144  0  4.168787  0  0  0.070732  0.19323  0  4.151947  0
C  C90  1  0.01447464  0.36578223  0.92544875  1  0  0.11356  0  3.800695  0  0  0.069866  0  4.120981  0  0  0.077775  0  4.125724  0  0  0.071882  0.064523  0  4.117766  0
C  C91  1  0.22339015  0.13395827  0.57454534  1  0  0.114603  0  3.795109  0  0  0.070557  0  4.116252  0  0  0.078456  0  4.121073  0  0  0.072516  0.064849  0  4.113504  0
C  C92  1  0.98552247  0.63421633  0.07455108  1  0  0.113487  0  3.80089  0  0  0.069833  0  4.121133  0  0  0.07774  0  4.125872  0  0  0.071859  0.064486  0  4.117922  0
C  C93  1  0.77660855  0.86604029  0.42545415  1  0  0.114657  0  3.794987  0  0  0.070618  0  4.116145  0  0  0.078516  0  4.120949  0  0  0.072544  0.064912  0  4.113397  0
C  C94  1  0.88119205  0.35458337  0.92643794  1  0  0.130773  0  3.846488  0  0  0.08963  0  4.168334  0  0  0.098131  0  4.176439  0  0  0.077231  0.084083  0  4.162667  0
C  C95  1  0.10030011  0.14520021  0.57346019  1  0  0.131272  0  3.844206  0  0  0.091348  0  4.166053  0  0  0.100011  0  4.173685  0  0  0.077847  0.085739  0  4.16058  0
C  C96  1  0.11880402  0.64541619  0.07356233  1  0  0.130739  0  3.846547  0  0  0.089595  0  4.168378  0  0  0.098101  0  4.176479  0  0  0.07719  0.084046  0  4.162713  0
C  C97  1  0.89969992  0.85479734  0.42654010  1  0  0.131292  0  3.84414  0  0  0.091318  0  4.166024  0  0  0.099818  0  4.174104  0  0  0.077828  0.085707  0  4.160554  0
C  C98  1  0.77932540  0.24055420  0.94547124  1  0  0.11665  0  3.803123  0  0  0.074  0  4.120381  0  0  0.081263  0  4.126161  0  0  0.075986  0.068388  0  4.117585  0
C  C99  1  0.09352268  0.25924240  0.55437970  1  0  0.114833  0  3.806184  0  0  0.070872  0  4.125118  0  0  0.078785  0  4.130236  0  0  0.073967  0.06527  0  4.122321  0
C  C100  1  0.22067116  0.75944436  0.05452804  1  0  0.116702  0  3.803105  0  0  0.074039  0  4.120367  0  0  0.081305  0  4.126143  0  0  0.07601  0.068428  0  4.117569  0
C  C101  1  0.90647815  0.74075515  0.44562042  1  0  0.114904  0  3.806104  0  0  0.070987  0  4.125006  0  0  0.078281  0  4.13075  0  0  0.074016  0.065386  0  4.122211  0
C  C102  1  0.81388918  0.13998328  0.96380058  1  0  0.238128  0  3.850646  0  0  0.204739  0  4.15435  0  0  0.216006  0  4.165516  0  0  0.072023  0.19667  0  4.147502  0
C  C103  1  0.21041376  0.35975057  0.53609309  1  0  0.237003  0  3.852421  0  0  0.20395  0  4.156377  0  0  0.215377  0  4.16708  0  0  0.071026  0.195899  0  4.149469  0
C  C104  1  0.18611038  0.86001729  0.03619984  1  0  0.238104  0  3.850797  0  0  0.204726  0  4.154497  0  0  0.215992  0  4.165664  0  0  0.072032  0.196661  0  4.147645  0
C  C105  1  0.78958469  0.64024799  0.46390711  1  0  0.236873  0  3.852376  0  0  0.203812  0  4.156317  0  0  0.215102  0  4.167442  0  0  0.07098  0.195762  0  4.149412  0
Cl  Cl106  1  0.32798405  0.87456748  0.84967975  1  0  -0.017367  0  1.444035  0  0  -0.012089  0  1.686704  0  0  -0.011899  0  1.678025  0  0  0.024516  -0.012192  0  1.692621  0
Cl  Cl107  1  0.10388455  0.62515188  0.65061133  1  0  -0.017019  0  1.444246  0  0  -0.011847  0  1.687066  0  0  -0.011612  0  1.678357  0  0  0.024852  -0.011972  0  1.69298  0
Cl  Cl108  1  0.67201652  0.12543007  0.15032108  1  0  -0.017344  0  1.44405  0  0  -0.012071  0  1.686718  0  0  -0.011879  0  1.678044  0  0  0.024522  -0.012176  0  1.692634  0
Cl  Cl109  1  0.89611582  0.37484869  0.34938892  1  0  -0.017029  0  1.444239  0  0  -0.011871  0  1.687036  0  0  -0.011656  0  1.678368  0  0  0.024839  -0.011995  0  1.692953  0
Cl  Cl110  1  0.17016621  0.24266670  0.75663204  1  0  -0.011327  0  1.47059  0  0  -0.005965  0  1.724236  0  0  -0.007044  0  1.71625  0  0  0.029586  -0.006431  0  1.730859  0
Cl  Cl111  1  0.67041612  0.25704257  0.74329618  1  0  -0.0112  0  1.471299  0  0  -0.006117  0  1.725168  0  0  -0.007222  0  1.717267  0  0  0.029495  -0.0066  0  1.731787  0
Cl  Cl112  1  0.82983932  0.75733789  0.24336871  1  0  -0.011378  0  1.470577  0  0  -0.006023  0  1.724212  0  0  -0.007123  0  1.716283  0  0  0.029552  -0.006492  0  1.730834  0
Cl  Cl113  1  0.32958180  0.74295700  0.25670305  1  0  -0.011147  0  1.471323  0  0  -0.00607  0  1.72518  0  0  -0.007173  0  1.71728  0  0  0.029512  -0.006554  0  1.7318  0
F  F114  1  0.03140370  0.73394834  0.86148437  1  0  -0.196294  0  1.237629  0  0  -0.144433  0  1.407811  0  0  -0.154916  0  1.400277  0  0  -0.107309  -0.136824  0  1.412906  0
F  F115  1  0.93624835  0.76592269  0.63866248  1  0  -0.196818  0  1.238035  0  0  -0.144649  0  1.408132  0  0  -0.155124  0  1.400604  0  0  -0.107976  -0.137058  0  1.413283  0
F  F116  1  0.96859745  0.26605122  0.13851614  1  0  -0.196305  0  1.237692  0  0  -0.14444  0  1.407879  0  0  -0.154922  0  1.400342  0  0  -0.107325  -0.136832  0  1.412973  0
F  F117  1  0.06375392  0.23407888  0.36133826  1  0  -0.196819  0  1.238029  0  0  -0.144641  0  1.408136  0  0  -0.155117  0  1.400607  0  0  -0.107955  -0.137053  0  1.413283  0
F  F118  1  0.36290685  0.12147898  0.79135938  1  0  -0.174964  0  1.256913  0  0  -0.130111  0  1.4275  0  0  -0.138972  0  1.417732  0  0  -0.093144  -0.123726  0  1.434361  0
F  F119  1  0.94990064  0.37823605  0.70885663  1  0  -0.174911  0  1.256434  0  0  -0.13014  0  1.426799  0  0  -0.138934  0  1.416879  0  0  -0.092564  -0.123721  0  1.433605  0
F  F120  1  0.63709673  0.87852158  0.20864216  1  0  -0.17495  0  1.257002  0  0  -0.130101  0  1.427587  0  0  -0.13896  0  1.417818  0  0  -0.09316  -0.123715  0  1.434446  0
F  F121  1  0.05009703  0.62176352  0.29114330  1  0  -0.174892  0  1.256341  0  0  -0.130129  0  1.426696  0  0  -0.138985  0  1.416898  0  0  -0.092541  -0.123709  0  1.433502  0
F  F122  1  0.89609597  0.06062264  0.78373686  1  0  -0.209697  0  1.255415  0  0  -0.148749  0  1.424517  0  0  -0.159752  0  1.416639  0  0  -0.101767  -0.140845  0  1.430032  0
F  F123  1  0.55149377  0.43928371  0.71608127  1  0  -0.209406  0  1.255069  0  0  -0.149134  0  1.42474  0  0  -0.160133  0  1.416879  0  0  -0.102335  -0.141212  0  1.430232  0
F  F124  1  0.10390313  0.93938095  0.21626370  1  0  -0.209698  0  1.255442  0  0  -0.148753  0  1.424556  0  0  -0.159755  0  1.416678  0  0  -0.101753  -0.14085  0  1.430071  0
F  F125  1  0.44850465  0.56071486  0.28391697  1  0  -0.209418  0  1.255082  0  0  -0.149119  0  1.424733  0  0  -0.160119  0  1.416872  0  0  -0.102311  -0.141198  0  1.430225  0
F  F126  1  0.17735797  0.27922018  0.94400296  1  0  -0.198702  0  1.244817  0  0  -0.141914  0  1.413675  0  0  -0.151751  0  1.404557  0  0  -0.096941  -0.134971  0  1.420161  0
F  F127  1  0.45443315  0.22042647  0.55612643  1  0  -0.198967  0  1.246643  0  0  -0.141509  0  1.415433  0  0  -0.151351  0  1.406329  0  0  -0.096103  -0.134586  0  1.421975  0
F  F128  1  0.82264532  0.72078943  0.05600007  1  0  -0.198665  0  1.244749  0  0  -0.141888  0  1.41363  0  0  -0.151726  0  1.40451  0  0  -0.096959  -0.134947  0  1.420117  0
F  F129  1  0.54556589  0.77957511  0.44387303  1  0  -0.198959  0  1.246666  0  0  -0.141506  0  1.415468  0  0  -0.15135  0  1.406364  0  0  -0.096109  -0.134585  0  1.42201  0
F  F130  1  0.11290199  0.47628192  0.90652198  1  0  -0.148277  0  1.227343  0  0  -0.099398  0  1.389161  0  0  -0.107638  0  1.379414  0  0  -0.085599  -0.093891  0  1.396032  0
F  F131  1  0.23016967  0.02346574  0.59356448  1  0  -0.149969  0  1.226634  0  0  -0.100942  0  1.388691  0  0  -0.109365  0  1.379141  0  0  -0.086932  -0.094997  0  1.395409  0
F  F132  1  0.88709402  0.52371564  0.09347719  1  0  -0.148258  0  1.227343  0  0  -0.099405  0  1.389161  0  0  -0.107643  0  1.379412  0  0  -0.085608  -0.093884  0  1.396018  0
F  F133  1  0.76982798  0.97653282  0.40643588  1  0  -0.149981  0  1.226589  0  0  -0.100956  0  1.388651  0  0  -0.109368  0  1.379062  0  0  -0.086938  -0.09501  0  1.395368  0
F  F134  1  0.85114091  0.45389761  0.90922660  1  0  -0.146226  0  1.26886  0  0  -0.093755  0  1.43607  0  0  -0.104175  0  1.429008  0  0  -0.078297  -0.086747  0  1.441071  0
F  F135  1  0.98800395  0.04595982  0.59063230  1  0  -0.14676  0  1.268388  0  0  -0.094896  0  1.435744  0  0  -0.105313  0  1.428605  0  0  -0.07867  -0.087902  0  1.440858  0
F  F136  1  0.14885728  0.54610094  0.09077430  1  0  -0.146213  0  1.268823  0  0  -0.09373  0  1.436017  0  0  -0.104162  0  1.428964  0  0  -0.078271  -0.086723  0  1.441018  0
F  F137  1  0.01199444  0.95403673  0.40936680  1  0  -0.146784  0  1.268329  0  0  -0.094888  0  1.435684  0  0  -0.105343  0  1.42868  0  0  -0.078658  -0.087893  0  1.440798  0
F  F138  1  0.65021897  0.23003190  0.94616913  1  0  -0.144572  0  1.242456  0  0  -0.095692  0  1.404654  0  0  -0.103135  0  1.394794  0  0  -0.085263  -0.090468  0  1.411805  0
F  F139  1  0.97429045  0.26987319  0.55366110  1  0  -0.143075  0  1.244692  0  0  -0.093984  0  1.407299  0  0  -0.102908  0  1.398578  0  0  -0.084206  -0.08876  0  1.414467  0
F  F140  1  0.34977951  0.76996665  0.05383302  1  0  -0.144581  0  1.242408  0  0  -0.09572  0  1.404633  0  0  -0.103162  0  1.394772  0  0  -0.085277  -0.090497  0  1.411785  0
F  F141  1  0.02570865  0.73012035  0.44633715  1  0  -0.143082  0  1.244652  0  0  -0.094004  0  1.407249  0  0  -0.101436  0  1.397408  0  0  -0.084216  -0.08878  0  1.414416  0
F  F142  1  0.71244699  0.03045181  0.98275270  1  0  -0.185588  0  1.241978  0  0  -0.1337  0  1.410491  0  0  -0.143338  0  1.401399  0  0  -0.097343  -0.126807  0  1.416695  0
F  F143  1  0.19966867  0.46934444  0.51713979  1  0  -0.185495  0  1.242449  0  0  -0.133038  0  1.410403  0  0  -0.142594  0  1.401132  0  0  -0.096611  -0.12613  0  1.416607  0
F  F144  1  0.28755582  0.96954874  0.01725096  1  0  -0.185577  0  1.24206  0  0  -0.133684  0  1.410559  0  0  -0.143321  0  1.401467  0  0  -0.097328  -0.126791  0  1.416763  0
F  F145  1  0.80032598  0.53065211  0.48285943  1  0  -0.185471  0  1.242507  0  0  -0.133012  0  1.410463  0  0  -0.142649  0  1.401342  0  0  -0.096601  -0.126103  0  1.416666  0
