# generated using pymatgen
data_Zn4C24S4N4O21F4
_symmetry_space_group_name_H-M   'P 1'
_cell_length_a   19.59725228
_cell_length_b   19.55924722
_cell_length_c   33.27211166
_cell_angle_alpha   79.07319459
_cell_angle_beta   78.96635423
_cell_angle_gamma   63.85398072
_symmetry_Int_Tables_number   1
_chemical_formula_structural   Zn4C24S4N4O21F4
_chemical_formula_sum   'Zn16 C96 S16 N16 O84 F16'
_cell_volume   11156.40183415
_cell_formula_units_Z   4
loop_
 _symmetry_equiv_pos_site_id
 _symmetry_equiv_pos_as_xyz
  1  'x, y, z'
loop_
 _atom_site_type_symbol
 _atom_site_label
 _atom_site_symmetry_multiplicity
 _atom_site_fract_x
 _atom_site_fract_y
 _atom_site_fract_z
 _atom_site_occupancy
 _atom_site_pbe_bader_charge
 _atom_site_pbe_bader_spin_density
 _atom_site_pbe_cm5_charge
 _atom_site_pbe_ddec_charge
 _atom_site_pbe_ddec_spin_density
 _atom_site_pbe_ddec_sum_bond_order
 _atom_site_pbe_magmom
Zn  Zn0  1  0.05746589  0.40128574  0.47654688  1  1.317713  0  0.67822  0.975874  0  2.324981  0
Zn  Zn1  1  0.98377720  0.48489278  0.55984738  1  1.34282  0  0.6956  0.999291  0  2.316596  0
Zn  Zn2  1  0.06104956  0.56066740  0.48207012  1  1.321075  0  0.686772  0.987047  0  2.32316  0
Zn  Zn3  1  0.90050900  0.55262879  0.47873492  1  1.324865  0  0.686314  0.985354  0  2.328216  0
Zn  Zn4  1  0.69571423  0.35027238  0.27023260  1  1.317834  0  0.67794  0.975479  0  2.327927  0
Zn  Zn5  1  0.69328444  0.18639174  0.26498526  1  1.329436  0  0.686863  0.987306  0  2.322197  0
Zn  Zn6  1  0.76786246  0.26767814  0.18880139  1  1.313533  0  0.685879  0.984421  0  2.323624  0
Zn  Zn7  1  0.84885781  0.19495337  0.27225627  1  1.333387  0  0.694951  0.997544  0  2.318009  0
Zn  Zn8  1  0.26585597  0.76675324  0.68862760  1  1.318622  0  0.694515  0.995637  0  2.317412  0
Zn  Zn9  1  0.34958117  0.69418531  0.77110313  1  1.325055  0  0.68643  0.98597  0  2.329371  0
Zn  Zn10  1  0.19595411  0.84997487  0.77022269  1  1.319726  0  0.678766  0.977927  0  2.326683  0
Zn  Zn11  1  0.19288441  0.68625366  0.76493936  1  1.323981  0  0.686363  0.985392  0  2.32242  0
Zn  Zn12  1  0.56129796  0.06055864  0.98222305  1  1.320968  0  0.685934  0.985045  0  2.324165  0
Zn  Zn13  1  0.40111372  0.05343222  0.97765047  1  1.333385  0  0.695179  0.997929  0  2.316135  0
Zn  Zn14  1  0.55737013  0.90150448  0.97677637  1  1.318942  0  0.678316  0.976739  0  2.325651  0
Zn  Zn15  1  0.48176482  0.98796820  0.05982808  1  1.33532  0  0.686565  0.986059  0  2.326637  0
C  C16  1  0.06401386  0.31905353  0.55944945  1  1.603303  0  0.224578  0.621796  0  4.201866  0
C  C17  1  0.06817585  0.57094461  0.56670661  1  1.606856  0  0.233724  0.641859  0  4.144791  0
C  C18  1  0.18369075  0.43976290  0.43744033  1  1.620245  0  0.225378  0.622155  0  4.203874  0
C  C19  1  0.93810397  0.68077994  0.43897595  1  1.611005  0  0.225325  0.62283  0  4.199587  0
C  C20  1  0.93235295  0.42881301  0.43174459  1  1.597105  0  0.233543  0.646805  0  4.140259  0
C  C21  1  0.81837957  0.55859116  0.56078147  1  1.62489  0  0.22552  0.618992  0  4.205946  0
C  C22  1  0.56992875  0.30923839  0.30869242  1  1.629283  0  0.22482  0.62314  0  4.201032  0
C  C23  1  0.68468436  0.18171451  0.17949551  1  1.619625  0  0.233222  0.642002  0  4.143749  0
C  C24  1  0.69054876  0.43407123  0.18832273  1  1.630084  0  0.225041  0.62  0  4.205336  0
C  C25  1  0.93244290  0.19083286  0.18964817  1  1.612637  0  0.226065  0.624003  0  4.199953  0
C  C26  1  0.81676279  0.31860693  0.31897523  1  1.619665  0  0.233174  0.643115  0  4.145438  0
C  C27  1  0.81216366  0.06639689  0.30968976  1  1.601663  0  0.22553  0.617642  0  4.204442  0
C  C28  1  0.43145645  0.68820913  0.68860500  1  1.623668  0  0.225472  0.622362  0  4.204138  0
C  C29  1  0.31869394  0.81752588  0.81839273  1  1.598765  0  0.233921  0.644305  0  4.146083  0
C  C30  1  0.19180020  0.93274820  0.68806813  1  1.618715  0  0.224987  0.619655  0  4.204281  0
C  C31  1  0.06962926  0.80953519  0.80846440  1  1.599612  0  0.225042  0.622851  0  4.201297  0
C  C32  1  0.18180134  0.68171223  0.68009632  1  1.612294  0  0.233899  0.644187  0  4.142729  0
C  C33  1  0.31141797  0.56662362  0.80996480  1  1.629652  0  0.225329  0.6191  0  4.207777  0
C  C34  1  0.43944030  0.18052934  0.93843253  1  1.617029  0  0.226238  0.625784  0  4.198837  0
C  C35  1  0.43226926  0.92857078  0.93200211  1  1.60773  0  0.233932  0.644721  0  4.139286  0
C  C36  1  0.68388222  0.93925947  0.93773498  1  1.638189  0  0.225488  0.622474  0  4.20344  0
C  C37  1  0.56162311  0.82121343  0.06034961  1  1.616494  0  0.226  0.624288  0  4.200289  0
C  C38  1  0.56868872  0.07184708  0.06674750  1  1.613475  0  0.232586  0.642435  0  4.144135  0
C  C39  1  0.31785045  0.06252522  0.06032407  1  1.611616  0  0.225731  0.61838  0  4.202658  0
C  C40  1  0.90296440  0.40067370  0.40289626  1  0.066088  0  -0.021008  -0.209628  0  3.967429  0
C  C41  1  0.84613770  0.34672124  0.34782627  1  0.074319  0  -0.020963  -0.208819  0  3.968131  0
C  C42  1  0.83085469  0.44485314  0.38904785  1  0.55669  0  0.10232  0.17055  0  4.063125  0
C  C43  1  0.91839800  0.30262400  0.36153385  1  0.592261  0  0.103803  0.170911  0  4.064338  0
C  C44  1  0.80319975  0.41849026  0.36244202  1  0.576742  0  0.101606  0.170449  0  4.066184  0
C  C45  1  0.94583108  0.32880424  0.38837227  1  0.587528  0  0.102095  0.170853  0  4.064414  0
C  C46  1  0.09716637  0.59935264  0.59560593  1  0.097001  0  -0.020597  -0.207707  0  3.964728  0
C  C47  1  0.15252662  0.65376900  0.65115109  1  0.021228  0  -0.020893  -0.210076  0  3.970331  0
C  C48  1  0.14038754  0.64243880  0.58113216  1  0.5076  0  0.102757  0.169107  0  4.066071  0
C  C49  1  0.10912930  0.61088146  0.66562163  1  0.58257  0  0.102666  0.170663  0  4.067128  0
C  C50  1  0.16743208  0.66874206  0.60811212  1  0.646152  0  0.103755  0.171511  0  4.067311  0
C  C51  1  0.08243276  0.58421430  0.63867113  1  0.609778  0  0.102789  0.16954  0  4.065635  0
C  C52  1  0.30897222  0.45267703  0.40087851  1  0.355222  0  0.079815  0.032692  0  3.931914  0
C  C53  1  0.44972324  0.29188799  0.35005524  1  0.331045  0  0.079858  0.034679  0  3.932589  0
C  C54  1  0.26163838  0.41460945  0.41436436  1  -0.121004  0  -0.002051  -0.146939  0  3.882409  0
C  C55  1  0.49621096  0.33070840  0.33596965  1  -0.123569  0  -0.004321  -0.151073  0  3.887934  0
C  C56  1  0.37972249  0.33753027  0.37214511  1  -0.151583  0  -0.013303  -0.065403  0  4.082295  0
C  C57  1  0.37593272  0.40943175  0.37585739  1  -0.137068  0  -0.012805  -0.062544  0  4.083659  0
C  C58  1  0.72552538  0.57770136  0.62978871  1  0.333995  0  0.081182  0.03558  0  3.926772  0
C  C59  1  0.52421324  0.67728847  0.61991244  1  0.336942  0  0.079965  0.033747  0  3.931471  0
C  C60  1  0.74371803  0.58630878  0.58711848  1  -0.071465  0  -0.002458  -0.14838  0  3.884868  0
C  C61  1  0.50630419  0.66744988  0.66253797  1  -0.142267  0  -0.004508  -0.151093  0  3.890924  0
C  C62  1  0.60404785  0.64146957  0.60765520  1  -0.096589  0  -0.013401  -0.064512  0  4.078303  0
C  C63  1  0.64547991  0.60770117  0.64164544  1  -0.17548  0  -0.012751  -0.064507  0  4.08546  0
C  C64  1  0.07404052  0.22679051  0.62820008  1  0.346268  0  0.079531  0.032467  0  3.931551  0
C  C65  1  0.17319975  0.02484553  0.61884110  1  0.355843  0  0.081565  0.036255  0  3.925618  0
C  C66  1  0.08434016  0.24422904  0.58555797  1  -0.114514  0  -0.003811  -0.149613  0  3.890327  0
C  C67  1  0.16428526  0.00723664  0.66154074  1  -0.145526  0  -0.003168  -0.148243  0  3.883476  0
C  C68  1  0.14348661  0.10491247  0.60675327  1  -0.098001  0  -0.013738  -0.06544  0  4.08802  0
C  C69  1  0.10957460  0.14693812  0.64059672  1  -0.157706  0  -0.012667  -0.061637  0  4.080871  0
C  C70  1  0.84066024  0.80235050  0.39902055  1  0.28721  0  0.080108  0.034914  0  3.932326  0
C  C71  1  0.90546107  0.94919051  0.35423470  1  0.322383  0  0.081258  0.034934  0  3.924712  0
C  C72  1  0.90936970  0.75830562  0.41549886  1  -0.049756  0  -0.004495  -0.152466  0  3.890307  0
C  C73  1  0.83734817  0.99278895  0.33704629  1  -0.102212  0  -0.002327  -0.147311  0  3.883546  0
C  C74  1  0.90815521  0.87816433  0.37519976  1  -0.123358  0  -0.013285  -0.06478  0  4.084323  0
C  C75  1  0.84033689  0.87044260  0.37500143  1  -0.146327  0  -0.013495  -0.065302  0  4.078794  0
C  C76  1  0.65499858  0.15392916  0.15063429  1  0.042341  0  -0.02031  -0.207384  0  3.966497  0
C  C77  1  0.59833902  0.09995271  0.09547408  1  0.127111  0  -0.020944  -0.209259  0  3.96735  0
C  C78  1  0.66950122  0.16876520  0.10756292  1  0.610829  0  0.103162  0.170106  0  4.064568  0
C  C79  1  0.58400324  0.08494529  0.13855455  1  0.549463  0  0.10223  0.170516  0  4.064333  0
C  C80  1  0.64180884  0.14271384  0.08078393  1  0.571754  0  0.103868  0.171664  0  4.06387  0
C  C81  1  0.61128512  0.11139132  0.16531448  1  0.566162  0  0.101137  0.168826  0  4.064431  0
C  C82  1  0.67121623  0.52685841  0.11934631  1  0.334327  0  0.079962  0.033661  0  3.930784  0
C  C83  1  0.57149145  0.72859724  0.12918152  1  0.343926  0  0.080407  0.034656  0  3.929842  0
C  C84  1  0.66228298  0.50880867  0.16201090  1  -0.111391  0  -0.002718  -0.147036  0  3.882946  0
C  C85  1  0.58190281  0.74639354  0.08656703  1  -0.088679  0  -0.003897  -0.150461  0  3.887597  0
C  C86  1  0.60713061  0.64865169  0.14141600  1  -0.153746  0  -0.013122  -0.063492  0  4.079887  0
C  C87  1  0.64129277  0.60698330  0.10744381  1  -0.151418  0  -0.01351  -0.064168  0  4.086214  0
C  C88  1  0.08185476  0.12092967  0.17779769  1  0.345897  0  0.080926  0.03612  0  3.929852  0
C  C89  1  0.16801881  0.12381683  0.07215076  1  0.333296  0  0.080878  0.034847  0  3.926606  0
C  C90  1  0.00907321  0.16095328  0.16536322  1  -0.109378  0  -0.005124  -0.153998  0  3.893116  0
C  C91  1  0.24103093  0.08498266  0.08446791  1  -0.1399  0  -0.002522  -0.148202  0  3.882799  0
C  C92  1  0.11012000  0.14000506  0.10622807  1  -0.167644  0  -0.013642  -0.065222  0  4.088186  0
C  C93  1  0.14022749  0.11031040  0.14399879  1  -0.166159  0  -0.013386  -0.064772  0  4.07894  0
C  C94  1  0.34744385  0.84563286  0.84763303  1  0.127957  0  -0.020572  -0.208909  0  3.962077  0
C  C95  1  0.40301664  0.89991541  0.90332007  1  0.043825  0  -0.020792  -0.207932  0  3.964117  0
C  C96  1  0.30440684  0.91770394  0.86199504  1  0.53723  0  0.102175  0.170028  0  4.061901  0
C  C97  1  0.44581738  0.82768015  0.88919863  1  0.563492  0  0.100967  0.169065  0  4.065894  0
C  C98  1  0.33141642  0.94423637  0.88888597  1  0.574269  0  0.103676  0.170639  0  4.063739  0
C  C99  1  0.41909417  0.80138410  0.86206101  1  0.589132  0  0.102605  0.170164  0  4.065765  0
C  C100  1  0.40478354  0.45005152  0.85471794  1  0.365084  0  0.079464  0.032287  0  3.931149  0
C  C101  1  0.34118227  0.30233139  0.89927651  1  0.379764  0  0.080559  0.034482  0  3.932852  0
C  C102  1  0.33646536  0.49346304  0.83769134  1  -0.154396  0  -0.002211  -0.147514  0  3.885084  0
C  C103  1  0.41021374  0.25835368  0.91541443  1  -0.186131  0  -0.004533  -0.153005  0  3.893103  0
C  C104  1  0.34023551  0.37084551  0.87554539  1  -0.124577  0  -0.012601  -0.064378  0  4.079738  0
C  C105  1  0.40793890  0.37885981  0.87562078  1  -0.1177  0  -0.013227  -0.064402  0  4.087378  0
C  C106  1  0.94960218  0.79188520  0.84996986  1  0.320446  0  0.080043  0.034905  0  3.930467  0
C  C107  1  0.80887398  0.95246355  0.90096293  1  0.367579  0  0.080334  0.034375  0  3.930888  0
C  C108  1  0.99592265  0.83088365  0.83577801  1  -0.092296  0  -0.003387  -0.150029  0  3.884843  0
C  C109  1  0.76171835  0.91420142  0.91455173  1  -0.124221  0  -0.003169  -0.14939  0  3.883775  0
C  C110  1  0.87573535  0.90939913  0.87582057  1  -0.140896  0  -0.013179  -0.063602  0  4.08486  0
C  C111  1  0.87966277  0.83742770  0.87215405  1  -0.14876  0  -0.01377  -0.064982  0  4.082843  0
S  S112  1  0.30021879  0.32500397  0.39725563  1  0.393927  0  0.151295  0.230691  0  2.792361  0
S  S113  1  0.45516709  0.42234978  0.35073223  1  0.40262  0  0.149138  0.22822  0  2.803795  0
S  S114  1  0.66271626  0.63299876  0.56164791  1  0.39602  0  0.155233  0.236536  0  2.786535  0
S  S115  1  0.58724497  0.61624421  0.68774202  1  0.398633  0  0.150301  0.230464  0  2.803491  0
S  S116  1  0.13554889  0.16273200  0.56056591  1  0.390142  0  0.149314  0.228305  0  2.805788  0
S  S117  1  0.11774619  0.08887174  0.68673815  1  0.382664  0  0.149236  0.227186  0  2.793759  0
S  S118  1  0.97286724  0.80115514  0.40254162  1  0.40407  0  0.151843  0.232873  0  2.802334  0
S  S119  1  0.77582416  0.94766753  0.34758997  1  0.407255  0  0.154631  0.235906  0  2.785851  0
S  S120  1  0.61535353  0.59012431  0.18741591  1  0.388341  0  0.151057  0.229589  0  2.791401  0
S  S121  1  0.63340706  0.66516657  0.06138522  1  0.398091  0  0.149437  0.228896  0  2.80541  0
S  S122  1  0.01194168  0.18377737  0.11222420  1  0.426793  0  0.150604  0.231432  0  2.806121  0
S  S123  1  0.23850790  0.06654113  0.13774289  1  0.457532  0  0.155698  0.236759  0  2.78599  0
S  S124  1  0.27528692  0.44800098  0.84834486  1  0.404214  0  0.157589  0.239655  0  2.78591  0
S  S125  1  0.47321094  0.30178415  0.90258309  1  0.395865  0  0.150761  0.231494  0  2.801205  0
S  S126  1  0.95480838  0.92248455  0.85056952  1  0.406383  0  0.150537  0.229976  0  2.803545  0
S  S127  1  0.80038707  0.82461969  0.89739559  1  0.391743  0  0.150835  0.229975  0  2.79475  0
N  N128  1  0.29928150  0.52551530  0.41165781  1  0.368263  0  0.059043  0.524577  0  4.220572  0
N  N129  1  0.46750904  0.21242336  0.34670034  1  0.363716  0  0.060468  0.527923  0  4.220178  0
N  N130  1  0.77707632  0.54852076  0.66145636  1  0.364815  0  0.062159  0.526242  0  4.216906  0
N  N131  1  0.47220710  0.72274875  0.58924015  1  0.381149  0  0.061716  0.526972  0  4.224065  0
N  N132  1  0.02826416  0.27904260  0.65885379  1  0.374601  0  0.061626  0.526824  0  4.218936  0
N  N133  1  0.20254358  0.97275152  0.58730900  1  0.385436  0  0.061677  0.526502  0  4.215238  0
N  N134  1  0.77203133  0.78814500  0.40617966  1  0.375513  0  0.060445  0.526302  0  4.225841  0
N  N135  1  0.96755763  0.97049533  0.35543078  1  0.400104  0  0.061531  0.526002  0  4.216613  0
N  N136  1  0.70141853  0.47478751  0.08781637  1  0.386861  0  0.05942  0.524554  0  4.222549  0
N  N137  1  0.52602188  0.78063152  0.15995309  1  0.361878  0  0.061483  0.528567  0  4.218214  0
N  N138  1  0.10160861  0.08663642  0.21923399  1  0.368509  0  0.059755  0.524732  0  4.226277  0
N  N139  1  0.14639599  0.14278188  0.03051879  1  0.389252  0  0.061882  0.525908  0  4.218103  0
N  N140  1  0.46675467  0.47159747  0.85555286  1  0.360078  0  0.060208  0.525861  0  4.221301  0
N  N141  1  0.27271701  0.28775868  0.90657367  1  0.383711  0  0.061414  0.527113  0  4.221103  0
N  N142  1  0.96737046  0.71234867  0.84676536  1  0.360593  0  0.060258  0.526391  0  4.22205  0
N  N143  1  0.79914471  0.02528186  0.91178319  1  0.370975  0  0.060635  0.527122  0  4.21791  0
O  O144  1  0.00096854  0.49962052  0.49912313  1  -1.238012  0  -0.575962  -1.053044  0  2.532787  0
O  O145  1  0.06469286  0.31665662  0.52117045  1  -1.155585  0  -0.310389  -0.533989  0  2.297224  0
O  O146  1  0.01127462  0.55483034  0.58123049  1  -1.147855  0  -0.306637  -0.534367  0  2.330721  0
O  O147  1  0.14381311  0.51106481  0.43880180  1  -1.149345  0  -0.305976  -0.528268  0  2.345256  0
O  O148  1  0.05045728  0.37713880  0.57661884  1  -1.150673  0  -0.307059  -0.528589  0  2.341327  0
O  O149  1  0.16322265  0.38553307  0.45291315  1  -1.15126  0  -0.310649  -0.533877  0  2.296249  0
O  O150  1  0.10274960  0.56537957  0.53011411  1  -1.145755  0  -0.305755  -0.532319  0  2.326645  0
O  O151  1  0.99609314  0.66397393  0.45747001  1  -1.158733  0  -0.309753  -0.532947  0  2.302108  0
O  O152  1  0.88240194  0.48031710  0.45321876  1  -1.158343  0  -0.309742  -0.538611  0  2.328031  0
O  O153  1  0.90533543  0.63802235  0.43774051  1  -1.155327  0  -0.306469  -0.527547  0  2.340531  0
O  O154  1  0.00455251  0.39888114  0.43237011  1  -1.133399  0  -0.309041  -0.537576  0  2.320143  0
O  O155  1  0.87559110  0.50501835  0.57648050  1  -1.152557  0  -0.302684  -0.52374  0  2.351264  0
O  O156  1  0.81689673  0.59095922  0.52348196  1  -1.155009  0  -0.30721  -0.52834  0  2.30319  0
O  O157  1  0.75047730  0.25035317  0.24928406  1  -1.226044  0  -0.57586  -1.052753  0  2.532192  0
O  O158  1  0.60586749  0.35012666  0.30909364  1  -1.159243  0  -0.310901  -0.534554  0  2.301395  0
O  O159  1  0.69105076  0.14590777  0.21575768  1  -1.156914  0  -0.309765  -0.538797  0  2.327386  0
O  O160  1  0.74496817  0.37725910  0.17259739  1  -1.156937  0  -0.306178  -0.52731  0  2.344525  0
O  O161  1  0.58924426  0.25538391  0.28695507  1  -1.143309  0  -0.306304  -0.527673  0  2.341282  0
O  O162  1  0.65791700  0.43512845  0.22557023  1  -1.157096  0  -0.310241  -0.532708  0  2.295583  0
O  O163  1  0.70107304  0.23860503  0.16534490  1  -1.142687  0  -0.304593  -0.529482  0  2.323094  0
O  O164  1  0.87649583  0.20842480  0.16933972  1  -1.155774  0  -0.309923  -0.532525  0  2.299436  0
O  O165  1  0.84602227  0.24640240  0.31806695  1  -1.153413  0  -0.305121  -0.531656  0  2.328729  0
O  O166  1  0.92867915  0.19853690  0.22715006  1  -1.15371  0  -0.306864  -0.529442  0  2.340045  0
O  O167  1  0.76519150  0.36920146  0.29782546  1  -1.156137  0  -0.309478  -0.537546  0  2.323019  0
O  O168  1  0.74022362  0.09962716  0.30673696  1  -1.150636  0  -0.306822  -0.527666  0  2.300249  0
O  O169  1  0.86287521  0.08871829  0.29090669  1  -1.14635  0  -0.302635  -0.522939  0  2.349877  0
O  O170  1  0.25041061  0.74997591  0.74940293  1  -1.219502  0  -0.575382  -1.052126  0  2.530841  0
O  O171  1  0.37364435  0.70076896  0.67162817  1  -1.155652  0  -0.306187  -0.528003  0  2.342917  0
O  O172  1  0.34992149  0.74561210  0.81628082  1  -1.138082  0  -0.306042  -0.532398  0  2.332829  0
O  O173  1  0.15942339  0.93461060  0.72539223  1  -1.155021  0  -0.311334  -0.535137  0  2.297954  0
O  O174  1  0.43353951  0.68892116  0.72675783  1  -1.152483  0  -0.309701  -0.532378  0  2.299862  0
O  O175  1  0.24536490  0.87530475  0.67242352  1  -1.148511  0  -0.302298  -0.521958  0  2.349266  0
O  O176  1  0.26559378  0.86796762  0.79814548  1  -1.149488  0  -0.310269  -0.538898  0  2.329504  0
O  O177  1  0.10554950  0.85042685  0.80888981  1  -1.156367  0  -0.310663  -0.534458  0  2.29865  0
O  O178  1  0.18904946  0.64543745  0.71623869  1  -1.149242  0  -0.309253  -0.538341  0  2.324855  0
O  O179  1  0.08888801  0.75573988  0.78672201  1  -1.143434  0  -0.306018  -0.526721  0  2.343216  0
O  O180  1  0.19709123  0.73933792  0.66614436  1  -1.142972  0  -0.30501  -0.531198  0  2.32637  0
O  O181  1  0.36241763  0.58815632  0.79073706  1  -1.153097  0  -0.307023  -0.529283  0  2.347891  0
O  O182  1  0.23948490  0.60007488  0.80711675  1  -1.151463  0  -0.305943  -0.525514  0  2.299948  0
O  O183  1  0.50083363  0.99983042  0.99931940  1  -1.236544  0  -0.575678  -1.052752  0  2.531684  0
O  O184  1  0.49670417  0.16389189  0.95748744  1  -1.148896  0  -0.309733  -0.533739  0  2.302534  0
O  O185  1  0.38233996  0.98074450  0.95311134  1  -1.148932  0  -0.305543  -0.532416  0  2.326626  0
O  O186  1  0.66333953  0.88509926  0.95328443  1  -1.15584  0  -0.31096  -0.53427  0  2.295325  0
O  O187  1  0.40767868  0.13731070  0.93628319  1  -1.158062  0  -0.307036  -0.529739  0  2.337031  0
O  O188  1  0.64403592  0.01058164  0.93910164  1  -1.165485  0  -0.306663  -0.528391  0  2.346888  0
O  O189  1  0.50446427  0.89847507  0.93278997  1  -1.135688  0  -0.309359  -0.538726  0  2.322003  0
O  O190  1  0.56369652  0.81803808  0.02202315  1  -1.150229  0  -0.311121  -0.535081  0  2.300919  0
O  O191  1  0.51136004  0.05652400  0.08141153  1  -1.148429  0  -0.309506  -0.538317  0  2.328295  0
O  O192  1  0.54675479  0.87969000  0.07747839  1  -1.155941  0  -0.306779  -0.527692  0  2.340762  0
O  O193  1  0.60316842  0.06569653  0.03016314  1  -1.150987  0  -0.304611  -0.530325  0  2.324632  0
O  O194  1  0.32265212  0.09521656  0.02378839  1  -1.151957  0  -0.303018  -0.52364  0  2.350672  0
O  O195  1  0.37322545  0.01284305  0.07975923  1  -1.152814  0  -0.307266  -0.527644  0  2.299794  0
O  O196  1  0.33454347  0.55843067  0.38652646  1  -0.441477  0  -0.136847  -0.331299  0  1.861779  0
O  O197  1  0.26117954  0.54792602  0.44441627  1  -0.412697  0  -0.115825  -0.296646  0  1.894069  0
O  O198  1  0.41067831  0.19883123  0.34777235  1  -0.44591  0  -0.135987  -0.329809  0  1.855695  0
O  O199  1  0.53476838  0.16455741  0.34492383  1  -0.405735  0  -0.120568  -0.30443  0  1.891518  0
O  O200  1  0.75027582  0.52553966  0.69565136  1  -0.44791  0  -0.136185  -0.330828  0  1.865099  0
O  O201  1  0.83979301  0.55153925  0.65361086  1  -0.399384  0  -0.113816  -0.293938  0  1.898197  0
O  O202  1  0.49492320  0.70241695  0.55396826  1  -0.448263  0  -0.135788  -0.329167  0  1.85636  0
O  O203  1  0.41290990  0.77846735  0.59916691  1  -0.418307  0  -0.118128  -0.299443  0  1.895985  0
O  O204  1  0.04814224  0.25636443  0.69417968  1  -0.439413  0  -0.136589  -0.330001  0  1.85645  0
O  O205  1  0.97271312  0.33835134  0.64891319  1  -0.403611  0  -0.116321  -0.297097  0  1.895098  0
O  O206  1  0.22604690  0.99905243  0.55311008  1  -0.445209  0  -0.135926  -0.33043  0  1.862542  0
O  O207  1  0.19912264  0.91014212  0.59527201  1  -0.407872  0  -0.112202  -0.292998  0  1.899122  0
O  O208  1  0.73008546  0.81728055  0.37807779  1  -0.441272  0  -0.136511  -0.329671  0  1.858199  0
O  O209  1  0.75832032  0.75246871  0.43910332  1  -0.423829  0  -0.12129  -0.304551  0  1.890708  0
O  O210  1  0.03040323  0.91518655  0.36087060  1  -0.445748  0  -0.134899  -0.328876  0  1.864559  0
O  O211  1  0.95415628  0.03877364  0.35312494  1  -0.424255  0  -0.114003  -0.294954  0  1.897306  0
O  O212  1  0.72551098  0.50098581  0.05375891  1  -0.453803  0  -0.13716  -0.331491  0  1.863752  0
O  O213  1  0.69851240  0.41188405  0.09564895  1  -0.410729  0  -0.116474  -0.297866  0  1.895313  0
O  O214  1  0.54626383  0.75788493  0.19519581  1  -0.439484  0  -0.13702  -0.331037  0  1.856265  0
O  O215  1  0.47034445  0.84001477  0.15017896  1  -0.408544  0  -0.120335  -0.303759  0  1.890001  0
O  O216  1  0.16556387  0.07851485  0.22559234  1  -0.444659  0  -0.134432  -0.327817  0  1.857448  0
O  O217  1  0.05716694  0.06543000  0.24392219  1  -0.407473  0  -0.11752  -0.298599  0  1.895092  0
O  O218  1  0.08176829  0.19626154  0.02676463  1  -0.443157  0  -0.134785  -0.328982  0  1.866732  0
O  O219  1  0.18954801  0.10421580  0.00312670  1  -0.407864  0  -0.114614  -0.295009  0  1.897471  0
O  O220  1  0.52989569  0.41650846  0.86071650  1  -0.439209  0  -0.137386  -0.3319  0  1.865041  0
O  O221  1  0.45326102  0.53998163  0.85308991  1  -0.407297  0  -0.119267  -0.300875  0  1.894248  0
O  O222  1  0.23021458  0.31753398  0.87874173  1  -0.43799  0  -0.134464  -0.327783  0  1.854977  0
O  O223  1  0.25975829  0.25128751  0.93933767  1  -0.420514  0  -0.117296  -0.298567  0  1.893593  0
O  O224  1  0.91043583  0.69858794  0.84846638  1  -0.444342  0  -0.13589  -0.329453  0  1.858283  0
O  O225  1  0.03466937  0.66457897  0.84454872  1  -0.4032  0  -0.119684  -0.302982  0  1.893192  0
O  O226  1  0.83402401  0.05846735  0.88656725  1  -0.443664  0  -0.137374  -0.331973  0  1.859741  0
O  O227  1  0.76141190  0.04741939  0.94467614  1  -0.4154  0  -0.118028  -0.300026  0  1.894102  0
F  F228  1  0.78576624  0.51512169  0.40024950  1  -0.602763  0  -0.079261  -0.090525  0  1.386967  0
F  F229  1  0.96488764  0.23398012  0.34881199  1  -0.599577  0  -0.073234  -0.082408  0  1.39108  0
F  F230  1  0.73274748  0.46454031  0.35196039  1  -0.605097  0  -0.081034  -0.09365  0  1.386928  0
F  F231  1  0.01486492  0.28138592  0.40025068  1  -0.605188  0  -0.079633  -0.09199  0  1.386143  0
F  F232  1  0.15647715  0.66134350  0.54062907  1  -0.604164  0  -0.07558  -0.085668  0  1.39042  0
F  F233  1  0.09023888  0.59479810  0.70616789  1  -0.60883  0  -0.079007  -0.090384  0  1.38683  0
F  F234  1  0.20962752  0.70779101  0.59106746  1  -0.605725  0  -0.074299  -0.083549  0  1.391937  0
F  F235  1  0.04315410  0.54224036  0.65579744  1  -0.604034  0  -0.075157  -0.084328  0  1.391512  0
F  F236  1  0.71188947  0.20753468  0.09025976  1  -0.608513  0  -0.075715  -0.085883  0  1.38971  0
F  F237  1  0.54454173  0.04317797  0.15594138  1  -0.611067  0  -0.078807  -0.090273  0  1.386021  0
F  F238  1  0.65753216  0.16152303  0.04023783  1  -0.608909  0  -0.075987  -0.086217  0  1.390462  0
F  F239  1  0.59257880  0.09538095  0.20589637  1  -0.61035  0  -0.0792  -0.090387  0  1.387  0
F  F240  1  0.23452033  0.96416961  0.85091880  1  -0.604495  0  -0.080245  -0.091937  0  1.388384  0
F  F241  1  0.51425927  0.77996245  0.90177373  1  -0.605204  0  -0.080944  -0.093355  0  1.386419  0
F  F242  1  0.28645062  0.01474121  0.89965719  1  -0.599006  0  -0.074364  -0.083385  0  1.391788  0
F  F243  1  0.46574630  0.73228447  0.84987738  1  -0.600674  0  -0.075698  -0.085425  0  1.393748  0
