# generated using pymatgen
data_CuH14(C2O)4
_symmetry_space_group_name_H-M   'P 1'
_cell_length_a   5.22073496
_cell_length_b   8.70078227
_cell_length_c   11.10900032
_cell_angle_alpha   93.13270903
_cell_angle_beta   95.73946827
_cell_angle_gamma   101.45124822
_symmetry_Int_Tables_number   1
_chemical_formula_structural   CuH14(C2O)4
_chemical_formula_sum   'Cu2 H28 C16 O8'
_cell_volume   490.65795739
_cell_formula_units_Z   2
loop_
 _symmetry_equiv_pos_site_id
 _symmetry_equiv_pos_as_xyz
  1  'x, y, z'
loop_
 _atom_site_type_symbol
 _atom_site_label
 _atom_site_symmetry_multiplicity
 _atom_site_fract_x
 _atom_site_fract_y
 _atom_site_fract_z
 _atom_site_occupancy
 _atom_site_hle17_ddec_charge
 _atom_site_hle17_ddec_spin_density
 _atom_site_hle17_ddec_sum_bond_order
 _atom_site_hle17_magmom
 _atom_site_hse06_10hf_ddec_charge
 _atom_site_hse06_10hf_ddec_spin_density
 _atom_site_hse06_10hf_ddec_sum_bond_order
 _atom_site_hse06_10hf_magmom
 _atom_site_hse06_ddec_charge
 _atom_site_hse06_ddec_spin_density
 _atom_site_hse06_ddec_sum_bond_order
 _atom_site_hse06_magmom
 _atom_site_pbe_cm5_charge
 _atom_site_pbe_ddec_charge
 _atom_site_pbe_ddec_spin_density
 _atom_site_pbe_ddec_sum_bond_order
 _atom_site_pbe_magmom
Cu  Cu0  1  0.29153924  0.52719037  0.44509941  1  0.892439  0.650867  1.81776  0.466  0.889872  0.783517  2.217275  0.617  1.007754  0.875786  2.10281  0.717  0.675767  0.820625  0.673054  2.279247  0.518
Cu  Cu1  1  0.70846046  0.47281133  0.55487847  1  0.892252  -0.65087  1.818478  -0.466  0.889559  -0.783514  2.218114  -0.617  1.007734  -0.875788  2.103285  -0.717  0.675826  0.820726  -0.673022  2.279554  -0.519
H  H2  1  0.06460079  0.20041848  0.75554983  1  0.10623  0.000267  0.937396  0.0  0.125868  0.000182  0.992382  0.0  0.127232  0.000121  0.993637  0.0  0.108029  0.124789  0.000226  0.991447  0.0
H  H3  1  0.93526462  0.79960590  0.24445368  1  0.106019  -0.000266  0.937574  0.0  0.125697  -0.000182  0.992488  0.0  0.127051  -0.000121  0.993735  0.0  0.107914  0.124622  -0.000225  0.991558  0.0
H  H4  1  0.91611513  0.36332834  0.77503731  1  0.116397  -0.000739  0.947119  -0.001  0.128211  -0.000486  1.009933  -0.001  0.130317  -0.000286  1.009021  0.0  0.10321  0.12605  -0.000529  1.011613  -0.001
H  H5  1  0.08387191  0.63668483  0.22498827  1  0.116363  0.000738  0.947032  0.001  0.128106  0.000486  1.009888  0.001  0.130208  0.000286  1.008968  0.0  0.103147  0.125948  0.000528  1.011567  0.001
H  H6  1  0.42974270  0.31832391  0.91692012  1  0.057813  -0.000215  0.942874  0.0  0.07709  -0.000196  1.003209  0.0  0.07806  -0.000131  1.003009  0.0  0.088848  0.076115  -0.000193  1.003793  0.0
H  H7  1  0.57025772  0.68165630  0.08304343  1  0.057743  0.000213  0.942814  0.0  0.077076  0.000196  1.003114  0.0  0.07805  0.000131  1.002911  0.0  0.088841  0.076085  0.000194  1.003721  0.0
H  H8  1  0.29406134  0.48678649  0.93429061  1  0.053989  -9e-05  0.950807  0.0  0.07412  -3.2e-05  1.010283  0.0  0.073938  -2.1e-05  1.011668  0.0  0.08903  0.074327  -3.3e-05  1.00905  0.0
H  H9  1  0.70595942  0.51323283  0.06570584  1  0.054028  8.9e-05  0.950868  0.0  0.074217  3.2e-05  1.010299  0.0  0.073996  2.1e-05  1.011737  0.0  0.089097  0.074424  3.3e-05  1.009065  0.0
H  H10  1  0.15220069  0.30789429  0.09481217  1  0.1077  0.000136  0.945658  0.0  0.128846  8.9e-05  1.004055  0.0  0.130359  4.3e-05  1.004454  0.0  0.090601  0.127808  0.00012  1.00385  0.0
H  H11  1  0.84787404  0.69209466  0.90519049  1  0.107679  -0.000136  0.945627  0.0  0.128822  -8.9e-05  1.004041  0.0  0.130334  -4.3e-05  1.00444  0.0  0.090548  0.127783  -0.000119  1.003835  0.0
H  H12  1  0.02528206  0.15043085  0.98258902  1  0.077603  -2e-05  0.972217  0.0  0.096562  3e-06  1.042428  0.0  0.097868  2e-06  1.042458  0.0  0.080265  0.096168  2e-06  1.041576  0.0
H  H13  1  0.97475321  0.84956474  0.01741965  1  0.077618  2e-05  0.972168  0.0  0.096584  -3e-06  1.042382  0.0  0.097887  -2e-06  1.042417  0.0  0.080275  0.096192  -2e-06  1.04153  0.0
H  H14  1  0.87411233  0.31464929  0.99118091  1  0.087944  -6.8e-05  0.967717  0.0  0.110021  -6.2e-05  1.029381  0.0  0.110959  -3.9e-05  1.030217  0.0  0.084963  0.109387  -6.5e-05  1.028946  0.0
H  H15  1  0.12593636  0.68535560  0.00883312  1  0.087996  6.8e-05  0.967884  0.0  0.110124  6.2e-05  1.029439  0.0  0.111058  3.9e-05  1.030283  0.0  0.085022  0.109492  6.6e-05  1.029002  0.0
H  H16  1  0.12068000  0.03795769  0.28888336  1  0.091674  -0.001201  0.952512  -0.001  0.106899  -0.000825  1.013193  -0.001  0.10829  -0.000573  1.013085  -0.001  0.096594  0.105591  -0.000878  1.013379  -0.001
H  H17  1  0.87935592  0.96206980  0.71112388  1  0.091547  0.0012  0.952299  0.001  0.106863  0.000824  1.012912  0.001  0.108251  0.000573  1.012807  0.001  0.096595  0.105557  0.000877  1.013092  0.001
H  H18  1  0.26100849  0.97321667  0.42529754  1  0.118044  0.001067  0.927159  0.001  0.131799  0.000804  0.986467  0.0  0.134298  0.000547  0.985366  0.0  0.105187  0.129598  0.00072  0.987926  0.001
H  H19  1  0.73892894  0.02678151  0.57469320  1  0.11792  -0.001071  0.927172  -0.001  0.131695  -0.000804  0.986509  0.0  0.13419  -0.000548  0.985411  0.0  0.105172  0.129494  -0.000722  0.987966  -0.001
H  H20  1  0.46275919  0.87380613  0.25813163  1  0.065276  0.000712  0.950722  0.001  0.082506  0.000542  1.014287  0.0  0.082433  0.000342  1.016044  0.0  0.088674  0.083196  0.00059  1.012227  0.001
H  H21  1  0.53722203  0.12617488  0.74186817  1  0.065293  -0.000711  0.950629  -0.001  0.082558  -0.000542  1.014207  0.0  0.082483  -0.000342  1.015967  0.0  0.088658  0.083243  -0.00059  1.012163  -0.001
H  H22  1  0.70009061  0.01755325  0.34938245  1  0.062016  -0.000223  0.939046  0.0  0.080816  -0.000188  1.000621  0.0  0.081624  -0.000126  1.000767  0.0  0.08884  0.080268  -0.000186  1.000658  0.0
H  H23  1  0.29988141  0.98244597  0.65064203  1  0.061862  0.000223  0.939143  0.0  0.080707  0.000188  1.000687  0.0  0.081513  0.000126  1.000838  0.0  0.088799  0.080167  0.000186  1.000719  0.0
H  H24  1  0.73020670  0.05198235  0.12678873  1  0.085552  2.3e-05  0.97147  0.0  0.106973  1e-06  1.036559  0.0  0.10777  -1e-06  1.037407  0.0  0.082911  0.10631  -7e-06  1.036134  0.0
H  H25  1  0.26984274  0.94799788  0.87323877  1  0.085634  -2.1e-05  0.971446  0.0  0.106987  -2e-06  1.036593  0.0  0.107785  1e-06  1.037442  0.0  0.082936  0.106324  8e-06  1.036166  0.0
H  H26  1  0.64821681  0.21863233  0.19976745  1  0.099725  3.2e-05  0.94372  0.0  0.123326  2.4e-05  0.998543  0.0  0.124372  1e-05  0.998884  0.0  0.086822  0.123109  6.3e-05  0.997415  0.0
H  H27  1  0.35182798  0.78135621  0.80025660  1  0.099738  -3.3e-05  0.9438  0.0  0.123352  -2.4e-05  0.998576  0.0  0.124393  -1.1e-05  0.99893  0.0  0.08688  0.123134  -6.3e-05  0.997444  0.0
H  H28  1  0.40062396  0.07810712  0.10862936  1  0.083604  6e-06  0.972125  0.0  0.106005  -3e-06  1.036286  0.0  0.106498  -2e-06  1.037869  0.0  0.082118  0.105537  -9e-06  1.035334  0.0
H  H29  1  0.59943244  0.92189873  0.89137689  1  0.083565  -4e-06  0.972291  0.0  0.105942  3e-06  1.036486  0.0  0.106442  2e-06  1.038063  0.0  0.082087  0.105473  9e-06  1.035533  0.0
C  C30  1  0.26372007  0.40165048  0.68483307  1  0.710292  0.001651  3.780583  0.003  0.677865  0.000718  4.075123  0.002  0.719785  0.000797  4.069087  0.002  0.22633  0.64918  0.000658  4.079024  0.001
C  C31  1  0.73625393  0.59835404  0.31514756  1  0.710128  -0.001657  3.780768  -0.003  0.677729  -0.000724  4.075305  -0.002  0.719638  -0.000797  4.069258  -0.002  0.226235  0.649042  -0.000663  4.079203  -0.001
C  C32  1  0.10680090  0.32771525  0.78164179  1  -0.264285  -0.001259  3.652636  -0.001  -0.302833  -0.000729  3.895115  -0.001  -0.312186  -0.000538  3.904669  0.0  -0.160555  -0.295263  -0.000636  3.888102  0.0
C  C33  1  0.89320002  0.67232112  0.21836630  1  -0.264074  0.001264  3.652433  0.001  -0.302504  0.000733  3.894815  0.001  -0.311817  0.000539  3.90432  0.0  -0.160402  -0.294934  0.00064  3.887805  0.001
C  C34  1  0.24295307  0.35917307  0.91108117  1  -0.033472  0.001302  3.715681  0.002  -0.070191  0.000646  3.974963  0.001  -0.069193  0.000421  3.989556  0.001  -0.164965  -0.07108  0.000795  3.965355  0.001
C  C35  1  0.75707267  0.64083433  0.08891410  1  -0.033423  -0.001292  3.715728  -0.002  -0.070256  -0.000646  3.975094  -0.001  -0.06925  -0.000421  3.989688  -0.001  -0.164963  -0.07114  -0.000795  3.965491  -0.001
C  C36  1  0.06540360  0.27919445  0.00014969  1  -0.287042  0.000677  3.71496  0.001  -0.359865  0.000409  3.962659  0.0  -0.363126  0.000253  3.974868  0.0  -0.24459  -0.357755  0.0005  3.954281  0.001
C  C37  1  0.93463509  0.72079516  0.99985797  1  -0.287146  -0.00068  3.715335  -0.001  -0.360004  -0.000409  3.963131  0.0  -0.363255  -0.000253  3.975336  0.0  -0.244653  -0.357898  -0.000499  3.954751  -0.001
C  C38  1  0.37565346  0.21821458  0.40504306  1  0.693996  -0.001109  3.797379  -0.002  0.661384  -0.00045  4.097992  -0.001  0.701786  -0.000438  4.095108  -0.001  0.217406  0.633839  -0.000238  4.100614  -0.001
C  C39  1  0.62431390  0.78178187  0.59494422  1  0.69376  0.001105  3.797583  0.002  0.660973  0.000443  4.098466  0.001  0.701368  0.00044  4.095604  0.001  0.217185  0.633433  0.000236  4.101074  0.001
C  C40  1  0.30247284  0.04948726  0.35061854  1  -0.261519  0.00021  3.651674  0.001  -0.300626  5.5e-05  3.900081  0.0  -0.308793  5.3e-05  3.90798  0.0  -0.160785  -0.292948  0.001082  3.893624  0.002
C  C41  1  0.69753287  0.95051228  0.64938288  1  -0.261135  -0.000195  3.65095  -0.001  -0.300299  -5.7e-05  3.899499  0.0  -0.308459  -5.5e-05  3.907409  0.0  -0.160775  -0.292627  -0.001086  3.89304  -0.002
C  C42  1  0.52101489  0.00048927  0.28476137  1  -0.040659  0.000933  3.69513  0.001  -0.078491  0.000495  3.959655  0.001  -0.077914  0.000299  3.97412  0.0  -0.167645  -0.079338  0.000982  3.949043  0.001
C  C43  1  0.47899393  0.99948200  0.71525167  1  -0.040641  -0.000936  3.695407  -0.001  -0.078568  -0.000495  3.960053  -0.001  -0.077995  -0.000299  3.97453  0.0  -0.167627  -0.079428  -0.000982  3.949453  -0.001
C  C44  1  0.57780496  0.09232055  0.17400472  1  -0.28645  -0.00013  3.711328  0.0  -0.358461  -2.7e-05  3.954238  0.0  -0.360935  -2.7e-05  3.966377  0.0  -0.248597  -0.356671  5.6e-05  3.94595  0.0
C  C45  1  0.42223191  0.90767018  0.82599572  1  -0.286491  0.000123  3.711914  0.0  -0.358418  2.6e-05  3.954881  0.0  -0.360874  2.7e-05  3.966973  0.0  -0.248599  -0.356634  -5.7e-05  3.946607  0.0
O  O46  1  0.13456026  0.45017379  0.59545963  1  -0.614666  0.063595  2.176138  0.083  -0.587972  0.046433  2.470709  0.066  -0.642066  0.038009  2.457669  0.057  -0.317003  -0.555138  0.047588  2.478728  0.065
O  O47  1  0.86538147  0.54984454  0.40454016  1  -0.614669  -0.063571  2.176404  -0.083  -0.587942  -0.046416  2.470972  -0.066  -0.64206  -0.037998  2.457958  -0.057  -0.316951  -0.555093  -0.047572  2.478956  -0.065
O  O48  1  0.49028105  0.59375098  0.30527668  1  -0.578565  0.077007  2.079251  0.101  -0.550668  0.054795  2.352223  0.079  -0.595218  0.044655  2.341477  0.068  -0.304147  -0.523021  0.055939  2.357891  0.078
O  O49  1  0.50970117  0.40624723  0.69468421  1  -0.578748  -0.076999  2.079469  -0.101  -0.550663  -0.05479  2.352267  -0.079  -0.595271  -0.044652  2.341503  -0.068  -0.30411  -0.523067  -0.055942  2.3579  -0.078
O  O50  1  0.21851481  0.30796660  0.37415450  1  -0.566647  0.08753  2.040954  0.115  -0.546854  0.058823  2.312375  0.085  -0.594551  0.046723  2.303857  0.072  -0.314753  -0.517894  0.06164  2.317897  0.086
O  O51  1  0.78143966  0.69202543  0.62584023  1  -0.566497  -0.087546  2.04074  -0.115  -0.546674  -0.058832  2.31221  -0.085  -0.594425  -0.046728  2.303688  -0.072  -0.314736  -0.517774  -0.061662  2.317698  -0.086
O  O52  1  0.41242453  0.74374567  0.52248651  1  -0.57664  0.074693  2.0547  0.097  -0.551874  0.050882  2.329249  0.073  -0.599087  0.04123  2.321259  0.063  -0.312397  -0.52258  0.053074  2.33506  0.073
O  O53  1  0.58755454  0.25625647  0.47749872  1  -0.576672  -0.074708  2.054303  -0.097  -0.551987  -0.050887  2.328788  -0.073  -0.599249  -0.041237  2.320765  -0.063  -0.312557  -0.522751  -0.053089  2.334579  -0.073
