# generated using pymatgen
data_AgH22C10N2Cl
_symmetry_space_group_name_H-M   'P 1'
_cell_length_a   6.09717200
_cell_length_b   10.74369460
_cell_length_c   20.75289667
_cell_angle_alpha   95.25220438
_cell_angle_beta   89.91274237
_cell_angle_gamma   106.78816993
_symmetry_Int_Tables_number   1
_chemical_formula_structural   AgH22C10N2Cl
_chemical_formula_sum   'Ag4 H88 C40 N8 Cl4'
_cell_volume   1295.59465152
_cell_formula_units_Z   4
loop_
 _symmetry_equiv_pos_site_id
 _symmetry_equiv_pos_as_xyz
  1  'x, y, z'
loop_
 _atom_site_type_symbol
 _atom_site_label
 _atom_site_symmetry_multiplicity
 _atom_site_fract_x
 _atom_site_fract_y
 _atom_site_fract_z
 _atom_site_occupancy
 _atom_site_hle17_bader_spin_density
 _atom_site_hle17_ddec_charge
 _atom_site_hle17_ddec_spin_density
 _atom_site_hle17_ddec_sum_bond_order
 _atom_site_hle17_magmom
 _atom_site_hse06_10hf_bader_spin_density
 _atom_site_hse06_10hf_ddec_charge
 _atom_site_hse06_10hf_ddec_spin_density
 _atom_site_hse06_10hf_ddec_sum_bond_order
 _atom_site_hse06_10hf_magmom
 _atom_site_hse06_bader_spin_density
 _atom_site_hse06_ddec_charge
 _atom_site_hse06_ddec_spin_density
 _atom_site_hse06_ddec_sum_bond_order
 _atom_site_hse06_magmom
 _atom_site_pbe_bader_spin_density
 _atom_site_pbe_cm5_charge
 _atom_site_pbe_ddec_charge
 _atom_site_pbe_ddec_spin_density
 _atom_site_pbe_ddec_sum_bond_order
 _atom_site_pbe_magmom
Ag  Ag0  1  0.18235336  0.44876858  0.69484648  1  0  0.468916  0  1.500058  0  0  0.33248  0  1.961834  0  0  0.360415  0  1.916895  0  0  0.342579  0.313174  0  1.99273  0
Ag  Ag1  1  0.73368343  0.55289804  0.80541612  1  0  0.468153  0  1.497565  0  0  0.331621  0  1.958914  0  0  0.359702  0  1.913935  0  0  0.34217  0.312074  0  1.990024  0
Ag  Ag2  1  0.81764594  0.55124001  0.30514466  1  0  0.468895  0  1.500141  0  0  0.332479  0  1.961949  0  0  0.360406  0  1.917006  0  0  0.342566  0.313171  0  1.992844  0
Ag  Ag3  1  0.26633292  0.44709887  0.19457439  1  0  0.468238  0  1.497454  0  0  0.331727  0  1.958766  0  0  0.359809  0  1.913791  0  0  0.342173  0.312179  0  1.989875  0
H  H4  1  0.77368048  0.26982663  0.67909272  1  0  0.241806  0  0.948907  0  0  0.237017  0  1.000538  0  0  0.241869  0  0.997996  0  0  0.269003  0.233461  0  1.002636  0
H  H5  1  0.50608728  0.73191319  0.82080618  1  0  0.240837  0  0.949013  0  0  0.236012  0  1.000586  0  0  0.240876  0  0.998085  0  0  0.269204  0.23263  0  1.002356  0
H  H6  1  0.22631491  0.73017104  0.32090506  1  0  0.241821  0  0.948802  0  0  0.237045  0  1.000468  0  0  0.241897  0  0.997924  0  0  0.268999  0.233489  0  1.002569  0
H  H7  1  0.49389924  0.26807666  0.17919119  1  0  0.240865  0  0.949028  0  0  0.235921  0  1.000691  0  0  0.240817  0  0.998142  0  0  0.269199  0.232538  0  1.002454  0
H  H8  1  0.85276009  0.29140562  0.57020437  1  0  0.053307  0  0.948814  0  0  0.070011  0  1.016492  0  0  0.070303  0  1.016639  0  0  0.097624  0.069657  0  1.016525  0
H  H9  1  0.56004587  0.70976700  0.92969333  1  0  0.0528  0  0.948858  0  0  0.06932  0  1.017033  0  0  0.069641  0  1.017153  0  0  0.097327  0.069009  0  1.017041  0
H  H10  1  0.14718202  0.70860670  0.42979083  1  0  0.053283  0  0.948725  0  0  0.069964  0  1.016349  0  0  0.070254  0  1.016493  0  0  0.097596  0.069571  0  1.016423  0
H  H11  1  0.43993444  0.29020726  0.07030176  1  0  0.052936  0  0.948673  0  0  0.06945  0  1.016885  0  0  0.069767  0  1.017011  0  0  0.097367  0.069138  0  1.016892  0
H  H12  1  0.73341330  0.12293268  0.58066118  1  0  0.029915  0  0.925177  0  0  0.050376  0  0.988274  0  0  0.050751  0  0.987923  0  0  0.086791  0.05004  0  0.988514  0
H  H13  1  0.61512203  0.87850621  0.91956238  1  0  0.029975  0  0.925578  0  0  0.050418  0  0.988576  0  0  0.050635  0  0.988456  0  0  0.086988  0.05022  0  0.988662  0
H  H14  1  0.26655053  0.87706097  0.41933928  1  0  0.029997  0  0.925226  0  0  0.05044  0  0.988281  0  0  0.050816  0  0.987926  0  0  0.086812  0.0501  0  0.988521  0
H  H15  1  0.38483691  0.12146480  0.08044410  1  0  0.029993  0  0.925427  0  0  0.050427  0  0.988479  0  0  0.050646  0  0.988353  0  0  0.08699  0.050231  0  0.98856  0
H  H16  1  0.07375995  0.15218739  0.51208121  1  0  0.057697  0  0.962097  0  0  0.074292  0  1.028771  0  0  0.075052  0  1.028962  0  0  0.084963  0.07365  0  1.028761  0
H  H17  1  0.92294496  0.84737935  0.98822176  1  0  0.057172  0  0.961452  0  0  0.073915  0  1.028344  0  0  0.074761  0  1.028376  0  0  0.084894  0.073242  0  1.028414  0
H  H18  1  0.92616541  0.84780467  0.48790278  1  0  0.057662  0  0.962159  0  0  0.07429  0  1.028804  0  0  0.075047  0  1.028998  0  0  0.084977  0.073648  0  1.028804  0
H  H19  1  0.07701642  0.15258675  0.01178590  1  0  0.057129  0  0.961624  0  0  0.073953  0  1.028455  0  0  0.074799  0  1.028493  0  0  0.084928  0.07329  0  1.02851  0
H  H20  1  0.24634652  0.26512671  0.57299056  1  0  0.072093  0  0.936809  0  0  0.090075  0  0.999244  0  0  0.091217  0  0.999031  0  0  0.087592  0.089155  0  0.999457  0
H  H21  1  0.97918143  0.73352779  0.92744731  1  0  0.072198  0  0.935622  0  0  0.089762  0  0.998673  0  0  0.090885  0  0.998455  0  0  0.087934  0.088885  0  0.998882  0
H  H22  1  0.75360749  0.73488308  0.42698957  1  0  0.072156  0  0.936748  0  0  0.090076  0  0.999251  0  0  0.091218  0  0.999038  0  0  0.087625  0.08916  0  0.999462  0
H  H23  1  0.02079453  0.26645414  0.07255300  1  0  0.072152  0  0.93538  0  0  0.08974  0  0.998473  0  0  0.090864  0  0.998256  0  0  0.087909  0.088858  0  0.998683  0
H  H24  1  0.30162335  0.04579715  0.58053681  1  0  0.056138  0  0.940978  0  0  0.075133  0  1.001691  0  0  0.07611  0  1.001538  0  0  0.084452  0.074309  0  1.001918  0
H  H25  1  0.26166590  0.95156783  0.91998862  1  0  0.056361  0  0.941881  0  0  0.075666  0  1.002176  0  0  0.076638  0  1.002115  0  0  0.084546  0.074949  0  1.0022  0
H  H26  1  0.69836593  0.95421753  0.41944502  1  0  0.056151  0  0.94115  0  0  0.075188  0  1.001793  0  0  0.076157  0  1.001648  0  0  0.08444  0.074376  0  1.002007  0
H  H27  1  0.73829148  0.04840013  0.08002204  1  0  0.056237  0  0.941984  0  0  0.075587  0  1.002246  0  0  0.076556  0  1.00219  0  0  0.084491  0.074868  0  1.002272  0
H  H28  1  0.00208274  0.97498505  0.58473908  1  0  0.045716  0  0.956767  0  0  0.062087  0  1.027539  0  0  0.062845  0  1.027499  0  0  0.080746  0.061404  0  1.027715  0
H  H29  1  0.03718855  0.02439682  0.91559395  1  0  0.044303  0  0.955858  0  0  0.060359  0  1.027506  0  0  0.061187  0  1.02728  0  0  0.080324  0.05963  0  1.027828  0
H  H30  1  0.99789238  0.02501467  0.41525400  1  0  0.045717  0  0.956864  0  0  0.062119  0  1.027571  0  0  0.062876  0  1.027527  0  0  0.080787  0.061434  0  1.027752  0
H  H31  1  0.96280123  0.97558664  0.08442379  1  0  0.044452  0  0.955961  0  0  0.0605  0  1.027575  0  0  0.061351  0  1.027328  0  0  0.080382  0.059771  0  1.027898  0
H  H32  1  0.17289328  0.01342185  0.69584324  1  0  0.061618  0  0.95716  0  0  0.082223  0  1.016689  0  0  0.082454  0  1.017954  0  0  0.087443  0.081917  0  1.016018  0
H  H33  1  0.17024859  0.98489374  0.80460603  1  0  0.06258  0  0.957118  0  0  0.082333  0  1.017179  0  0  0.08263  0  1.018324  0  0  0.087523  0.082075  0  1.016458  0
H  H34  1  0.82715000  0.98660558  0.30413974  1  0  0.061474  0  0.95697  0  0  0.082112  0  1.016581  0  0  0.082342  0  1.017853  0  0  0.087464  0.081806  0  1.015909  0
H  H35  1  0.82974327  0.01511329  0.19540768  1  0  0.062492  0  0.956974  0  0  0.082298  0  1.017072  0  0  0.082597  0  1.018208  0  0  0.087544  0.08204  0  1.016359  0
H  H36  1  0.30759899  0.18010299  0.68448619  1  0  0.06706  0  0.969503  0  0  0.083565  0  1.036801  0  0  0.084701  0  1.036339  0  0  0.081504  0.082735  0  1.037105  0
H  H37  1  0.12971920  0.81756472  0.81589186  1  0  0.068254  0  0.970563  0  0  0.083643  0  1.039176  0  0  0.084852  0  1.038582  0  0  0.081131  0.082655  0  1.039717  0
H  H38  1  0.69240602  0.81991363  0.31549718  1  0  0.06707  0  0.969212  0  0  0.083634  0  1.036529  0  0  0.084771  0  1.03607  0  0  0.081488  0.082801  0  1.036837  0
H  H39  1  0.87028258  0.18244245  0.18411703  1  0  0.068177  0  0.970463  0  0  0.083581  0  1.03911  0  0  0.084783  0  1.038524  0  0  0.081125  0.082592  0  1.039661  0
H  H40  1  0.95789948  0.16166885  0.74782627  1  0  0.052434  0  0.944876  0  0  0.071641  0  1.010342  0  0  0.07155  0  1.010999  0  0  0.09983  0.071542  0  1.010091  0
H  H41  1  0.80225590  0.83997568  0.75249695  1  0  0.052438  0  0.94498  0  0  0.071841  0  1.010267  0  0  0.07172  0  1.010991  0  0  0.099966  0.071842  0  1.009817  0
H  H42  1  0.04213504  0.83834458  0.25216849  1  0  0.052471  0  0.944803  0  0  0.071674  0  1.010225  0  0  0.0716  0  1.010864  0  0  0.099877  0.071538  0  1.010019  0
H  H43  1  0.19773654  0.16003247  0.24751103  1  0  0.052586  0  0.94479  0  0  0.071853  0  1.010159  0  0  0.071729  0  1.010892  0  0  0.099988  0.071859  0  1.009702  0
H  H44  1  0.79032723  0.04687946  0.68659949  1  0  0.027483  0  0.950802  0  0  0.047668  0  1.015601  0  0  0.04772  0  1.015858  0  0  0.086138  0.047678  0  1.015219  0
H  H45  1  0.75414179  0.95528285  0.81400886  1  0  0.028312  0  0.948239  0  0  0.048839  0  1.012938  0  0  0.048836  0  1.013294  0  0  0.086643  0.048661  0  1.012886  0
H  H46  1  0.20967978  0.95311524  0.31340006  1  0  0.027571  0  0.950878  0  0  0.047757  0  1.015627  0  0  0.047811  0  1.015883  0  0  0.08616  0.047771  0  1.015241  0
H  H47  1  0.24584385  0.04470860  0.18600208  1  0  0.028088  0  0.94817  0  0  0.04865  0  1.012778  0  0  0.048694  0  1.013084  0  0  0.086541  0.048473  0  1.01273  0
H  H48  1  0.90812311  0.57915278  0.65051399  1  0  0.237832  0  0.969008  0  0  0.230761  0  1.02459  0  0  0.23604  0  1.021446  0  0  0.261318  0.227188  0  1.026696  0
H  H49  1  0.32776865  0.42173091  0.84954780  1  0  0.237017  0  0.968482  0  0  0.230607  0  1.023948  0  0  0.23582  0  1.020889  0  0  0.260826  0.226884  0  1.026242  0
H  H50  1  0.09188530  0.42089032  0.34950357  1  0  0.237905  0  0.969147  0  0  0.230879  0  1.024651  0  0  0.236157  0  1.021509  0  0  0.261326  0.227301  0  1.026771  0
H  H51  1  0.67225169  0.57827070  0.15045019  1  0  0.237185  0  0.968291  0  0  0.230787  0  1.023771  0  0  0.236  0  1.020708  0  0  0.260914  0.227061  0  1.026071  0
H  H52  1  0.11345958  0.81103241  0.64390936  1  0  0.029985  0  0.943851  0  0  0.050957  0  1.009237  0  0  0.050542  0  1.010215  0  0  0.087022  0.051142  0  1.008681  0
H  H53  1  0.29198607  0.19017963  0.85562785  1  0  0.029558  0  0.9432  0  0  0.049982  0  1.009604  0  0  0.049661  0  1.010329  0  0  0.086531  0.050175  0  1.009038  0
H  H54  1  0.88662974  0.18900859  0.35611867  1  0  0.029864  0  0.943498  0  0  0.050879  0  1.008876  0  0  0.050465  0  1.009836  0  0  0.087041  0.051066  0  1.008321  0
H  H55  1  0.70801842  0.80981986  0.14437533  1  0  0.029637  0  0.943184  0  0  0.050034  0  1.009578  0  0  0.049709  0  1.010309  0  0  0.086576  0.050231  0  1.009014  0
H  H56  1  0.15751327  0.74877391  0.71836261  1  0  0.054535  0  0.963923  0  0  0.070684  0  1.033798  0  0  0.070982  0  1.03381  0  0  0.094183  0.070364  0  1.033885  0
H  H57  1  0.40397739  0.25200506  0.78146716  1  0  0.055285  0  0.964994  0  0  0.071536  0  1.034477  0  0  0.071884  0  1.034434  0  0  0.094178  0.071191  0  1.034573  0
H  H58  1  0.84257089  0.25123408  0.28165691  1  0  0.05437  0  0.963913  0  0  0.070586  0  1.033757  0  0  0.070877  0  1.033773  0  0  0.094116  0.070272  0  1.033833  0
H  H59  1  0.59602013  0.74798700  0.21852069  1  0  0.05531  0  0.965174  0  0  0.07159  0  1.034561  0  0  0.071938  0  1.034513  0  0  0.094222  0.071247  0  1.034658  0
H  H60  1  0.52764470  0.87979991  0.67345419  1  0  0.05459  0  0.96217  0  0  0.071925  0  1.025829  0  0  0.073275  0  1.025215  0  0  0.082447  0.071161  0  1.025926  0
H  H61  1  0.63338659  0.11776456  0.82702884  1  0  0.054783  0  0.959826  0  0  0.072833  0  1.022956  0  0  0.074011  0  1.022593  0  0  0.08313  0.07188  0  1.023379  0
H  H62  1  0.47246020  0.12017113  0.32655902  1  0  0.054708  0  0.961986  0  0  0.072027  0  1.025756  0  0  0.073375  0  1.025141  0  0  0.08255  0.071266  0  1.025855  0
H  H63  1  0.36661180  0.88222928  0.17296585  1  0  0.054816  0  0.959972  0  0  0.07287  0  1.023056  0  0  0.074048  0  1.022697  0  0  0.083152  0.071915  0  1.02348  0
H  H64  1  0.51905898  0.71431564  0.68004343  1  0  0.068375  0  0.946436  0  0  0.083222  0  1.016431  0  0  0.084492  0  1.015623  0  0  0.085209  0.082176  0  1.017217  0
H  H65  1  0.79769761  0.28229543  0.82020030  1  0  0.068079  0  0.94629  0  0  0.083959  0  1.014917  0  0  0.085137  0  1.01425  0  0  0.085736  0.083023  0  1.015532  0
H  H66  1  0.48098297  0.28565081  0.31995508  1  0  0.068195  0  0.946518  0  0  0.083274  0  1.016328  0  0  0.084542  0  1.015516  0  0  0.08526  0.082227  0  1.017118  0
H  H67  1  0.20231129  0.71770623  0.17979480  1  0  0.06806  0  0.946334  0  0  0.083999  0  1.014879  0  0  0.085174  0  1.014217  0  0  0.085765  0.083065  0  1.015488  0
H  H68  1  0.43718545  0.83218139  0.55601212  1  0  0.048899  0  0.938271  0  0  0.06759  0  1.001838  0  0  0.068487  0  1.001867  0  0  0.081783  0.0669  0  1.001868  0
H  H69  1  0.59168118  0.16694619  0.94443948  1  0  0.048885  0  0.93914  0  0  0.067803  0  1.002356  0  0  0.068591  0  1.002585  0  0  0.081901  0.067147  0  1.002288  0
H  H70  1  0.56283828  0.16783353  0.44400007  1  0  0.048938  0  0.938484  0  0  0.067696  0  1.001906  0  0  0.06859  0  1.001933  0  0  0.081839  0.067005  0  1.00194  0
H  H71  1  0.40831502  0.83304658  0.05555900  1  0  0.048798  0  0.939186  0  0  0.067746  0  1.002401  0  0  0.06854  0  1.002619  0  0  0.08187  0.06709  0  1.002333  0
H  H72  1  0.67499601  0.77697744  0.57358669  1  0  0.053512  0  0.950327  0  0  0.072036  0  1.013427  0  0  0.072838  0  1.013609  0  0  0.082979  0.07136  0  1.013417  0
H  H73  1  0.88599987  0.21964216  0.92673602  1  0  0.053935  0  0.949571  0  0  0.071847  0  1.01336  0  0  0.07267  0  1.013487  0  0  0.082895  0.071167  0  1.013384  0
H  H74  1  0.32502053  0.22299390  0.42641017  1  0  0.053591  0  0.950426  0  0  0.072051  0  1.013561  0  0  0.072826  0  1.013777  0  0  0.082948  0.071379  0  1.01354  0
H  H75  1  0.11401785  0.78034776  0.07326038  1  0  0.053843  0  0.949717  0  0  0.071818  0  1.013452  0  0  0.072638  0  1.013581  0  0  0.082865  0.071135  0  1.01348  0
H  H76  1  0.37546866  0.61092946  0.49985355  1  0  0.06427  0  0.944059  0  0  0.082521  0  1.006292  0  0  0.08342  0  1.006582  0  0  0.0874  0.081901  0  1.006074  0
H  H77  1  0.75971391  0.38814132  0.00011857  1  0  0.064581  0  0.944378  0  0  0.082863  0  1.006279  0  0  0.083776  0  1.006526  0  0  0.087156  0.082173  0  1.00612  0
H  H78  1  0.62447472  0.38908865  0.50014437  1  0  0.064107  0  0.944155  0  0  0.082352  0  1.006387  0  0  0.083242  0  1.00668  0  0  0.087325  0.081732  0  1.006172  0
H  H79  1  0.24030475  0.61185365  0.99987135  1  0  0.06459  0  0.94424  0  0  0.082824  0  1.006244  0  0  0.083738  0  1.006488  0  0  0.087162  0.082135  0  1.006085  0
H  H80  1  0.42695616  0.54927470  0.57313481  1  0  0.06765  0  0.948642  0  0  0.083514  0  1.016707  0  0  0.084828  0  1.016125  0  0  0.083123  0.082446  0  1.0173  0
H  H81  1  0.87513835  0.44847433  0.92664646  1  0  0.068765  0  0.949045  0  0  0.084098  0  1.017252  0  0  0.08533  0  1.016761  0  0  0.083288  0.083093  0  1.017737  0
H  H82  1  0.57297198  0.45071319  0.42685957  1  0  0.067699  0  0.948716  0  0  0.083506  0  1.016802  0  0  0.084811  0  1.016225  0  0  0.083154  0.082452  0  1.01738  0
H  H83  1  0.12489450  0.55151955  0.07334871  1  0  0.068724  0  0.949028  0  0  0.08405  0  1.017272  0  0  0.085281  0  1.016783  0  0  0.083258  0.083056  0  1.017748  0
H  H84  1  0.02590342  0.65720036  0.54476167  1  0  0.030316  0  0.928564  0  0  0.051741  0  0.992493  0  0  0.051668  0  0.992895  0  0  0.087468  0.051671  0  0.992362  0
H  H85  1  0.36364770  0.34354256  0.95510193  1  0  0.031047  0  0.926968  0  0  0.051977  0  0.991361  0  0  0.051795  0  0.991917  0  0  0.087457  0.05192  0  0.991187  0
H  H86  1  0.97409679  0.34286224  0.45525741  1  0  0.030546  0  0.928303  0  0  0.051988  0  0.992154  0  0  0.051945  0  0.992532  0  0  0.087522  0.051915  0  0.99203  0
H  H87  1  0.63637723  0.65646491  0.04489637  1  0  0.031156  0  0.927016  0  0  0.052099  0  0.991363  0  0  0.051916  0  0.991922  0  0  0.087492  0.052061  0  0.991168  0
H  H88  1  0.00977394  0.49091618  0.55193704  1  0  0.049331  0  0.962629  0  0  0.067702  0  1.029842  0  0  0.067555  0  1.030443  0  0  0.098759  0.067722  0  1.029514  0
H  H89  1  0.51935546  0.50952899  0.94807433  1  0  0.04955  0  0.963939  0  0  0.067922  0  1.030922  0  0  0.067778  0  1.031507  0  0  0.098907  0.067908  0  1.030642  0
H  H90  1  0.99014984  0.50910862  0.44806558  1  0  0.049212  0  0.963031  0  0  0.067522  0  1.030199  0  0  0.06737  0  1.030826  0  0  0.098661  0.067546  0  1.029863  0
H  H91  1  0.48070007  0.49049032  0.05192123  1  0  0.049634  0  0.964108  0  0  0.068022  0  1.031025  0  0  0.067878  0  1.031611  0  0  0.098942  0.068006  0  1.030749  0
C  C92  1  0.88548294  0.20900986  0.59208767  1  0  0.043757  0  3.669038  0  0  -0.013809  0  3.932353  0  0  -0.009926  0  3.946131  0  0  -0.075216  -0.016316  0  3.922782  0
C  C93  1  0.67824362  0.79195848  0.90803791  1  0  0.045682  0  3.666425  0  0  -0.011986  0  3.930166  0  0  -0.008035  0  3.9439  0  0  -0.074657  -0.014544  0  3.920448  0
C  C94  1  0.11446766  0.79098997  0.40789963  1  0  0.043757  0  3.669289  0  0  -0.013619  0  3.932429  0  0  -0.009727  0  3.946206  0  0  -0.075152  -0.016096  0  3.922855  0
C  C95  1  0.32173409  0.20802045  0.09196562  1  0  0.045568  0  3.666185  0  0  -0.01213  0  3.930044  0  0  -0.008182  0  3.943797  0  0  -0.074672  -0.014696  0  3.920329  0
C  C96  1  0.09760103  0.17746369  0.56467042  1  0  -0.13581  0  3.690363  0  0  -0.173227  0  3.945377  0  0  -0.175088  0  3.960504  0  0  -0.168555  -0.171771  0  3.934897  0
C  C97  1  0.92167923  0.82194888  0.93563674  1  0  -0.135711  0  3.68819  0  0  -0.17306  0  3.943684  0  0  -0.174936  0  3.958861  0  0  -0.168753  -0.171587  0  3.933153  0
C  C98  1  0.90236045  0.82253819  0.43531362  1  0  -0.135835  0  3.690571  0  0  -0.173323  0  3.945613  0  0  -0.175195  0  3.960748  0  0  -0.168646  -0.171868  0  3.935124  0
C  C99  1  0.07830074  0.17802804  0.06436909  1  0  -0.13564  0  3.687974  0  0  -0.173169  0  3.943741  0  0  -0.17505  0  3.958925  0  0  -0.168857  -0.17169  0  3.933178  0
C  C100  1  0.14264605  0.06523490  0.59781731  1  0  -0.094542  0  3.68873  0  0  -0.132936  0  3.948154  0  0  -0.134032  0  3.963768  0  0  -0.167067  -0.131984  0  3.937395  0
C  C101  1  0.08369558  0.93338908  0.90255114  1  0  -0.09319  0  3.686982  0  0  -0.131736  0  3.946309  0  0  -0.132845  0  3.961948  0  0  -0.167288  -0.13079  0  3.935416  0
C  C102  1  0.85733520  0.93477368  0.40217335  1  0  -0.094714  0  3.688827  0  0  -0.133038  0  3.948297  0  0  -0.13412  0  3.963909  0  0  -0.167121  -0.132097  0  3.937543  0
C  C103  1  0.91629111  0.06659149  0.09746500  1  0  -0.093497  0  3.68719  0  0  -0.132008  0  3.946655  0  0  -0.133131  0  3.962299  0  0  -0.167347  -0.131057  0  3.935765  0
C  C104  1  0.15526475  0.09674795  0.67138569  1  0  -0.139226  0  3.687621  0  0  -0.179052  0  3.945855  0  0  -0.180865  0  3.960787  0  0  -0.171355  -0.177709  0  3.935614  0
C  C105  1  0.06518024  0.90209929  0.82897573  1  0  -0.144185  0  3.689749  0  0  -0.182406  0  3.947428  0  0  -0.184207  0  3.962138  0  0  -0.17273  -0.180986  0  3.93717  0
C  C106  1  0.84474771  0.90327048  0.32860357  1  0  -0.138884  0  3.686916  0  0  -0.178993  0  3.945537  0  0  -0.180823  0  3.96049  0  0  -0.171316  -0.177637  0  3.935284  0
C  C107  1  0.93482131  0.09790094  0.17103664  1  0  -0.143558  0  3.689713  0  0  -0.181985  0  3.94751  0  0  -0.183785  0  3.96224  0  0  -0.172591  -0.180585  0  3.937291  0
C  C108  1  0.94322869  0.13309115  0.69550261  1  0  0.041486  0  3.671182  0  0  -0.017424  0  3.935321  0  0  -0.013703  0  3.949626  0  0  -0.076972  -0.019816  0  3.925309  0
C  C109  1  0.81669379  0.86812145  0.80484621  1  0  0.042884  0  3.671832  0  0  -0.016602  0  3.935891  0  0  -0.012837  0  3.950175  0  0  -0.076426  -0.018941  0  3.925834  0
C  C110  1  0.05676612  0.86691834  0.30449146  1  0  0.041339  0  3.671299  0  0  -0.017391  0  3.935394  0  0  -0.01368  0  3.949705  0  0  -0.076953  -0.019768  0  3.925395  0
C  C111  1  0.18328979  0.13187888  0.19516136  1  0  0.042706  0  3.672211  0  0  -0.016536  0  3.935985  0  0  -0.012802  0  3.950284  0  0  -0.076353  -0.018871  0  3.925936  0
C  C112  1  0.18907317  0.74235464  0.66625763  1  0  0.037981  0  3.676898  0  0  -0.020008  0  3.935968  0  0  -0.016263  0  3.9504  0  0  -0.079592  -0.022331  0  3.92577  0
C  C113  1  0.44004214  0.25789777  0.83363816  1  0  0.036835  0  3.675072  0  0  -0.020586  0  3.935303  0  0  -0.016816  0  3.949664  0  0  -0.079349  -0.022972  0  3.925175  0
C  C114  1  0.81097150  0.25765630  0.33375869  1  0  0.038414  0  3.676447  0  0  -0.019605  0  3.935527  0  0  -0.01584  0  3.949925  0  0  -0.079498  -0.021937  0  3.925351  0
C  C115  1  0.55996449  0.74209613  0.16635460  1  0  0.036516  0  3.675621  0  0  -0.020818  0  3.935748  0  0  -0.017042  0  3.950106  0  0  -0.079524  -0.023212  0  3.925628  0
C  C116  1  0.44530294  0.77821644  0.65382661  1  0  -0.132963  0  3.685946  0  0  -0.170605  0  3.944023  0  0  -0.172387  0  3.958502  0  0  -0.170151  -0.169229  0  3.93379  0
C  C117  1  0.65706036  0.21974382  0.84647814  1  0  -0.132322  0  3.687041  0  0  -0.171424  0  3.946248  0  0  -0.173159  0  3.96082  0  0  -0.169842  -0.170017  0  3.936175  0
C  C118  1  0.55474739  0.22176343  0.34618226  1  0  -0.132776  0  3.685933  0  0  -0.170765  0  3.944249  0  0  -0.172538  0  3.958694  0  0  -0.17032  -0.169385  0  3.934016  0
C  C119  1  0.34295246  0.78025587  0.15351782  1  0  -0.132277  0  3.687347  0  0  -0.171418  0  3.946476  0  0  -0.173156  0  3.961044  0  0  -0.16985  -0.170005  0  3.936396  0
C  C120  1  0.49035911  0.75925767  0.58147196  1  0  -0.09316  0  3.685309  0  0  -0.130348  0  3.942809  0  0  -0.131646  0  3.958843  0  0  -0.166939  -0.129302  0  3.931702  0
C  C121  1  0.72068914  0.23884847  0.91884308  1  0  -0.093589  0  3.685334  0  0  -0.129941  0  3.94189  0  0  -0.131258  0  3.957953  0  0  -0.167046  -0.128903  0  3.930757  0
C  C122  1  0.50965503  0.24073494  0.41853326  1  0  -0.093498  0  3.68568  0  0  -0.130623  0  3.94318  0  0  -0.131892  0  3.959179  0  0  -0.166947  -0.12958  0  3.932074  0
C  C123  1  0.27931554  0.76113838  0.08115798  1  0  -0.09334  0  3.685462  0  0  -0.129733  0  3.941982  0  0  -0.131053  0  3.958061  0  0  -0.16692  -0.128696  0  3.930848  0
C  C124  1  0.35717343  0.62161912  0.55270131  1  0  -0.137314  0  3.682923  0  0  -0.176073  0  3.939867  0  0  -0.178072  0  3.954813  0  0  -0.169642  -0.174489  0  3.929431  0
C  C125  1  0.73057952  0.37714405  0.94729075  1  0  -0.138274  0  3.687914  0  0  -0.176333  0  3.943717  0  0  -0.178283  0  3.958693  0  0  -0.169262  -0.174777  0  3.933331  0
C  C126  1  0.64279799  0.37839606  0.44729837  1  0  -0.136989  0  3.683443  0  0  -0.175731  0  3.940223  0  0  -0.177707  0  3.955177  0  0  -0.169582  -0.174172  0  3.929811  0
C  C127  1  0.26945222  0.62285086  0.05270206  1  0  -0.138274  0  3.687803  0  0  -0.176417  0  3.943831  0  0  -0.178368  0  3.958806  0  0  -0.169323  -0.17487  0  3.933446  0
C  C128  1  0.10416550  0.59176680  0.56916156  1  0  0.039532  0  3.678432  0  0  -0.019152  0  3.941953  0  0  -0.015153  0  3.955827  0  0  -0.076336  -0.021704  0  3.932178  0
C  C129  1  0.50959767  0.40848142  0.93079579  1  0  0.037845  0  3.680423  0  0  -0.019964  0  3.943437  0  0  -0.015866  0  3.957254  0  0  -0.07698  -0.022579  0  3.933797  0
C  C130  1  0.89579699  0.40826972  0.43084361  1  0  0.039086  0  3.679049  0  0  -0.019496  0  3.942377  0  0  -0.015535  0  3.956282  0  0  -0.076448  -0.02205  0  3.932606  0
C  C131  1  0.49044317  0.59152507  0.06920342  1  0  0.037448  0  3.680771  0  0  -0.020276  0  3.943752  0  0  -0.016183  0  3.957575  0  0  -0.077036  -0.022905  0  3.934124  0
N  N132  1  0.91388851  0.24299995  0.66255821  1  0  -0.407288  0  3.245116  0  0  -0.323247  0  3.498485  0  0  -0.342052  0  3.509774  0  0  -0.494925  -0.310231  0  3.490375  0
N  N133  1  0.67318942  0.75840889  0.83751845  1  0  -0.406596  0  3.246753  0  0  -0.321633  0  3.499591  0  0  -0.340551  0  3.51098  0  0  -0.493836  -0.308294  0  3.491123  0
N  N134  1  0.08609386  0.75699787  0.33743284  1  0  -0.407387  0  3.245298  0  0  -0.323537  0  3.498767  0  0  -0.342342  0  3.510054  0  0  -0.495044  -0.310512  0  3.490636  0
N  N135  1  0.32679191  0.24157396  0.16248480  1  0  -0.40661  0  3.247207  0  0  -0.321497  0  3.499928  0  0  -0.340442  0  3.511306  0  0  -0.493856  -0.308156  0  3.491475  0
N  N136  1  0.07872302  0.60772643  0.63939235  1  0  -0.40993  0  3.27954  0  0  -0.323248  0  3.527306  0  0  -0.342455  0  3.539314  0  0  -0.501889  -0.309771  0  3.518297  0
N  N137  1  0.46893224  0.39283349  0.86054078  1  0  -0.407678  0  3.274366  0  0  -0.322756  0  3.523327  0  0  -0.341989  0  3.535486  0  0  -0.501672  -0.309364  0  3.514548  0
N  N138  1  0.92129132  0.39230234  0.36061336  1  0  -0.410027  0  3.279583  0  0  -0.323381  0  3.52719  0  0  -0.3426  0  3.539223  0  0  -0.501815  -0.309891  0  3.518171  0
N  N139  1  0.53109811  0.60716519  0.13945753  1  0  -0.407534  0  3.274349  0  0  -0.322818  0  3.523476  0  0  -0.342054  0  3.535627  0  0  -0.50172  -0.309422  0  3.514697  0
Cl  Cl140  1  0.59265474  0.43775988  0.68681921  1  0  -0.606198  0  1.133823  0  0  -0.530412  0  1.476788  0  0  -0.547771  0  1.444371  0  0  -0.302101  -0.518396  0  1.499132  0
Cl  Cl141  1  0.15456429  0.56222813  0.81349642  1  0  -0.60631  0  1.134066  0  0  -0.530343  0  1.477082  0  0  -0.547663  0  1.44456  0  0  -0.302413  -0.518309  0  1.499627  0
Cl  Cl142  1  0.40734476  0.56224268  0.31317835  1  0  -0.606185  0  1.133708  0  0  -0.530436  0  1.476705  0  0  -0.547786  0  1.444273  0  0  -0.3021  -0.518418  0  1.499052  0
Cl  Cl143  1  0.84544039  0.43775873  0.18650416  1  0  -0.60637  0  1.134003  0  0  -0.530393  0  1.477023  0  0  -0.547706  0  1.444484  0  0  -0.302417  -0.51836  0  1.499563  0
