# generated using pymatgen
data_CuH11C15(N2O)2
_symmetry_space_group_name_H-M   'P 1'
_cell_length_a   9.25253855
_cell_length_b   12.13807226
_cell_length_c   14.74417464
_cell_angle_alpha   104.25712395
_cell_angle_beta   89.96141293
_cell_angle_gamma   112.37812954
_symmetry_Int_Tables_number   1
_chemical_formula_structural   CuH11C15(N2O)2
_chemical_formula_sum   'Cu4 H44 C60 N16 O8'
_cell_volume   1475.99892895
_cell_formula_units_Z   4
loop_
 _symmetry_equiv_pos_site_id
 _symmetry_equiv_pos_as_xyz
  1  'x, y, z'
loop_
 _atom_site_type_symbol
 _atom_site_label
 _atom_site_symmetry_multiplicity
 _atom_site_fract_x
 _atom_site_fract_y
 _atom_site_fract_z
 _atom_site_occupancy
 _atom_site_pbe_bader_charge
 _atom_site_pbe_bader_spin_density
 _atom_site_pbe_cm5_charge
 _atom_site_pbe_ddec_charge
 _atom_site_pbe_ddec_spin_density
 _atom_site_pbe_ddec_sum_bond_order
 _atom_site_pbe_magmom
Cu  Cu0  1  0.68065321  0.06846932  0.95439685  1  0.771199  0  0.582551  0.391266  0  2.416836  0
Cu  Cu1  1  0.61168525  0.93142300  0.54594950  1  0.770503  0  0.582426  0.391367  0  2.415683  0
Cu  Cu2  1  0.31935593  0.93153209  0.04560412  1  0.771068  0  0.582556  0.391191  0  2.416982  0
Cu  Cu3  1  0.38832895  0.06857552  0.45404057  1  0.770467  0  0.582447  0.391372  0  2.415687  0
H  H4  1  0.76885045  0.39694628  0.79994556  1  0.08965  0  0.104158  0.110419  0  1.035596  0
H  H5  1  0.37225162  0.60326562  0.69995606  1  0.08143  0  0.103983  0.110992  0  1.034539  0
H  H6  1  0.23115092  0.60304172  0.20004669  1  0.090067  0  0.104136  0.110416  0  1.035442  0
H  H7  1  0.62769782  0.39674395  0.30006050  1  0.081076  0  0.104028  0.111075  0  1.034341  0
H  H8  1  0.93726635  0.61006559  0.90097752  1  0.067456  0  0.103162  0.107061  0  1.005543  0
H  H9  1  0.32759557  0.39004285  0.59883668  1  0.070532  0  0.103044  0.106878  0  1.005467  0
H  H10  1  0.06272825  0.38990885  0.09901956  1  0.067572  0  0.103109  0.106917  0  1.005565  0
H  H11  1  0.67235637  0.60997603  0.40116926  1  0.070512  0  0.103124  0.106909  0  1.005345  0
H  H12  1  0.18560496  0.17804095  0.80463859  1  0.117425  0  0.112478  0.124356  0  1.002372  0
H  H13  1  0.00946894  0.82455255  0.69576660  1  0.111793  0  0.11276  0.124874  0  1.000886  0
H  H14  1  0.81440536  0.82194114  0.19535696  1  0.11774  0  0.112546  0.124462  0  1.00241  0
H  H15  1  0.99049674  0.17543541  0.30423787  1  0.112308  0  0.112799  0.124891  0  1.000776  0
H  H16  1  0.63565835  0.13552948  0.77507763  1  0.171196  0  0.123526  0.114978  0  1.00817  0
H  H17  1  0.49987665  0.86362648  0.72506932  1  0.155552  0  0.123434  0.114769  0  1.009033  0
H  H18  1  0.36435885  0.86447291  0.22492290  1  0.17109  0  0.123567  0.115092  0  1.008118  0
H  H19  1  0.50009791  0.13636623  0.27491118  1  0.155642  0  0.123415  0.114772  0  1.009314  0
H  H20  1  0.08289096  0.21229356  0.66058539  1  0.146338  0  0.108084  0.115717  0  1.017201  0
H  H21  1  0.87270076  0.78987800  0.83989900  1  0.113557  0  0.108648  0.116932  0  1.01654  0
H  H22  1  0.91711718  0.78769499  0.33941175  1  0.146813  0  0.108082  0.115749  0  1.017118  0
H  H23  1  0.12726696  0.21012053  0.16010263  1  0.113516  0  0.108709  0.117174  0  1.016605  0
H  H24  1  0.18278919  0.69728061  0.66609677  1  0.117904  0  0.104759  0.106436  0  1.019815  0
H  H25  1  0.48585031  0.30264341  0.83356687  1  0.091993  0  0.105074  0.107012  0  1.01837  0
H  H26  1  0.81722992  0.30271915  0.33392485  1  0.117936  0  0.104762  0.106388  0  1.020006  0
H  H27  1  0.51414793  0.69736209  0.16640657  1  0.091376  0  0.105041  0.106889  0  1.018358  0
H  H28  1  0.00729625  0.13011177  0.93018019  1  0.120382  0  0.12062  0.101867  0  0.984472  0
H  H29  1  0.87807843  0.87144566  0.57014225  1  0.124461  0  0.120287  0.100881  0  0.986362  0
H  H30  1  0.99270796  0.86987759  0.06981851  1  0.121052  0  0.120645  0.101906  0  0.98455  0
H  H31  1  0.12191400  0.12854610  0.42986179  1  0.124654  0  0.1203  0.100937  0  0.986349  0
H  H32  1  0.64676219  0.44984731  0.56870735  1  0.081148  0  0.102822  0.153153  0  0.991818  0
H  H33  1  0.19682382  0.55009798  0.93080104  1  0.07005  0  0.102773  0.153062  0  0.991993  0
H  H34  1  0.35327433  0.55016133  0.43129743  1  0.080913  0  0.102768  0.153022  0  0.991802  0
H  H35  1  0.80317964  0.44990075  0.06922169  1  0.069518  0  0.102778  0.153141  0  0.992052  0
H  H36  1  0.53609083  0.33147725  0.46680901  1  0.104123  0  0.107079  0.160014  0  1.007073  0
H  H37  1  0.20384767  0.66841096  0.03263886  1  0.096996  0  0.107195  0.16013  0  1.007098  0
H  H38  1  0.46394117  0.66853962  0.53318691  1  0.103892  0  0.107062  0.15999  0  1.006998  0
H  H39  1  0.79617106  0.33160534  0.96737595  1  0.096778  0  0.107196  0.160191  0  1.006997  0
H  H40  1  0.73925124  0.42230804  0.46498786  1  0.057728  0  0.096852  0.139403  0  1.024584  0
H  H41  1  0.31622373  0.57762887  0.03469243  1  0.054331  0  0.096408  0.138695  0  1.024595  0
H  H42  1  0.26079821  0.57770700  0.53501916  1  0.05773  0  0.096801  0.139137  0  1.024544  0
H  H43  1  0.68379179  0.42239185  0.96533773  1  0.05466  0  0.096436  0.138829  0  1.024525  0
H  H44  1  0.01714178  0.48257620  0.56399740  1  0.044763  0  0.099711  0.10001  0  1.036806  0
H  H45  1  0.53485709  0.51739508  0.93569965  1  0.044801  0  0.099589  0.100006  0  1.03668  0
H  H46  1  0.98289188  0.51742452  0.43601223  1  0.04464  0  0.099719  0.099919  0  1.036904  0
H  H47  1  0.46513217  0.48260545  0.06428888  1  0.04457  0  0.099577  0.099964  0  1.036769  0
C  C48  1  0.85290682  0.18025676  0.70969227  1  0.001772  0  -0.008143  -0.031354  0  4.056358  0
C  C49  1  0.67349005  0.82009958  0.79053314  1  0.006149  0  -0.007469  -0.029287  0  4.054113  0
C  C50  1  0.14709695  0.81973820  0.29030712  1  0.001782  0  -0.008071  -0.031249  0  4.05649  0
C  C51  1  0.32649979  0.17989130  0.20945846  1  0.006091  0  -0.007455  -0.029306  0  4.054191  0
C  C52  1  0.86081944  0.46269468  0.77151535  1  0.090621  0  -0.090737  -0.164296  0  3.981664  0
C  C53  1  0.39843443  0.53741625  0.72832050  1  0.049229  0  -0.090936  -0.165666  0  3.980631  0
C  C54  1  0.13917760  0.53729117  0.22849200  1  0.090792  0  -0.090874  -0.164582  0  3.98118  0
C  C55  1  0.60151279  0.46258667  0.27167338  1  0.050056  0  -0.091114  -0.165998  0  3.980961  0
C  C56  1  0.17509491  0.79309736  0.84904568  1  1.601619  0  0.176846  0.539029  0  4.291826  0
C  C57  1  0.38188887  0.20667547  0.65067960  1  1.597475  0  0.176424  0.538228  0  4.292583  0
C  C58  1  0.82490087  0.20688812  0.15096633  1  1.606691  0  0.17673  0.538976  0  4.291965  0
C  C59  1  0.61811291  0.79335445  0.34929439  1  1.599252  0  0.176868  0.538915  0  4.292218  0
C  C60  1  0.95377227  0.58052167  0.82703273  1  -0.079318  0  -0.085824  -0.086867  0  3.983504  0
C  C61  1  0.37361461  0.41956178  0.67277481  1  -0.048528  0  -0.085107  -0.085526  0  3.982582  0
C  C62  1  0.04621664  0.41945653  0.17297614  1  -0.079867  0  -0.085571  -0.086356  0  3.983184  0
C  C63  1  0.62635985  0.58046757  0.32721806  1  -0.048418  0  -0.085256  -0.085447  0  3.982284  0
C  C64  1  0.06616142  0.17310904  0.79684067  1  -0.033147  0  -0.082765  -0.114728  0  3.971541  0
C  C65  1  0.89449752  0.82867577  0.70347430  1  -0.015826  0  -0.082718  -0.114219  0  3.970184  0
C  C66  1  0.93384409  0.82687859  0.20315624  1  -0.033526  0  -0.082854  -0.114834  0  3.971635  0
C  C67  1  0.10548414  0.17132038  0.29652198  1  -0.017265  0  -0.082823  -0.114322  0  3.969983  0
C  C68  1  0.07002769  0.66493327  0.78904839  1  -0.015472  0  -0.016838  -0.028453  0  3.944146  0
C  C69  1  0.40540242  0.33505641  0.71069882  1  -0.035256  0  -0.017183  -0.02887  0  3.943703  0
C  C70  1  0.92996548  0.33504266  0.21096536  1  -0.01976  0  -0.016933  -0.028606  0  3.944406  0
C  C71  1  0.59456435  0.66497700  0.28929029  1  -0.035584  0  -0.017103  -0.029079  0  3.94392  0
C  C72  1  0.68706138  0.28368146  0.54108846  1  0.973073  0  0.229047  0.33678  0  3.925862  0
C  C73  1  0.40315457  0.71635800  0.95871369  1  0.937984  0  0.228976  0.336063  0  3.92679  0
C  C74  1  0.31296023  0.71632761  0.45891099  1  0.97247  0  0.228931  0.33654  0  3.926213  0
C  C75  1  0.59685178  0.28365516  0.04130510  1  0.937491  0  0.228874  0.335747  0  3.926412  0
C  C76  1  0.75916968  0.14830350  0.78132098  1  0.477448  0  0.044975  0.032688  0  3.903596  0
C  C77  1  0.61109106  0.85149516  0.71883568  1  0.481732  0  0.044649  0.032125  0  3.904931  0
C  C78  1  0.24084209  0.85169232  0.21867930  1  0.477533  0  0.044916  0.032515  0  3.903753  0
C  C79  1  0.38890701  0.14850136  0.28115594  1  0.481589  0  0.044589  0.032119  0  3.904941  0
C  C80  1  0.00900105  0.19188837  0.71682485  1  -0.074943  0  -0.068079  -0.072632  0  3.926204  0
C  C81  1  0.81865401  0.80960134  0.78352784  1  -0.033593  0  -0.069186  -0.075788  0  3.925265  0
C  C82  1  0.99100325  0.80810332  0.28316830  1  -0.0753  0  -0.068143  -0.072671  0  3.926367  0
C  C83  1  0.18132865  0.19039030  0.21646598  1  -0.033173  0  -0.069336  -0.076176  0  3.925682  0
C  C84  1  0.09151438  0.62964842  0.69383908  1  -0.063446  0  -0.087388  -0.098472  0  4.015927  0
C  C85  1  0.46220814  0.37031598  0.80586355  1  -0.02676  0  -0.087371  -0.098891  0  4.016802  0
C  C86  1  0.90849071  0.37034705  0.30617742  1  -0.063467  0  -0.087323  -0.098418  0  4.016066  0
C  C87  1  0.53780216  0.62969637  0.19411836  1  -0.026068  0  -0.0873  -0.098718  0  4.016585  0
C  C88  1  0.77928791  0.19750820  0.62902477  1  1.010195  0  0.233347  0.238594  0  3.970612  0
C  C89  1  0.58240979  0.80256980  0.87114699  1  0.982837  0  0.232094  0.23632  0  3.973636  0
C  C90  1  0.22072721  0.80249870  0.37097822  1  1.009571  0  0.23321  0.238306  0  3.970918  0
C  C91  1  0.41757258  0.19742558  0.12884707  1  0.983137  0  0.232216  0.236451  0  3.973468  0
C  C92  1  0.96751632  0.14436396  0.86607420  1  0.430979  0  0.040525  0.081456  0  3.917155  0
C  C93  1  0.82398730  0.85679781  0.63418296  1  0.422497  0  0.040566  0.081502  0  3.920896  0
C  C94  1  0.03249352  0.85563018  0.13392362  1  0.430044  0  0.04059  0.081458  0  3.917357  0
C  C95  1  0.17600264  0.14318678  0.36581660  1  0.422261  0  0.040632  0.08156  0  3.92044  0
C  C96  1  0.88451718  0.42937577  0.67682894  1  0.238544  0  0.088104  0.178986  0  4.02377  0
C  C97  1  0.45543689  0.57071384  0.82299766  1  0.226954  0  0.088433  0.180164  0  4.023113  0
C  C98  1  0.11548804  0.57061562  0.32317977  1  0.237694  0  0.088101  0.179103  0  4.023415  0
C  C99  1  0.54451514  0.42928572  0.17700286  1  0.227557  0  0.088692  0.180206  0  4.023584  0
C  C100  1  0.65103377  0.37745407  0.50843919  1  -0.064797  0  -0.228933  -0.463722  0  3.932323  0
C  C101  1  0.27311557  0.62250977  0.99113767  1  -0.042148  0  -0.228672  -0.462404  0  3.932545  0
C  C102  1  0.34900096  0.62255961  0.49156139  1  -0.064837  0  -0.228813  -0.463221  0  3.931893  0
C  C103  1  0.72690337  0.37750263  0.00887890  1  -0.041882  0  -0.22869  -0.462681  0  3.932473  0
C  C104  1  0.99966951  0.51232046  0.63770296  1  -0.044799  0  -0.095813  -0.174876  0  4.011435  0
C  C105  1  0.48773459  0.48768177  0.86201429  1  -0.0259  0  -0.095996  -0.175377  0  4.012481  0
C  C106  1  0.00033794  0.48766892  0.36230729  1  -0.044504  0  -0.095837  -0.174819  0  4.011559  0
C  C107  1  0.51225504  0.51231517  0.13797200  1  -0.02651  0  -0.096012  -0.175262  0  4.01249  0
N  N108  1  0.78963172  0.30969925  0.61828991  1  -1.271987  0  -0.21493  -0.116528  0  3.705247  0
N  N109  1  0.48015411  0.69036792  0.88162230  1  -1.24985  0  -0.21456  -0.116635  0  3.706355  0
N  N110  1  0.21038767  0.69030320  0.38170995  1  -1.270973  0  -0.214758  -0.11635  0  3.70518  0
N  N111  1  0.51982697  0.30963573  0.11838601  1  -1.249851  0  -0.214622  -0.11619  0  3.705885  0
N  N112  1  0.67888883  0.10815857  0.56056774  1  -0.755769  0  -0.269234  -0.193897  0  3.621234  0
N  N113  1  0.57104292  0.89186561  0.93962432  1  -0.733453  0  -0.26969  -0.193406  0  3.621901  0
N  N114  1  0.32112716  0.89185223  0.43943350  1  -0.756071  0  -0.269268  -0.193845  0  3.621305  0
N  N115  1  0.42895544  0.10813151  0.06037152  1  -0.733517  0  -0.269664  -0.193493  0  3.622066  0
N  N116  1  0.81509147  0.13044848  0.85854568  1  -1.215126  0  -0.365168  -0.221396  0  3.694422  0
N  N117  1  0.68488171  0.86979606  0.64164864  1  -1.220999  0  -0.365255  -0.22011  0  3.695098  0
N  N118  1  0.18491083  0.86954354  0.14145502  1  -1.214747  0  -0.36517  -0.221289  0  3.69456  0
N  N119  1  0.31511450  0.13018809  0.35834471  1  -1.220423  0  -0.36523  -0.2201  0  3.694909  0
N  N120  1  0.61872587  0.16193438  0.50603558  1  -0.735113  0  -0.263502  -0.215963  0  3.458143  0
N  N121  1  0.45662349  0.83806555  0.99391488  1  -0.705033  0  -0.263509  -0.215617  0  3.457408  0
N  N122  1  0.38129634  0.83808022  0.49396522  1  -0.734084  0  -0.263517  -0.21592  0  3.458249  0
N  N123  1  0.54338678  0.16194245  0.00609789  1  -0.704508  0  -0.263498  -0.215556  0  3.457221  0
O  O124  1  0.13532216  0.82370188  0.93214668  1  -1.189457  0  -0.360627  -0.590342  0  2.32585  0
O  O125  1  0.31158666  0.17623063  0.56762519  1  -1.185652  0  -0.361005  -0.590031  0  2.323286  0
O  O126  1  0.86467623  0.17627584  0.06786819  1  -1.189375  0  -0.360669  -0.590441  0  2.325826  0
O  O127  1  0.68842418  0.82380444  0.43234326  1  -1.187147  0  -0.361302  -0.590369  0  2.323294  0
O  O128  1  0.29094760  0.85500143  0.81326834  1  -1.169897  0  -0.339523  -0.558586  0  2.12004  0
O  O129  1  0.43534483  0.14450182  0.68643830  1  -1.168051  0  -0.339219  -0.558252  0  2.122103  0
O  O130  1  0.70904127  0.14499185  0.18674016  1  -1.170363  0  -0.339347  -0.5584  0  2.12007  0
O  O131  1  0.56467092  0.85552793  0.31352613  1  -1.168486  0  -0.339427  -0.558553  0  2.121707  0
