# generated using pymatgen
data_NaH7C6(N3O4)2
_symmetry_space_group_name_H-M   'P 1'
_cell_length_a   6.55325550
_cell_length_b   12.93309598
_cell_length_c   13.08700000
_cell_angle_alpha   90.00000000
_cell_angle_beta   90.53895897
_cell_angle_gamma   90.00000000
_symmetry_Int_Tables_number   1
_chemical_formula_structural   NaH7C6(N3O4)2
_chemical_formula_sum   'Na4 H28 C24 N24 O32'
_cell_volume   1109.12498651
_cell_formula_units_Z   4
loop_
 _symmetry_equiv_pos_site_id
 _symmetry_equiv_pos_as_xyz
  1  'x, y, z'
loop_
 _atom_site_type_symbol
 _atom_site_label
 _atom_site_symmetry_multiplicity
 _atom_site_fract_x
 _atom_site_fract_y
 _atom_site_fract_z
 _atom_site_occupancy
 _atom_site_hle17_bader_spin_density
 _atom_site_hle17_ddec_charge
 _atom_site_hle17_ddec_spin_density
 _atom_site_hle17_ddec_sum_bond_order
 _atom_site_hle17_magmom
 _atom_site_hse06_10hf_bader_spin_density
 _atom_site_hse06_10hf_ddec_charge
 _atom_site_hse06_10hf_ddec_spin_density
 _atom_site_hse06_10hf_ddec_sum_bond_order
 _atom_site_hse06_10hf_magmom
 _atom_site_hse06_bader_spin_density
 _atom_site_hse06_ddec_charge
 _atom_site_hse06_ddec_spin_density
 _atom_site_hse06_ddec_sum_bond_order
 _atom_site_hse06_magmom
 _atom_site_pbe_bader_charge
 _atom_site_pbe_bader_spin_density
 _atom_site_pbe_cm5_charge
 _atom_site_pbe_ddec_charge
 _atom_site_pbe_ddec_spin_density
 _atom_site_pbe_ddec_sum_bond_order
 _atom_site_pbe_magmom
Na  Na0  1  0.73169772  0.87189409  0.06189303  1  0  0.904938  0  0.341287  0  0  0.8562  0  0.492907  0  0  0.867069  0  0.47147  0  0.891693  0  0.66461  0.848308  0  0.508123  0
Na  Na1  1  0.76830558  0.37189239  0.93810733  1  0  0.904854  0  0.341412  0  0  0.856199  0  0.492941  0  0  0.867075  0  0.471498  0  0.891703  0  0.664608  0.848308  0  0.508156  0
Na  Na2  1  0.26831058  0.12811395  0.93810495  1  0  0.904867  0  0.341364  0  0  0.856213  0  0.492889  0  0  0.867108  0  0.471426  0  0.891703  0  0.664612  0.848326  0  0.508104  0
Na  Na3  1  0.23169510  0.62811256  0.06189443  1  0  0.904942  0  0.341287  0  0  0.856191  0  0.492919  0  0  0.867077  0  0.471468  0  0.891717  0  0.664609  0.848303  0  0.508134  0
H  H4  1  0.86386079  0.04765216  0.94012004  1  0  0.27943  0  0.95813  0  0  0.266723  0  1.028518  0  0  0.274369  0  1.021532  0  0.431644  0  0.282547  0.261386  0  1.033473  0
H  H5  1  0.63615014  0.54765464  0.05987883  1  0  0.279522  0  0.958006  0  0  0.266785  0  1.02844  0  0  0.274431  0  1.021452  0  0.431636  0  0.282621  0.261447  0  1.033396  0
H  H6  1  0.13614599  0.95234969  0.05987564  1  0  0.279502  0  0.958033  0  0  0.266781  0  1.028436  0  0  0.274429  0  1.021446  0  0.431721  0  0.282587  0.261444  0  1.03339  0
H  H7  1  0.36384595  0.45235186  0.94011909  1  0  0.279327  0  0.958226  0  0  0.266629  0  1.028602  0  0  0.274278  0  1.021613  0  0.431684  0  0.282576  0.261293  0  1.033552  0
H  H8  1  0.50204903  0.93774994  0.92515762  1  0  0.401165  0  0.882507  0  0  0.377764  0  0.953166  0  0  0.385156  0  0.945043  0  0.614834  0  0.297495  0.37247  0  0.959021  0
H  H9  1  0.99796038  0.43775056  0.07484429  1  0  0.401205  0  0.882448  0  0  0.377802  0  0.953127  0  0  0.385194  0  0.945003  0  0.614736  0  0.297515  0.372508  0  0.958981  0
H  H10  1  0.49795470  0.06225192  0.07484262  1  0  0.401185  0  0.882484  0  0  0.377802  0  0.953143  0  0  0.385194  0  0.945021  0  0.614858  0  0.297534  0.372509  0  0.958996  0
H  H11  1  0.00204945  0.56225130  0.92515827  1  0  0.401183  0  0.882483  0  0  0.377808  0  0.953127  0  0  0.385199  0  0.945005  0  0.614851  0  0.297517  0.372514  0  0.958984  0
H  H12  1  0.36778921  0.83882545  0.94059919  1  0  0.405098  0  0.909768  0  0  0.368766  0  0.983972  0  0  0.380467  0  0.96655  0  0.650557  0  0.289504  0.360536  0  0.996197  0
H  H13  1  0.13221953  0.33882452  0.05939867  1  0  0.405121  0  0.909716  0  0  0.368815  0  0.983874  0  0  0.380516  0  0.966453  0  0.650546  0  0.289544  0.360587  0  0.996098  0
H  H14  1  0.63221910  0.16117409  0.05939878  1  0  0.405147  0  0.909682  0  0  0.368836  0  0.983846  0  0  0.380537  0  0.966424  0  0.650553  0  0.289547  0.360608  0  0.996069  0
H  H15  1  0.86778725  0.66117579  0.94060159  1  0  0.405093  0  0.909764  0  0  0.368779  0  0.983932  0  0  0.380479  0  0.966511  0  0.650564  0  0.289519  0.36055  0  0.996156  0
H  H16  1  0.79100217  0.72954457  0.62052187  1  0  0.347911  0  0.923574  0  0  0.324208  0  0.99116  0  0  0.333292  0  0.982881  0  0.532998  0  0.31116  0.317874  0  0.996905  0
H  H17  1  0.70899655  0.22953978  0.37947694  1  0  0.347904  0  0.923604  0  0  0.324188  0  0.991197  0  0  0.333269  0  0.98293  0  0.532956  0  0.311134  0.317858  0  0.996927  0
H  H18  1  0.20899240  0.27045032  0.37947069  1  0  0.347921  0  0.923559  0  0  0.324219  0  0.99115  0  0  0.333301  0  0.982872  0  0.53251  0  0.311166  0.317886  0  0.996889  0
H  H19  1  0.29100870  0.77045821  0.62052714  1  0  0.347946  0  0.923433  0  0  0.324238  0  0.991044  0  0  0.333323  0  0.982763  0  0.532475  0  0.311152  0.317905  0  0.996784  0
H  H20  1  0.74044796  0.80484441  0.50835741  1  0  0.343411  0  0.920928  0  0  0.312242  0  1.004834  0  0  0.322125  0  0.995178  0  0.573545  0  0.30759  0.305326  0  1.011582  0
H  H21  1  0.75954771  0.30483962  0.49163986  1  0  0.343406  0  0.920953  0  0  0.31224  0  1.004847  0  0  0.322122  0  0.995192  0  0.573574  0  0.307596  0.305324  0  1.011593  0
H  H22  1  0.25955119  0.19514662  0.49164205  1  0  0.343397  0  0.920959  0  0  0.312214  0  1.004875  0  0  0.322094  0  0.995226  0  0.573626  0  0.307573  0.305297  0  1.01162  0
H  H23  1  0.24045296  0.69515683  0.50835503  1  0  0.343374  0  0.920988  0  0  0.312186  0  1.004905  0  0  0.322065  0  0.995258  0  0.573595  0  0.307569  0.305269  0  1.011653  0
H  H24  1  0.68516612  0.94971382  0.28994389  1  0  0.415575  0  0.886898  0  0  0.378131  0  0.963224  0  0  0.389289  0  0.94668  0  0.613764  0  0.281439  0.370249  0  0.974884  0
H  H25  1  0.81483566  0.44971057  0.71005799  1  0  0.415678  0  0.886763  0  0  0.378284  0  0.963033  0  0  0.38944  0  0.946492  0  0.613817  0  0.281493  0.370395  0  0.974705  0
H  H26  1  0.31483761  0.05028958  0.71005559  1  0  0.415741  0  0.886685  0  0  0.378339  0  0.962965  0  0  0.389495  0  0.946424  0  0.613685  0  0.281524  0.370451  0  0.974637  0
H  H27  1  0.18516044  0.55028974  0.28994299  1  0  0.41568  0  0.886754  0  0  0.378262  0  0.963091  0  0  0.389422  0  0.946544  0  0.613704  0  0.281486  0.37037  0  0.974768  0
H  H28  1  0.69668762  0.04605316  0.21997676  1  0  0.414076  0  0.878364  0  0  0.386008  0  0.943778  0  0  0.395438  0  0.929681  0  0.653016  0  0.29032  0.379287  0  0.953833  0
H  H29  1  0.80331415  0.54605023  0.78002435  1  0  0.414099  0  0.878343  0  0  0.386031  0  0.943754  0  0  0.395463  0  0.929657  0  0.653037  0  0.290331  0.379312  0  0.953809  0
H  H30  1  0.30331611  0.95395256  0.78002501  1  0  0.414112  0  0.878324  0  0  0.38605  0  0.943727  0  0  0.395482  0  0.929628  0  0.653077  0  0.290359  0.379331  0  0.95378  0
H  H31  1  0.19668499  0.45395008  0.21997664  1  0  0.41407  0  0.878352  0  0  0.386008  0  0.943778  0  0  0.395438  0  0.929684  0  0.653039  0  0.290335  0.37929  0  0.953831  0
C  C32  1  0.83630075  0.97198768  0.81436021  1  0  0.281064  0  3.855858  0  0  0.269905  0  4.122855  0  0  0.284218  0  4.134368  0  0.805276  0  0.140945  0.260083  0  4.115292  0
C  C33  1  0.66370103  0.47198753  0.18564014  1  0  0.281275  0  3.855873  0  0  0.269915  0  4.122894  0  0  0.284213  0  4.13443  0  0.805713  0  0.140924  0.260089  0  4.11533  0
C  C34  1  0.16369993  0.02801495  0.18563696  1  0  0.281168  0  3.855861  0  0  0.26993  0  4.122774  0  0  0.284237  0  4.134289  0  0.805678  0  0.140944  0.260108  0  4.115209  0
C  C35  1  0.33630422  0.52801356  0.81435706  1  0  0.281112  0  3.85572  0  0  0.269975  0  4.122745  0  0  0.284281  0  4.134264  0  0.805085  0  0.140966  0.260153  0  4.115184  0
C  C36  1  0.81402991  0.87955583  0.75060742  1  0  -0.137367  0  3.496438  0  0  -0.157711  0  3.771883  0  0  -0.173701  0  3.791555  0  0.356579  0  0.070101  -0.147479  0  3.758912  0
C  C37  1  0.68596881  0.37955490  0.24939598  1  0  -0.137515  0  3.496266  0  0  -0.157846  0  3.771874  0  0  -0.173841  0  3.791544  0  0.356674  0  0.070051  -0.147607  0  3.75889  0
C  C38  1  0.18596771  0.12044371  0.24939357  1  0  -0.137179  0  3.496284  0  0  -0.157666  0  3.771995  0  0  -0.173657  0  3.79167  0  0.356555  0  0.070104  -0.147426  0  3.759012  0
C  C39  1  0.31401813  0.62044463  0.75060419  1  0  -0.137259  0  3.496512  0  0  -0.157771  0  3.772152  0  0  -0.173761  0  3.791827  0  0.356726  0  0.070101  -0.147539  0  3.759182  0
C  C40  1  0.78690021  0.88453067  0.63963910  1  0  0.328301  0  3.739472  0  0  0.299611  0  4.014716  0  0  0.322493  0  4.025609  0  0.650246  0  0.152591  0.284564  0  4.007054  0
C  C41  1  0.71308936  0.38452587  0.36036502  1  0  0.328735  0  3.73907  0  0  0.299849  0  4.014529  0  0  0.322755  0  4.02538  0  0.650268  0  0.15277  0.284804  0  4.006858  0
C  C42  1  0.21309589  0.11546655  0.36035958  1  0  0.328353  0  3.739383  0  0  0.299539  0  4.014867  0  0  0.322423  0  4.02576  0  0.6503  0  0.152582  0.284492  0  4.007196  0
C  C43  1  0.28689453  0.61546748  0.63963819  1  0  0.328307  0  3.739484  0  0  0.299669  0  4.014723  0  0  0.322553  0  4.025611  0  0.65018  0  0.152615  0.28462  0  4.007066  0
C  C44  1  0.77227477  0.98364073  0.58851267  1  0  -0.11661  0  3.609102  0  0  -0.137692  0  3.884879  0  0  -0.152283  0  3.904531  0  0.439531  0  0.064718  -0.128405  0  3.871912  0
C  C45  1  0.72770564  0.48363826  0.41149064  1  0  -0.116638  0  3.608996  0  0  -0.137692  0  3.884834  0  0  -0.152288  0  3.904478  0  0.439456  0  0.064646  -0.128408  0  3.871864  0
C  C46  1  0.22771522  0.01635339  0.41148904  1  0  -0.116522  0  3.609205  0  0  -0.137596  0  3.885022  0  0  -0.152186  0  3.904676  0  0.43953  0  0.064785  -0.12831  0  3.872051  0
C  C47  1  0.27226604  0.51635587  0.58851175  1  0  -0.116589  0  3.609158  0  0  -0.137654  0  3.884923  0  0  -0.152247  0  3.904575  0  0.439623  0  0.064724  -0.128369  0  3.871961  0
C  C48  1  0.80536819  0.07586583  0.64686753  1  0  0.124551  0  3.87089  0  0  0.103305  0  4.161306  0  0  0.113656  0  4.174797  0  0.531972  0  0.111985  0.096447  0  4.152319  0
C  C49  1  0.69462138  0.57586366  0.35314041  1  0  0.124722  0  3.870953  0  0  0.103301  0  4.161233  0  0  0.113652  0  4.174723  0  0.531968  0  0.111907  0.096442  0  4.152247  0
C  C50  1  0.19462181  0.92413681  0.35312884  1  0  0.124537  0  3.871263  0  0  0.103164  0  4.161518  0  0  0.11351  0  4.175007  0  0.531892  0  0.111919  0.096309  0  4.152529  0
C  C51  1  0.30537319  0.42413588  0.64686591  1  0  0.124414  0  3.870952  0  0  0.103126  0  4.161391  0  0  0.113478  0  4.174882  0  0.531838  0  0.111884  0.09627  0  4.152402  0
C  C52  1  0.84125575  0.06696154  0.75394724  1  0  -0.009435  0  3.698551  0  0  -0.036894  0  3.954815  0  0  -0.034221  0  3.963519  0  0.441154  0  0.121615  -0.0386  0  3.949078  0
C  C53  1  0.65875365  0.56696015  0.24605697  1  0  -0.010793  0  3.699076  0  0  -0.036987  0  3.954693  0  0  -0.03431  0  3.963403  0  0.440747  0  0.121638  -0.038697  0  3.94897  0
C  C54  1  0.15874645  0.93304032  0.24604994  1  0  -0.010669  0  3.699283  0  0  -0.036872  0  3.954943  0  0  -0.034188  0  3.963641  0  0.440721  0  0.121655  -0.038581  0  3.949209  0
C  C55  1  0.34125465  0.43304171  0.75394559  1  0  -0.009533  0  3.698748  0  0  -0.036944  0  3.954938  0  0  -0.034263  0  3.963636  0  0.441592  0  0.121599  -0.038651  0  3.949207  0
N  N56  1  0.81412911  0.17436506  0.61727939  1  0  -0.113943  0  2.713147  0  0  -0.127443  0  3.019354  0  0  -0.128352  0  3.022646  0  -0.419137  0  -0.18347  -0.126897  0  3.017316  0
N  N57  1  0.68586046  0.67436366  0.38272014  1  0  -0.113612  0  2.713257  0  0  -0.127337  0  3.019365  0  0  -0.128242  0  3.022656  0  -0.419055  0  -0.183399  -0.126795  0  3.017325  0
N  N58  1  0.18587310  0.82563680  0.38271627  1  0  -0.113621  0  2.713321  0  0  -0.127359  0  3.019397  0  0  -0.128257  0  3.022687  0  -0.418996  0  -0.183423  -0.126815  0  3.01736  0
N  N59  1  0.31412953  0.32563433  0.61728080  1  0  -0.113805  0  2.712974  0  0  -0.127295  0  3.019156  0  0  -0.128206  0  3.022453  0  -0.419064  0  -0.183376  -0.126744  0  3.017118  0
N  N60  1  0.85234386  0.97324338  0.91342944  1  0  -0.617479  0  2.843969  0  0  -0.612095  0  3.10696  0  0  -0.622942  0  3.104223  0  -1.188698  0  -0.551199  -0.60454  0  3.109093  0
N  N61  1  0.64766707  0.47324554  0.08656790  1  0  -0.617505  0  2.843854  0  0  -0.612152  0  3.106934  0  0  -0.622992  0  3.104203  0  -1.188672  0  -0.551261  -0.604595  0  3.109068  0
N  N62  1  0.14767207  0.02675616  0.08656552  1  0  -0.617538  0  2.843841  0  0  -0.612211  0  3.106846  0  0  -0.623059  0  3.104111  0  -1.188849  0  -0.551266  -0.604658  0  3.108979  0
N  N63  1  0.35234429  0.52676018  0.91342856  1  0  -0.617347  0  2.843834  0  0  -0.611969  0  3.106833  0  0  -0.622811  0  3.104099  0  -1.188484  0  -0.551209  -0.604417  0  3.108964  0
N  N64  1  0.87673130  0.16112306  0.79008286  1  0  0.316889  0  3.731312  0  0  0.360772  0  4.004749  0  0  0.374637  0  4.01873  0  -0.047851  0  -0.014264  0.351039  0  3.995527  0
N  N65  1  0.62327201  0.66112322  0.20991597  1  0  0.319082  0  3.730802  0  0  0.360732  0  4.004706  0  0  0.3746  0  4.018685  0  -0.047774  0  -0.014288  0.350996  0  3.995484  0
N  N66  1  0.12327396  0.83888112  0.20991434  1  0  0.319345  0  3.73047  0  0  0.360789  0  4.004645  0  0  0.374656  0  4.018623  0  -0.047831  0  -0.014335  0.351057  0  3.995425  0
N  N67  1  0.37673325  0.33888328  0.79008199  1  0  0.316962  0  3.73125  0  0  0.36086  0  4.004642  0  0  0.374728  0  4.018615  0  -0.048392  0  -0.014193  0.35113  0  3.995421  0
N  N68  1  0.81328521  0.78345819  0.79938667  1  0  0.523462  0  3.866658  0  0  0.542453  0  4.168315  0  0  0.564491  0  4.181278  0  0.211307  0  0.021795  0.527907  0  4.159358  0
N  N69  1  0.68671504  0.28345649  0.20061062  1  0  0.523512  0  3.866456  0  0  0.542473  0  4.168162  0  0  0.564511  0  4.181127  0  0.211461  0  0.021826  0.527928  0  4.159202  0
N  N70  1  0.18672309  0.21654212  0.20061131  1  0  0.523421  0  3.866577  0  0  0.542452  0  4.16826  0  0  0.564488  0  4.181225  0  0.211451  0  0.021773  0.527904  0  4.159304  0
N  N71  1  0.31328106  0.71654150  0.79938577  1  0  0.523381  0  3.866569  0  0  0.54242  0  4.168239  0  0  0.564457  0  4.181203  0  0.211253  0  0.021787  0.527873  0  4.159282  0
N  N72  1  0.77054578  0.79904147  0.58503849  1  0  -0.550829  0  3.168031  0  0  -0.522494  0  3.417892  0  0  -0.541349  0  3.414021  0  -1.290952  0  -0.542853  -0.509848  0  3.420472  0
N  N73  1  0.72946362  0.29903667  0.41496113  1  0  -0.551005  0  3.167973  0  0  -0.522598  0  3.417938  0  0  -0.541463  0  3.414057  0  -1.291035  0  -0.542913  -0.509945  0  3.420511  0
N  N74  1  0.22945336  0.20095730  0.41496097  1  0  -0.55085  0  3.168074  0  0  -0.522404  0  3.417929  0  0  -0.541264  0  3.414066  0  -1.290421  0  -0.542834  -0.509751  0  3.420501  0
N  N75  1  0.27054774  0.70095900  0.58503686  1  0  -0.550818  0  3.167845  0  0  -0.522435  0  3.417662  0  0  -0.541288  0  3.413792  0  -1.290346  0  -0.542825  -0.509788  0  3.420241  0
N  N76  1  0.73999931  0.99350380  0.48377900  1  0  0.498751  0  3.922953  0  0  0.518287  0  4.227283  0  0  0.539548  0  4.241296  0  0.186175  0  0.015298  0.504154  0  4.2177  0
N  N77  1  0.75998568  0.49349978  0.51622509  1  0  0.49845  0  3.923369  0  0  0.517991  0  4.227689  0  0  0.539253  0  4.241711  0  0.185536  0  0.015112  0.503865  0  4.218105  0
N  N78  1  0.25999984  0.00649033  0.51622122  1  0  0.498658  0  3.92288  0  0  0.518166  0  4.227235  0  0  0.539421  0  4.241251  0  0.186183  0  0.01519  0.504038  0  4.217651  0
N  N79  1  0.23998905  0.50649589  0.48377655  1  0  0.498603  0  3.923049  0  0  0.518114  0  4.227409  0  0  0.539375  0  4.241422  0  0.186235  0  0.015131  0.50398  0  4.217829  0
O  O80  1  0.78518343  0.77778670  0.89483465  1  0  -0.453082  0  1.867283  0  0  -0.419614  0  2.098719  0  0  -0.433999  0  2.092078  0  -0.555424  0  -0.179634  -0.409602  0  2.10322  0
O  O81  1  0.71482445  0.27779041  0.10515885  1  0  -0.453199  0  1.867268  0  0  -0.419679  0  2.098622  0  0  -0.434062  0  2.091977  0  -0.555568  0  -0.179724  -0.409668  0  2.103125  0
O  O82  1  0.21481877  0.22220975  0.10516101  1  0  -0.453119  0  1.86733  0  0  -0.419606  0  2.098625  0  0  -0.433993  0  2.091986  0  -0.555533  0  -0.179665  -0.409597  0  2.10313  0
O  O83  1  0.28518691  0.72221609  0.89483761  1  0  -0.453154  0  1.86725  0  0  -0.419628  0  2.098608  0  0  -0.434009  0  2.091963  0  -0.555467  0  -0.179664  -0.409614  0  2.103109  0
O  O84  1  0.42299932  0.90067452  0.97629059  1  0  -0.865497  0  1.842455  0  0  -0.817744  0  2.028669  0  0  -0.834951  0  2.001823  0  -1.284838  0  -0.656707  -0.805262  0  2.047333  0
O  O85  1  0.07700636  0.40067514  0.02370879  1  0  -0.865592  0  1.842485  0  0  -0.817829  0  2.028603  0  0  -0.835038  0  2.001766  0  -1.284704  0  -0.656756  -0.805344  0  2.047269  0
O  O86  1  0.57700593  0.09932502  0.02370814  1  0  -0.865586  0  1.842502  0  0  -0.81785  0  2.028581  0  0  -0.835069  0  2.001753  0  -1.28484  0  -0.656787  -0.805367  0  2.047247  0
O  O87  1  0.92299890  0.59932595  0.97629223  1  0  -0.865521  0  1.842531  0  0  -0.817797  0  2.028647  0  0  -0.835023  0  2.001849  0  -1.284851  0  -0.656737  -0.805313  0  2.047314  0
O  O88  1  0.68408112  0.97056498  0.21713523  1  0  -0.8812  0  1.767033  0  0  -0.840872  0  1.9424  0  0  -0.857017  0  1.911482  0  -1.289724  0  -0.650898  -0.829242  0  1.964179  0
O  O89  1  0.81592829  0.47056250  0.78286745  1  0  -0.881374  0  1.766929  0  0  -0.841029  0  1.942105  0  0  -0.857177  0  1.911188  0  -1.289755  0  -0.650938  -0.829398  0  1.96389  0
O  O90  1  0.31592261  0.02943997  0.78286501  1  0  -0.881439  0  1.76688  0  0  -0.841099  0  1.942062  0  0  -0.857251  0  1.91114  0  -1.289763  0  -0.651001  -0.829472  0  1.963851  0
O  O91  1  0.18407391  0.52943858  0.21713432  1  0  -0.881294  0  1.766897  0  0  -0.841032  0  1.942105  0  0  -0.857181  0  1.911192  0  -1.289747  0  -0.650961  -0.829397  0  1.963895  0
O  O92  1  0.84121913  0.69972650  0.74984605  1  0  -0.457313  0  1.81606  0  0  -0.422369  0  2.039963  0  0  -0.439202  0  2.037221  0  -0.570925  0  -0.167439  -0.410945  0  2.042005  0
O  O93  1  0.65878265  0.19972325  0.25015583  1  0  -0.457338  0  1.816022  0  0  -0.422337  0  2.039867  0  0  -0.439178  0  2.037132  0  -0.570986  0  -0.167426  -0.410916  0  2.041917  0
O  O94  1  0.15878155  0.30027381  0.25015189  1  0  -0.457299  0  1.816037  0  0  -0.422367  0  2.039927  0  0  -0.439192  0  2.037178  0  -0.57096  0  -0.167394  -0.410939  0  2.041969  0
O  O95  1  0.34122261  0.80027628  0.74984595  1  0  -0.457314  0  1.816044  0  0  -0.422368  0  2.039913  0  0  -0.439214  0  2.037178  0  -0.570998  0  -0.167439  -0.410943  0  2.041958  0
O  O96  1  0.70759719  0.91435647  0.42679670  1  0  -0.457436  0  1.822638  0  0  -0.425359  0  2.050814  0  0  -0.442573  0  2.047361  0  -0.568557  0  -0.171301  -0.413318  0  2.05289  0
O  O97  1  0.79240306  0.41436018  0.57320976  1  0  -0.457379  0  1.822781  0  0  -0.425363  0  2.051067  0  0  -0.442547  0  2.047549  0  -0.568016  0  -0.17128  -0.413322  0  2.053138  0
O  O98  1  0.29240196  0.08563533  0.57320505  1  0  -0.457494  0  1.822598  0  0  -0.425447  0  2.050818  0  0  -0.442642  0  2.047347  0  -0.568432  0  -0.171363  -0.413404  0  2.052891  0
O  O99  1  0.20759609  0.58564477  0.42679964  1  0  -0.457358  0  1.822707  0  0  -0.425213  0  2.050848  0  0  -0.442437  0  2.047423  0  -0.568525  0  -0.171191  -0.413167  0  2.052924  0
O  O100  1  0.74305594  0.08235074  0.44511226  1  0  -0.411247  0  1.804238  0  0  -0.386606  0  2.038054  0  0  -0.400616  0  2.036525  0  -0.524722  0  -0.161226  -0.376614  0  2.038802  0
O  O101  1  0.75691684  0.58234316  0.55489559  1  0  -0.411036  0  1.804462  0  0  -0.386404  0  2.038278  0  0  -0.400419  0  2.036756  0  -0.524633  0  -0.161078  -0.376366  0  2.03891  0
O  O102  1  0.25694321  0.91764648  0.55489637  1  0  -0.411176  0  1.804242  0  0  -0.386485  0  2.038011  0  0  -0.4005  0  2.036489  0  -0.524822  0  -0.161094  -0.376466  0  2.038694  0
O  O103  1  0.24305026  0.41764555  0.44511365  1  0  -0.411198  0  1.804243  0  0  -0.386567  0  2.038065  0  0  -0.400576  0  2.036538  0  -0.524783  0  -0.161159  -0.376577  0  2.038819  0
O  O104  1  0.85917436  0.23172951  0.70318958  1  0  -0.074895  0  2.088454  0  0  -0.033566  0  2.326936  0  0  -0.042398  0  2.328018  0  -0.299288  0  0.049574  -0.027826  0  2.326314  0
O  O105  1  0.64083199  0.73172503  0.29681461  1  0  -0.075623  0  2.088677  0  0  -0.033576  0  2.327038  0  0  -0.042413  0  2.328127  0  -0.29935  0  0.049562  -0.027832  0  2.326414  0
O  O106  1  0.14083242  0.76827312  0.29680838  1  0  -0.075763  0  2.088795  0  0  -0.033648  0  2.327186  0  0  -0.042486  0  2.328277  0  -0.299221  0  0.049516  -0.02791  0  2.326567  0
O  O107  1  0.35917173  0.26827219  0.70319328  1  0  -0.074962  0  2.088516  0  0  -0.03364  0  2.326995  0  0  -0.042468  0  2.328078  0  -0.299249  0  0.049493  -0.027905  0  2.326377  0
O  O108  1  0.92461801  0.19827503  0.87528435  1  0  -0.43797  0  1.822545  0  0  -0.423899  0  2.040184  0  0  -0.442624  0  2.037397  0  -0.544235  0  -0.194282  -0.411062  0  2.042094  0
O  O109  1  0.57538224  0.69827364  0.12471600  1  0  -0.439277  0  1.822747  0  0  -0.423848  0  2.040238  0  0  -0.442568  0  2.037448  0  -0.54421  0  -0.194235  -0.411008  0  2.042144  0
O  O110  1  0.07538266  0.80172451  0.12470901  1  0  -0.439346  0  1.822254  0  0  -0.423856  0  2.039847  0  0  -0.442593  0  2.037072  0  -0.544377  0  -0.194214  -0.411021  0  2.041762  0
O  O111  1  0.42461691  0.30173286  0.87529187  1  0  -0.437997  0  1.82235  0  0  -0.423925  0  2.039962  0  0  -0.442682  0  2.037204  0  -0.54427  0  -0.194297  -0.411093  0  2.041879  0
