# generated using pymatgen
data_LaH11C11O9
_symmetry_space_group_name_H-M   'P 1'
_cell_length_a   7.91841774
_cell_length_b   12.39150754
_cell_length_c   12.99706571
_cell_angle_alpha   89.66397789
_cell_angle_beta   89.99994736
_cell_angle_gamma   89.99997087
_symmetry_Int_Tables_number   1
_chemical_formula_structural   LaH11C11O9
_chemical_formula_sum   'La4 H44 C44 O36'
_cell_volume   1275.26488234
_cell_formula_units_Z   4
loop_
 _symmetry_equiv_pos_site_id
 _symmetry_equiv_pos_as_xyz
  1  'x, y, z'
loop_
 _atom_site_type_symbol
 _atom_site_label
 _atom_site_symmetry_multiplicity
 _atom_site_fract_x
 _atom_site_fract_y
 _atom_site_fract_z
 _atom_site_occupancy
 _atom_site_hle17_bader_spin_density
 _atom_site_hle17_ddec_charge
 _atom_site_hle17_ddec_spin_density
 _atom_site_hle17_ddec_sum_bond_order
 _atom_site_hle17_magmom
 _atom_site_hse06_10hf_bader_spin_density
 _atom_site_hse06_10hf_ddec_charge
 _atom_site_hse06_10hf_ddec_spin_density
 _atom_site_hse06_10hf_ddec_sum_bond_order
 _atom_site_hse06_10hf_magmom
 _atom_site_hse06_bader_spin_density
 _atom_site_hse06_ddec_charge
 _atom_site_hse06_ddec_spin_density
 _atom_site_hse06_ddec_sum_bond_order
 _atom_site_hse06_magmom
 _atom_site_pbe_bader_spin_density
 _atom_site_pbe_cm5_charge
 _atom_site_pbe_ddec_charge
 _atom_site_pbe_ddec_spin_density
 _atom_site_pbe_ddec_sum_bond_order
 _atom_site_pbe_magmom
La  La0  1  0.93416317  0.52447374  0.68480296  1  0  2.161007  0  1.700031  0  0  2.032391  0  2.211357  0  0  2.138006  0  2.107896  0  0  1.400915  1.952951  0  2.28429  0
La  La1  1  0.43416421  0.47552635  0.81519576  1  0  2.160944  0  1.70004  0  0  2.032341  0  2.211372  0  0  2.137957  0  2.107911  0  0  1.40092  1.952898  0  2.284305  0
La  La2  1  0.06583595  0.47552619  0.31519547  1  0  2.160945  0  1.700064  0  0  2.032336  0  2.211401  0  0  2.137954  0  2.107937  0  0  1.40092  1.952907  0  2.284315  0
La  La3  1  0.56583239  0.52447275  0.18480882  1  0  2.161037  0  1.700015  0  0  2.032396  0  2.211347  0  0  2.138014  0  2.107884  0  0  1.400993  1.952968  0  2.284267  0
H  H4  1  0.44656290  0.92619616  0.90357147  1  0  0.082967  0  0.952584  0  0  0.096742  0  1.009081  0  0  0.098807  0  1.008328  0  0  0.098517  0.095215  0  1.009699  0
H  H5  1  0.94657120  0.07380474  0.59642032  1  0  0.083024  0  0.9526  0  0  0.096792  0  1.009098  0  0  0.098856  0  1.008347  0  0  0.098554  0.095263  0  1.009715  0
H  H6  1  0.55343369  0.07380376  0.09642696  1  0  0.082935  0  0.952613  0  0  0.096748  0  1.009069  0  0  0.098813  0  1.008316  0  0  0.098541  0.095221  0  1.009687  0
H  H7  1  0.05343550  0.92620085  0.40357040  1  0  0.08297  0  0.952636  0  0  0.096788  0  1.009079  0  0  0.098853  0  1.008327  0  0  0.098531  0.09526  0  1.009698  0
H  H8  1  0.63597960  0.76614614  0.89839199  1  0  0.134096  0  0.950261  0  0  0.142697  0  1.01097  0  0  0.147361  0  1.008173  0  0  0.111571  0.13932  0  1.013216  0
H  H9  1  0.13598874  0.23385406  0.60159766  1  0  0.134081  0  0.950268  0  0  0.142723  0  1.010928  0  0  0.147386  0  1.00813  0  0  0.11155  0.139346  0  1.013176  0
H  H10  1  0.36401700  0.23385378  0.10160643  1  0  0.134107  0  0.950231  0  0  0.142701  0  1.010948  0  0  0.147369  0  1.008148  0  0  0.111553  0.139322  0  1.013196  0
H  H11  1  0.86401922  0.76615072  0.39839459  1  0  0.134136  0  0.950288  0  0  0.142725  0  1.011006  0  0  0.147389  0  1.008213  0  0  0.111583  0.139353  0  1.01324  0
H  H12  1  0.06419233  0.97821165  0.85862386  1  0  0.116827  0  0.989132  0  0  0.125929  0  1.055432  0  0  0.129015  0  1.054775  0  0  0.103985  0.123752  0  1.055987  0
H  H13  1  0.56419808  0.02178696  0.64136892  1  0  0.116863  0  0.989092  0  0  0.125945  0  1.055417  0  0  0.129033  0  1.054753  0  0  0.103979  0.123747  0  1.055997  0
H  H14  1  0.93580300  0.02178909  0.14137303  1  0  0.116841  0  0.989162  0  0  0.125942  0  1.055455  0  0  0.129027  0  1.054797  0  0  0.103981  0.123751  0  1.056025  0
H  H15  1  0.43580357  0.97821297  0.35862796  1  0  0.116855  0  0.989126  0  0  0.125953  0  1.055423  0  0  0.12904  0  1.054762  0  0  0.103998  0.123762  0  1.055994  0
H  H16  1  0.56468028  0.11288483  0.88472390  1  0  0.127226  0  0.944071  0  0  0.137462  0  1.003898  0  0  0.142025  0  1.001064  0  0  0.107344  0.134166  0  1.006124  0
H  H17  1  0.06468255  0.88711697  0.61527887  1  0  0.127246  0  0.944061  0  0  0.137484  0  1.003889  0  0  0.142049  0  1.001049  0  0  0.107362  0.134186  0  1.006114  0
H  H18  1  0.43531884  0.88711508  0.11527837  1  0  0.127216  0  0.944047  0  0  0.137449  0  1.003884  0  0  0.142013  0  1.001049  0  0  0.10735  0.134153  0  1.006109  0
H  H19  1  0.93531910  0.11288860  0.38472185  1  0  0.127207  0  0.944086  0  0  0.137468  0  1.003887  0  0  0.142034  0  1.001044  0  0  0.107377  0.134172  0  1.006107  0
H  H20  1  0.11209623  0.13403790  0.79501594  1  0  0.086676  0  0.962607  0  0  0.100076  0  1.022466  0  0  0.100501  0  1.023038  0  0  0.107897  0.099761  0  1.022193  0
H  H21  1  0.61210246  0.86596228  0.70498450  1  0  0.086598  0  0.962645  0  0  0.100091  0  1.022426  0  0  0.100504  0  1.023013  0  0  0.107911  0.099774  0  1.022149  0
H  H22  1  0.88790036  0.86596201  0.20498634  1  0  0.086612  0  0.962595  0  0  0.100086  0  1.022369  0  0  0.100505  0  1.022945  0  0  0.107913  0.099771  0  1.022094  0
H  H23  1  0.38789666  0.13403925  0.29501469  1  0  0.086617  0  0.962595  0  0  0.100089  0  1.022398  0  0  0.100495  0  1.022992  0  0  0.107909  0.099772  0  1.022124  0
H  H24  1  0.11536950  0.15770528  0.93028720  1  0  0.087442  0  0.950469  0  0  0.096789  0  1.015331  0  0  0.097808  0  1.014858  0  0  0.106241  0.096096  0  1.015721  0
H  H25  1  0.61537090  0.84229328  0.56971171  1  0  0.087467  0  0.950483  0  0  0.096846  0  1.015339  0  0  0.097867  0  1.01487  0  0  0.106262  0.096151  0  1.015727  0
H  H26  1  0.88463214  0.84229140  0.06971355  1  0  0.087472  0  0.950368  0  0  0.096803  0  1.015259  0  0  0.097814  0  1.014787  0  0  0.106263  0.096109  0  1.015647  0
H  H27  1  0.38462696  0.15770583  0.43028595  1  0  0.087468  0  0.950454  0  0  0.096822  0  1.015326  0  0  0.097844  0  1.014851  0  0  0.106246  0.096126  0  1.015717  0
H  H28  1  0.18167792  0.82467200  0.93898361  1  0  0.09028  0  0.936787  0  0  0.098054  0  1.004657  0  0  0.099925  0  1.00288  0  0  0.110351  0.096682  0  1.006081  0
H  H29  1  0.68168746  0.17532655  0.56101603  1  0  0.090251  0  0.936871  0  0  0.098069  0  1.004682  0  0  0.09994  0  1.002904  0  0  0.110345  0.096698  0  1.006107  0
H  H30  1  0.81831741  0.17532953  0.06101558  1  0  0.090252  0  0.936836  0  0  0.098025  0  1.004702  0  0  0.099897  0  1.002922  0  0  0.11033  0.09665  0  1.006129  0
H  H31  1  0.31832050  0.82467256  0.43898548  1  0  0.090299  0  0.93674  0  0  0.098067  0  1.004615  0  0  0.09994  0  1.002837  0  0  0.110368  0.096692  0  1.006037  0
H  H32  1  0.17544446  0.82887633  0.80106555  1  0  0.100424  0  0.926445  0  0  0.110706  0  0.990519  0  0  0.112411  0  0.98902  0  0  0.117743  0.109516  0  0.991647  0
H  H33  1  0.67544495  0.17112302  0.69893486  1  0  0.100411  0  0.926412  0  0  0.110695  0  0.99049  0  0  0.1124  0  0.988991  0  0  0.117736  0.109505  0  0.991618  0
H  H34  1  0.82455719  0.17112440  0.19893288  1  0  0.100417  0  0.92643  0  0  0.110695  0  0.990512  0  0  0.1124  0  0.989013  0  0  0.117766  0.109504  0  0.991641  0
H  H35  1  0.32455544  0.82887608  0.30106741  1  0  0.100457  0  0.926392  0  0  0.110729  0  0.990481  0  0  0.112434  0  0.988981  0  0  0.117777  0.10954  0  0.991607  0
H  H36  1  0.90806934  0.57237282  0.96182387  1  0  0.020829  0  0.912283  0  0  0.028206  0  0.983331  0  0  0.028967  0  0.977444  0  0  0.124354  0.027389  0  0.987802  0
H  H37  1  0.40806326  0.42763130  0.53817717  1  0  0.020935  0  0.912296  0  0  0.028232  0  0.983399  0  0  0.028989  0  0.977514  0  0  0.124381  0.027419  0  0.987876  0
H  H38  1  0.09193862  0.42762871  0.03817532  1  0  0.02097  0  0.912236  0  0  0.028293  0  0.983317  0  0  0.029051  0  0.977431  0  0  0.124402  0.027471  0  0.987795  0
H  H39  1  0.59194091  0.57236863  0.46181895  1  0  0.020935  0  0.912302  0  0  0.028235  0  0.9834  0  0  0.028993  0  0.977514  0  0  0.124407  0.027426  0  0.987874  0
H  H40  1  0.23518133  0.67773082  0.63225978  1  0  0.43088  0  0.858292  0  0  0.396443  0  0.935364  0  0  0.407934  0  0.918607  0  0  0.304131  0.388069  0  0.947547  0
H  H41  1  0.73518018  0.32227254  0.86774135  1  0  0.430891  0  0.858274  0  0  0.396459  0  0.935338  0  0  0.40795  0  0.91858  0  0  0.304161  0.388085  0  0.947522  0
H  H42  1  0.76481400  0.32227070  0.36774325  1  0  0.430891  0  0.858226  0  0  0.396446  0  0.935351  0  0  0.407937  0  0.918594  0  0  0.304139  0.38807  0  0.947539  0
H  H43  1  0.26481768  0.67773060  0.13225938  1  0  0.430879  0  0.85827  0  0  0.396438  0  0.935371  0  0  0.407929  0  0.918613  0  0  0.304123  0.388061  0  0.947561  0
H  H44  1  0.11433529  0.67848360  0.53466065  1  0  0.434611  0  0.8599  0  0  0.407439  0  0.917686  0  0  0.417921  0  0.90266  0  0  0.307455  0.399905  0  0.928475  0
H  H45  1  0.61433525  0.32152061  0.96534131  1  0  0.434627  0  0.859886  0  0  0.407422  0  0.917714  0  0  0.417903  0  0.902688  0  0  0.307458  0.399891  0  0.928499  0
H  H46  1  0.88566635  0.32151874  0.46534007  1  0  0.434568  0  0.859957  0  0  0.407363  0  0.917794  0  0  0.417844  0  0.902767  0  0  0.307433  0.399829  0  0.928583  0
H  H47  1  0.38566387  0.67848414  0.03466094  1  0  0.434608  0  0.859904  0  0  0.407432  0  0.917698  0  0  0.417913  0  0.902672  0  0  0.307456  0.399901  0  0.928481  0
C  C48  1  0.58194601  0.93750127  0.89291668  1  0  -0.01882  0  3.821167  0  0  -0.030096  0  4.075308  0  0  -0.027038  0  4.094553  0  0  -0.092003  -0.031876  0  4.062052  0
C  C49  1  0.08195023  0.06249894  0.60707916  1  0  -0.018914  0  3.821251  0  0  -0.03019  0  4.075392  0  0  -0.027132  0  4.094638  0  0  -0.092047  -0.031968  0  4.062132  0
C  C50  1  0.41805185  0.06249865  0.10708482  1  0  -0.018814  0  3.821223  0  0  -0.030123  0  4.075378  0  0  -0.027064  0  4.094621  0  0  -0.092039  -0.031904  0  4.062121  0
C  C51  1  0.91805268  0.93750583  0.39291771  1  0  -0.018922  0  3.821207  0  0  -0.030245  0  4.075365  0  0  -0.027187  0  4.09461  0  0  -0.09207  -0.032025  0  4.06211  0
C  C52  1  0.68690641  0.84728038  0.89050234  1  0  -0.21591  0  3.736032  0  0  -0.243884  0  3.997303  0  0  -0.249214  0  4.011992  0  0  -0.116501  -0.240481  0  3.98764  0
C  C53  1  0.18691308  0.15271900  0.60948729  1  0  -0.215888  0  3.736121  0  0  -0.243845  0  3.997395  0  0  -0.249175  0  4.012088  0  0  -0.116463  -0.240443  0  3.987739  0
C  C54  1  0.31309018  0.15271873  0.10949609  1  0  -0.215908  0  3.736107  0  0  -0.243864  0  3.9974  0  0  -0.249196  0  4.012092  0  0  -0.116452  -0.240464  0  3.98775  0
C  C55  1  0.81309235  0.84728417  0.39050574  1  0  -0.215924  0  3.736139  0  0  -0.243865  0  3.9974  0  0  -0.249201  0  4.012098  0  0  -0.116478  -0.240462  0  3.987743  0
C  C56  1  0.86067219  0.86248357  0.87636587  1  0  0.29294  0  3.827509  0  0  0.286011  0  4.086765  0  0  0.299385  0  4.100714  0  0  0.082071  0.276867  0  4.077351  0
C  C57  1  0.36067506  0.13751576  0.62362366  1  0  0.292972  0  3.827449  0  0  0.285951  0  4.086891  0  0  0.299324  0  4.100845  0  0  0.082061  0.276792  0  4.077481  0
C  C58  1  0.13932314  0.13751636  0.12363025  1  0  0.292995  0  3.827543  0  0  0.286046  0  4.086892  0  0  0.299421  0  4.100845  0  0  0.082058  0.276874  0  4.07748  0
C  C59  1  0.63932532  0.86248660  0.37637014  1  0  0.292879  0  3.827695  0  0  0.285883  0  4.087024  0  0  0.299256  0  4.100979  0  0  0.082041  0.276735  0  4.07761  0
C  C60  1  0.92932224  0.96631686  0.86783968  1  0  -0.345898  0  3.773807  0  0  -0.373213  0  4.02927  0  0  -0.383294  0  4.0496  0  0  -0.133423  -0.366483  0  4.015722  0
C  C61  1  0.42932897  0.03368083  0.63215136  1  0  -0.345904  0  3.773564  0  0  -0.373155  0  4.029067  0  0  -0.383235  0  4.049397  0  0  -0.13345  -0.366409  0  4.015543  0
C  C62  1  0.07067310  0.03368307  0.13215567  1  0  -0.345876  0  3.77369  0  0  -0.373158  0  4.029172  0  0  -0.383238  0  4.049502  0  0  -0.133416  -0.366417  0  4.015642  0
C  C63  1  0.57067394  0.96632072  0.36784398  1  0  -0.345888  0  3.773669  0  0  -0.373194  0  4.029158  0  0  -0.383271  0  4.049488  0  0  -0.133494  -0.366451  0  4.015621  0
C  C64  1  0.82037912  0.05537312  0.87093414  1  0  0.286756  0  3.845174  0  0  0.278142  0  4.108591  0  0  0.290847  0  4.124617  0  0  0.07562  0.269475  0  4.097708  0
C  C65  1  0.32038259  0.94462620  0.62906388  1  0  0.286773  0  3.845054  0  0  0.278094  0  4.108513  0  0  0.290792  0  4.124544  0  0  0.07559  0.269427  0  4.097628  0
C  C66  1  0.17961874  0.94462599  0.12906737  1  0  0.286719  0  3.845099  0  0  0.278046  0  4.108548  0  0  0.290748  0  4.124578  0  0  0.075598  0.269377  0  4.097665  0
C  C67  1  0.67961779  0.05537695  0.37093377  1  0  0.286748  0  3.845126  0  0  0.278066  0  4.108544  0  0  0.290761  0  4.124578  0  0  0.075609  0.269399  0  4.097659  0
C  C68  1  0.64579374  0.04187621  0.88262683  1  0  -0.234648  0  3.774891  0  0  -0.263184  0  4.040906  0  0  -0.270401  0  4.059237  0  0  -0.124397  -0.258396  0  4.028602  0
C  C69  1  0.14579721  0.95812315  0.61737283  1  0  -0.234698  0  3.774846  0  0  -0.263226  0  4.04089  0  0  -0.270441  0  4.059222  0  0  -0.124417  -0.258435  0  4.028588  0
C  C70  1  0.35420539  0.95812370  0.11737621  1  0  -0.234639  0  3.774846  0  0  -0.26317  0  4.040898  0  0  -0.270386  0  4.059229  0  0  -0.124417  -0.258385  0  4.028602  0
C  C71  1  0.85420444  0.04188081  0.38262482  1  0  -0.234527  0  3.774815  0  0  -0.263098  0  4.040864  0  0  -0.270312  0  4.059198  0  0  -0.124387  -0.258311  0  4.028568  0
C  C72  1  0.05268783  0.17996237  0.85756610  1  0  -0.071061  0  3.621517  0  0  -0.125966  0  3.871842  0  0  -0.121608  0  3.871038  0  0  -0.069796  -0.129045  0  3.872584  0
C  C73  1  0.55269293  0.82003541  0.64243361  1  0  -0.071085  0  3.621538  0  0  -0.126172  0  3.871943  0  0  -0.121817  0  3.87115  0  0  -0.069874  -0.129237  0  3.872664  0
C  C74  1  0.94731002  0.82003431  0.14243618  1  0  -0.07107  0  3.621367  0  0  -0.126062  0  3.871713  0  0  -0.121692  0  3.8709  0  0  -0.069879  -0.129136  0  3.872447  0
C  C75  1  0.44730619  0.17996290  0.35756482  1  0  -0.071055  0  3.621431  0  0  -0.126111  0  3.8718  0  0  -0.121753  0  3.87101  0  0  -0.069841  -0.129183  0  3.872535  0
C  C76  1  0.08527512  0.29864744  0.83450824  1  0  0.714252  0  3.843138  0  0  0.666791  0  4.151445  0  0  0.701915  0  4.143032  0  0  0.229127  0.642533  0  4.156503  0
C  C77  1  0.58527649  0.70135033  0.66549223  1  0  0.714353  0  3.843143  0  0  0.666969  0  4.151351  0  0  0.702094  0  4.142932  0  0  0.229271  0.642707  0  4.156411  0
C  C78  1  0.91472274  0.70135165  0.16549789  1  0  0.714169  0  3.843145  0  0  0.666727  0  4.151419  0  0  0.70185  0  4.143007  0  0  0.229125  0.642468  0  4.15648  0
C  C79  1  0.41471884  0.29864798  0.33450543  1  0  0.714399  0  3.843046  0  0  0.666938  0  4.151371  0  0  0.702064  0  4.142955  0  0  0.229139  0.64268  0  4.156432  0
C  C80  1  0.13500705  0.78295335  0.86999180  1  0  -0.067286  0  3.621656  0  0  -0.120168  0  3.874436  0  0  -0.116252  0  3.87355  0  0  -0.058736  -0.122959  0  3.875267  0
C  C81  1  0.63501645  0.21704763  0.63000786  1  0  -0.067199  0  3.621531  0  0  -0.120058  0  3.874294  0  0  -0.116139  0  3.873409  0  0  -0.058689  -0.122862  0  3.87512  0
C  C82  1  0.86498954  0.21704899  0.13000739  1  0  -0.067159  0  3.621562  0  0  -0.119996  0  3.874374  0  0  -0.116075  0  3.873482  0  0  -0.058735  -0.12281  0  3.875199  0
C  C83  1  0.36499151  0.78295228  0.36999365  1  0  -0.067345  0  3.621582  0  0  -0.12022  0  3.874388  0  0  -0.116302  0  3.873495  0  0  -0.058778  -0.123004  0  3.875215  0
C  C84  1  0.21897716  0.67342712  0.86316106  1  0  0.698342  0  3.835266  0  0  0.649364  0  4.135965  0  0  0.684273  0  4.129009  0  0  0.223462  0.625311  0  4.139983  0
C  C85  1  0.71898646  0.32656898  0.63684318  1  0  0.698292  0  3.835384  0  0  0.649259  0  4.136129  0  0  0.684167  0  4.129176  0  0  0.22351  0.625216  0  4.140138  0
C  C86  1  0.78101564  0.32656955  0.13684661  1  0  0.698135  0  3.835566  0  0  0.649115  0  4.136297  0  0  0.684021  0  4.12935  0  0  0.223543  0.625054  0  4.140324  0
C  C87  1  0.28102655  0.67342932  0.36315756  1  0  0.698296  0  3.835268  0  0  0.649266  0  4.136061  0  0  0.684177  0  4.129105  0  0  0.223451  0.625207  0  4.140092  0
C  C88  1  0.77726925  0.55562556  0.93677408  1  0  0.633862  0  3.857742  0  0  0.561877  0  4.173391  0  0  0.598943  0  4.164627  0  0  0.174491  0.53626  0  4.178566  0
C  C89  1  0.27727196  0.44437455  0.56323319  1  0  0.63375  0  3.857726  0  0  0.561817  0  4.173365  0  0  0.598889  0  4.164596  0  0  0.174482  0.536189  0  4.178559  0
C  C90  1  0.22273493  0.44437274  0.06322973  1  0  0.633744  0  3.857842  0  0  0.561787  0  4.173488  0  0  0.598856  0  4.16472  0  0  0.174433  0.536168  0  4.178669  0
C  C91  1  0.72272716  0.55562458  0.43676216  1  0  0.63391  0  3.857332  0  0  0.561981  0  4.172966  0  0  0.599052  0  4.164196  0  0  0.174589  0.536351  0  4.178166  0
O  O92  1  0.87542544  0.15999088  0.86265044  1  0  -0.277954  0  2.386834  0  0  -0.203006  0  2.618839  0  0  -0.220712  0  2.620751  0  0  -0.181478  -0.190552  0  2.617265  0
O  O93  1  0.37542898  0.84000679  0.63735140  1  0  -0.277998  0  2.386861  0  0  -0.202944  0  2.618871  0  0  -0.220638  0  2.620778  0  0  -0.18146  -0.190491  0  2.617293  0
O  O94  1  0.12457368  0.84000741  0.13735338  1  0  -0.277985  0  2.386868  0  0  -0.202926  0  2.618821  0  0  -0.220632  0  2.620732  0  0  -0.181449  -0.190471  0  2.617246  0
O  O95  1  0.62456888  0.15999555  0.36264779  1  0  -0.278028  0  2.386891  0  0  -0.20289  0  2.618801  0  0  -0.22058  0  2.620705  0  0  -0.181405  -0.190436  0  2.617226  0
O  O96  1  0.96218136  0.36260453  0.81819586  1  0  -0.700489  0  1.997752  0  0  -0.649938  0  2.245385  0  0  -0.681718  0  2.237038  0  0  -0.344173  -0.627046  0  2.250354  0
O  O97  1  0.46218878  0.63739472  0.68181054  1  0  -0.700478  0  1.997946  0  0  -0.649981  0  2.245613  0  0  -0.681761  0  2.237268  0  0  -0.344236  -0.627085  0  2.250581  0
O  O98  1  0.03782029  0.63739375  0.18181180  1  0  -0.700439  0  1.9977  0  0  -0.649903  0  2.245342  0  0  -0.681684  0  2.236999  0  0  -0.344213  -0.627008  0  2.250309  0
O  O99  1  0.53780276  0.36260841  0.31819403  1  0  -0.700549  0  1.998018  0  0  -0.649977  0  2.245654  0  0  -0.681756  0  2.237308  0  0  -0.344197  -0.627086  0  2.250624  0
O  O100  1  0.24027325  0.32279038  0.83276969  1  0  -0.674934  0  2.019497  0  0  -0.635403  0  2.281893  0  0  -0.669317  0  2.27334  0  0  -0.384604  -0.610758  0  2.286787  0
O  O101  1  0.74028095  0.67720655  0.66722530  1  0  -0.674989  0  2.019382  0  0  -0.635479  0  2.281757  0  0  -0.669393  0  2.273196  0  0  -0.384691  -0.61084  0  2.28666  0
O  O102  1  0.75972840  0.67720710  0.16723721  1  0  -0.674881  0  2.019559  0  0  -0.635352  0  2.281936  0  0  -0.669264  0  2.273384  0  0  -0.384553  -0.610713  0  2.286836  0
O  O103  1  0.25971059  0.32278694  0.33276622  1  0  -0.674985  0  2.019215  0  0  -0.63547  0  2.281635  0  0  -0.669386  0  2.273079  0  0  -0.384617  -0.61082  0  2.286511  0
O  O104  1  0.95660554  0.77035519  0.87307973  1  0  -0.256908  0  2.347067  0  0  -0.18853  0  2.580257  0  0  -0.205857  0  2.582777  0  0  -0.167055  -0.176265  0  2.578133  0
O  O105  1  0.45660959  0.22964490  0.62691514  1  0  -0.256862  0  2.346921  0  0  -0.188552  0  2.580208  0  0  -0.205881  0  2.58273  0  0  -0.166983  -0.176256  0  2.578076  0
O  O106  1  0.04339232  0.22964717  0.12691561  1  0  -0.256912  0  2.346973  0  0  -0.188633  0  2.580242  0  0  -0.205963  0  2.582763  0  0  -0.167016  -0.176295  0  2.57807  0
O  O107  1  0.54339458  0.77035663  0.37308328  1  0  -0.256859  0  2.347119  0  0  -0.188427  0  2.580275  0  0  -0.205754  0  2.582797  0  0  -0.167011  -0.176157  0  2.57816  0
O  O108  1  0.14437520  0.59412266  0.82042474  1  0  -0.721919  0  2.038068  0  0  -0.672565  0  2.304971  0  0  -0.709691  0  2.297269  0  0  -0.378691  -0.64556  0  2.309082  0
O  O109  1  0.64438184  0.40587750  0.67957799  1  0  -0.721983  0  2.038123  0  0  -0.672617  0  2.305016  0  0  -0.709744  0  2.297315  0  0  -0.378747  -0.645616  0  2.309128  0
O  O110  1  0.85561760  0.40587481  0.17958369  1  0  -0.72185  0  2.038189  0  0  -0.672502  0  2.305108  0  0  -0.709626  0  2.297409  0  0  -0.378769  -0.645499  0  2.309224  0
O  O111  1  0.35562359  0.59412323  0.32042120  1  0  -0.72189  0  2.03817  0  0  -0.672506  0  2.305078  0  0  -0.709632  0  2.297377  0  0  -0.378687  -0.645501  0  2.309194  0
O  O112  1  0.36829737  0.66560129  0.89806549  1  0  -0.662381  0  2.004616  0  0  -0.60898  0  2.237008  0  0  -0.639964  0  2.230105  0  0  -0.332955  -0.586953  0  2.241153  0
O  O113  1  0.86831051  0.33439475  0.60194405  1  0  -0.662412  0  2.004789  0  0  -0.608902  0  2.237122  0  0  -0.639885  0  2.230218  0  0  -0.333002  -0.586872  0  2.241258  0
O  O114  1  0.63168912  0.33439456  0.10194757  1  0  -0.662394  0  2.004827  0  0  -0.60888  0  2.237152  0  0  -0.639873  0  2.230274  0  0  -0.333017  -0.58685  0  2.241293  0
O  O115  1  0.13169872  0.66560031  0.39806285  1  0  -0.662402  0  2.004544  0  0  -0.608976  0  2.23693  0  0  -0.639966  0  2.230036  0  0  -0.33299  -0.586947  0  2.24108  0
O  O116  1  0.74908692  0.54787234  0.84026044  1  0  -0.722774  0  2.155913  0  0  -0.66948  0  2.436472  0  0  -0.709566  0  2.430324  0  0  -0.408559  -0.640265  0  2.439254  0
O  O117  1  0.24909201  0.45213505  0.65974376  1  0  -0.72268  0  2.156003  0  0  -0.669383  0  2.436539  0  0  -0.709469  0  2.430392  0  0  -0.408603  -0.640167  0  2.439325  0
O  O118  1  0.25091093  0.45213161  0.15974029  1  0  -0.722797  0  2.156125  0  0  -0.669487  0  2.436664  0  0  -0.709572  0  2.430515  0  0  -0.408618  -0.640275  0  2.439447  0
O  O119  1  0.75090837  0.54786568  0.34025390  1  0  -0.72269  0  2.156061  0  0  -0.669398  0  2.436602  0  0  -0.70948  0  2.430453  0  0  -0.408628  -0.640186  0  2.439392  0
O  O120  1  0.11552360  0.67398566  0.61074531  1  0  -0.863978  0  1.861206  0  0  -0.818826  0  2.055213  0  0  -0.84416  0  2.022294  0  0  -0.626783  -0.800344  0  2.078441  0
O  O121  1  0.61552368  0.32601210  0.88925590  1  0  -0.863996  0  1.861189  0  0  -0.818815  0  2.055223  0  0  -0.844148  0  2.022302  0  0  -0.626813  -0.800337  0  2.078451  0
O  O122  1  0.88447425  0.32601426  0.38925542  1  0  -0.863928  0  1.861196  0  0  -0.818766  0  2.055276  0  0  -0.844102  0  2.022357  0  0  -0.626756  -0.800285  0  2.078504  0
O  O123  1  0.38447671  0.67398620  0.11074638  1  0  -0.863991  0  1.861176  0  0  -0.818825  0  2.055182  0  0  -0.84416  0  2.022262  0  0  -0.626772  -0.800346  0  2.078408  0
O  O124  1  0.66200072  0.54430752  0.00227302  1  0  -0.664393  0  2.130715  0  0  -0.611851  0  2.397851  0  0  -0.647221  0  2.391432  0  0  -0.366099  -0.586262  0  2.401252  0
O  O125  1  0.16198761  0.45567928  0.49772970  1  0  -0.664464  0  2.130627  0  0  -0.611904  0  2.397707  0  0  -0.647275  0  2.391282  0  0  -0.366095  -0.586312  0  2.401117  0
O  O126  1  0.33801482  0.45568190  0.99772851  1  0  -0.664353  0  2.130656  0  0  -0.611795  0  2.397748  0  0  -0.647165  0  2.391325  0  0  -0.366029  -0.586202  0  2.401149  0
O  O127  1  0.83801530  0.54431499  0.50226720  1  0  -0.664613  0  2.130256  0  0  -0.612059  0  2.397336  0  0  -0.647433  0  2.390908  0  0  -0.366221  -0.586466  0  2.400748  0
