# generated using pymatgen
data_CuH9(C2N3)3
_symmetry_space_group_name_H-M   'P 1'
_cell_length_a   7.86909935
_cell_length_b   10.19857645
_cell_length_c   11.78400704
_cell_angle_alpha   90.00004032
_cell_angle_beta   89.99984991
_cell_angle_gamma   101.14977039
_symmetry_Int_Tables_number   1
_chemical_formula_structural   CuH9(C2N3)3
_chemical_formula_sum   'Cu4 H36 C24 N36'
_cell_volume   927.85891584
_cell_formula_units_Z   4
loop_
 _symmetry_equiv_pos_site_id
 _symmetry_equiv_pos_as_xyz
  1  'x, y, z'
loop_
 _atom_site_type_symbol
 _atom_site_label
 _atom_site_symmetry_multiplicity
 _atom_site_fract_x
 _atom_site_fract_y
 _atom_site_fract_z
 _atom_site_occupancy
 _atom_site_hle17_ddec_charge
 _atom_site_hle17_ddec_spin_density
 _atom_site_hle17_ddec_sum_bond_order
 _atom_site_hle17_magmom
 _atom_site_hse06_10hf_ddec_charge
 _atom_site_hse06_10hf_ddec_spin_density
 _atom_site_hse06_10hf_ddec_sum_bond_order
 _atom_site_hse06_10hf_magmom
 _atom_site_hse06_ddec_charge
 _atom_site_hse06_ddec_spin_density
 _atom_site_hse06_ddec_sum_bond_order
 _atom_site_hse06_magmom
 _atom_site_pbe_cm5_charge
 _atom_site_pbe_ddec_charge
 _atom_site_pbe_ddec_spin_density
 _atom_site_pbe_ddec_sum_bond_order
 _atom_site_pbe_magmom
Cu  Cu0  1  0.91688433  0.99067948  0.83611153  1  0.639243  0.659414  2.052786  0.489  0.585945  0.74928  2.464225  0.599  0.665859  0.8158  2.410522  0.684  0.777398  0.540655  0.706257  2.500635  0.547
Cu  Cu1  1  0.58311646  0.50932089  0.33611112  1  0.639267  0.659423  2.052803  0.489  0.585985  0.749283  2.464235  0.599  0.665897  0.815808  2.41056  0.684  0.777436  0.540712  0.706264  2.500631  0.547
Cu  Cu2  1  0.08311527  0.00932046  0.16388816  1  0.639229  0.65942  2.052822  0.489  0.585949  0.74928  2.464215  0.599  0.665858  0.815807  2.410554  0.684  0.777425  0.540688  0.706259  2.500591  0.547
Cu  Cu3  1  0.41688338  0.49068005  0.66388856  1  0.639268  0.659411  2.052796  0.489  0.585993  0.749282  2.464251  0.599  0.665896  0.815793  2.410505  0.684  0.777444  0.540668  0.70626  2.500712  0.547
H  H4  1  0.46014130  0.84833086  0.66625625  1  0.104897  -0.000626  0.924645  -0.001  0.120965  -0.00036  0.983783  0.0  0.122448  -0.00037  0.983378  0.0  0.105619  0.119837  -0.000316  0.984268  0.0
H  H5  1  0.03986201  0.65166883  0.16625855  1  0.104843  -0.000629  0.924694  -0.001  0.120906  -0.00036  0.983852  0.0  0.122389  -0.00037  0.983446  0.0  0.105592  0.119779  -0.000316  0.984335  0.0
H  H6  1  0.53985932  0.15166809  0.33374259  1  0.104863  -0.000628  0.924686  -0.001  0.120932  -0.00036  0.983819  0.0  0.122415  -0.00037  0.983415  0.0  0.105613  0.119804  -0.000316  0.9843  0.0
H  H7  1  0.96013911  0.34833212  0.83374283  1  0.104855  -0.000629  0.924693  -0.001  0.120914  -0.00036  0.983848  0.0  0.122396  -0.00037  0.983445  0.0  0.1056  0.119787  -0.000316  0.98433  0.0
H  H8  1  0.83463305  0.97128062  0.59761717  1  0.080619  0.000928  0.917394  0.002  0.089613  0.000578  0.988062  0.001  0.089112  0.000308  0.987674  0.001  0.110066  0.089488  0.000789  0.988751  0.002
H  H9  1  0.66537017  0.52872071  0.09761663  1  0.080651  0.000932  0.917363  0.002  0.089629  0.000578  0.988031  0.001  0.089129  0.000308  0.987642  0.001  0.110072  0.089495  0.000789  0.988735  0.002
H  H10  1  0.16536679  0.02872033  0.40238167  1  0.080615  0.000931  0.91737  0.002  0.089608  0.000578  0.988043  0.001  0.089107  0.000308  0.987656  0.001  0.110066  0.089474  0.000789  0.988741  0.002
H  H11  1  0.33463094  0.47128024  0.90238390  1  0.080618  0.000929  0.917385  0.002  0.0896  0.000578  0.98806  0.001  0.089099  0.000308  0.987672  0.001  0.110065  0.089476  0.00079  0.988754  0.002
H  H12  1  0.47797310  0.08822303  0.73449510  1  0.077386  0.008089  0.938414  0.011  0.084271  0.004886  1.010071  0.007  0.081798  0.003302  1.012991  0.005  0.105874  0.085577  0.005928  1.008379  0.008
H  H13  1  0.02202528  0.41177750  0.23449589  1  0.077355  0.008091  0.938429  0.011  0.084246  0.004886  1.010066  0.007  0.081771  0.003302  1.012986  0.005  0.105853  0.085551  0.005928  1.008373  0.008
H  H14  1  0.52202522  0.91177692  0.26550374  1  0.077378  0.008093  0.938429  0.011  0.084268  0.004886  1.010074  0.007  0.081795  0.003302  1.012992  0.005  0.105857  0.085576  0.005928  1.008375  0.008
H  H15  1  0.97797457  0.58822345  0.76550464  1  0.077393  0.00809  0.93841  0.011  0.084282  0.004886  1.010059  0.007  0.081808  0.003302  1.01298  0.005  0.105865  0.085587  0.005927  1.008364  0.008
H  H16  1  0.52118655  0.96953469  0.83528702  1  0.06707  0.001178  0.970564  0.002  0.075868  0.000907  1.042093  0.002  0.074316  0.000556  1.04484  0.001  0.102813  0.076581  0.001124  1.040486  0.002
H  H17  1  0.97881272  0.53046469  0.33528763  1  0.067134  0.00118  0.970481  0.002  0.07592  0.000907  1.04203  0.002  0.074367  0.000556  1.044776  0.001  0.102831  0.07663  0.001124  1.040432  0.002
H  H18  1  0.47881255  0.03046325  0.16471181  1  0.067055  0.001179  0.970558  0.002  0.075851  0.000907  1.042098  0.002  0.074299  0.000556  1.044842  0.001  0.10281  0.076561  0.001124  1.04049  0.002
H  H19  1  0.02118712  0.46953626  0.66471290  1  0.067086  0.001178  0.970569  0.002  0.07588  0.000907  1.0421  0.002  0.074328  0.000556  1.044847  0.001  0.102815  0.076592  0.001124  1.040496  0.002
H  H20  1  0.64872798  0.27348446  0.84842230  1  0.100711  -0.000294  0.961092  0.0  0.102226  -0.000201  1.045833  0.0  0.104787  -0.000194  1.043112  0.0  0.102202  0.100529  -0.000197  1.047568  0.0
H  H21  1  0.85127166  0.22651574  0.34842410  1  0.100717  -0.000289  0.961073  0.0  0.102242  -0.000201  1.045815  0.0  0.104801  -0.000194  1.043094  0.0  0.102214  0.100544  -0.000197  1.047546  0.0
H  H22  1  0.35127264  0.72651448  0.15157654  1  0.100706  -0.000292  0.961087  0.0  0.102232  -0.000201  1.04582  0.0  0.104792  -0.000194  1.0431  0.0  0.102204  0.100534  -0.000197  1.047558  0.0
H  H23  1  0.14872818  0.77348520  0.65157728  1  0.100723  -0.000288  0.961095  0.0  0.10225  -0.000201  1.045814  0.0  0.104808  -0.000194  1.043093  0.0  0.102213  0.100552  -0.000197  1.047549  0.0
H  H24  1  0.46768409  0.18406772  0.92050911  1  0.11773  -1.9e-05  0.898306  0.0  0.136703  8.9e-05  0.946173  0.0  0.137229  2.1e-05  0.947522  0.0  0.111144  0.136267  0.000151  0.945359  0.0
H  H25  1  0.03231661  0.31593484  0.42050813  1  0.117715  -1.6e-05  0.89829  0.0  0.136743  8.9e-05  0.946092  0.0  0.137273  2.1e-05  0.947438  0.0  0.111144  0.136307  0.000151  0.945277  0.0
H  H26  1  0.53231575  0.81593322  0.07949057  1  0.117738  -1.9e-05  0.898301  0.0  0.136736  8.9e-05  0.946142  0.0  0.137266  2.1e-05  0.94749  0.0  0.111147  0.136302  0.000151  0.945328  0.0
H  H27  1  0.96768475  0.68406710  0.57949240  1  0.117716  -1.6e-05  0.898299  0.0  0.136684  8.9e-05  0.946164  0.0  0.13721  2.1e-05  0.94751  0.0  0.111127  0.136246  0.000151  0.945349  0.0
H  H28  1  0.59194775  0.78898622  0.56439433  1  0.112259  -0.000621  0.969618  -0.001  0.112478  -0.000359  1.052396  0.0  0.114383  -0.000392  1.051618  0.0  0.104615  0.110887  -0.000304  1.053269  0.0
H  H29  1  0.90805917  0.71101410  0.06439518  1  0.112259  -0.000624  0.969681  -0.001  0.112486  -0.000359  1.052452  0.0  0.114393  -0.000392  1.051674  0.0  0.104642  0.110897  -0.000304  1.053329  0.0
H  H30  1  0.40805439  0.21101373  0.43560451  1  0.112245  -0.000621  0.969572  -0.001  0.112475  -0.000359  1.052347  0.0  0.11438  -0.000391  1.05157  0.0  0.104622  0.110885  -0.000304  1.053227  0.0
H  H31  1  0.09194297  0.28898584  0.93560536  1  0.112226  -0.000626  0.969632  -0.001  0.112451  -0.000359  1.052414  0.0  0.114356  -0.000392  1.051637  0.0  0.104617  0.110862  -0.000304  1.053288  0.0
H  H32  1  0.64425101  0.03337604  0.56905800  1  0.077929  0.007573  0.902698  0.01  0.091365  0.004784  0.963439  0.006  0.089709  0.003233  0.965117  0.004  0.109135  0.092156  0.00586  0.962568  0.007
H  H33  1  0.85575200  0.46662310  0.06905909  1  0.077898  0.007574  0.902754  0.01  0.091315  0.004783  0.963501  0.006  0.08966  0.003233  0.965179  0.004  0.1091  0.092104  0.00586  0.962626  0.007
H  H34  1  0.35574859  0.96662390  0.43094168  1  0.077918  0.007574  0.902695  0.01  0.091356  0.004783  0.963439  0.006  0.089702  0.003233  0.965117  0.004  0.109128  0.092148  0.005859  0.962563  0.007
H  H35  1  0.14424886  0.53337684  0.93094229  1  0.077901  0.007571  0.902704  0.01  0.091332  0.004783  0.963445  0.006  0.089677  0.003234  0.965122  0.004  0.109104  0.092121  0.00586  0.962571  0.007
H  H36  1  0.79545783  0.15169612  0.71129899  1  0.25748  -0.002543  0.935875  -0.002  0.241865  -0.00051  1.006434  0.0  0.247533  -0.000893  1.004588  -0.001  0.299061  0.237741  -0.000187  1.00827  0.0
H  H37  1  0.70454361  0.34830406  0.21129858  1  0.257503  -0.002541  0.935852  -0.002  0.241891  -0.000509  1.006403  0.0  0.247561  -0.000893  1.004552  -0.001  0.299072  0.237768  -0.000187  1.008241  0.0
H  H38  1  0.20454152  0.84830283  0.28870069  1  0.257489  -0.002542  0.935885  -0.002  0.24187  -0.00051  1.006447  0.0  0.247541  -0.000893  1.004595  -0.001  0.299063  0.237751  -0.000187  1.00828  0.0
H  H39  1  0.29545750  0.65169689  0.78870110  1  0.257479  -0.002542  0.93589  -0.002  0.24187  -0.00051  1.006431  0.0  0.247538  -0.000893  1.004582  -0.001  0.299062  0.237749  -0.000187  1.008267  0.0
C  C40  1  0.70474199  0.15161084  0.98601293  1  0.326504  0.000283  3.72785  0.002  0.316396  0.000776  3.99243  0.002  0.328752  -0.000136  4.006581  0.001  0.214588  0.308551  0.001566  3.982436  0.003
C  C41  1  0.79525839  0.34838939  0.48601236  1  0.326514  0.000285  3.727878  0.002  0.316397  0.000777  3.992486  0.002  0.328751  -0.000139  4.006638  0.001  0.214588  0.308554  0.001566  3.982492  0.003
C  C42  1  0.29525760  0.84838910  0.01398760  1  0.326502  0.000297  3.727857  0.002  0.31639  0.000775  3.992453  0.002  0.328746  -0.000135  4.006604  0.001  0.214579  0.308548  0.001566  3.982457  0.003
C  C43  1  0.20474248  0.65161055  0.51398817  1  0.326583  0.000287  3.727813  0.002  0.316463  0.000776  3.992395  0.002  0.328814  -0.000138  4.006547  0.001  0.214615  0.30862  0.001566  3.982388  0.003
C  C44  1  0.59618160  0.17599712  0.88781638  1  -0.21778  0.000642  3.69619  0.001  -0.258194  0.000533  3.944506  0.001  -0.261325  0.000344  3.954876  0.001  -0.151311  -0.256083  0.00075  3.937196  0.001
C  C45  1  0.90381814  0.32400410  0.38781646  1  -0.217805  0.000631  3.696213  0.001  -0.258274  0.000533  3.944563  0.001  -0.261405  0.000344  3.954933  0.001  -0.151333  -0.256168  0.00075  3.937249  0.001
C  C46  1  0.40381800  0.82400283  0.11218415  1  -0.217813  0.000644  3.696223  0.001  -0.258255  0.000533  3.944546  0.001  -0.261392  0.000344  3.954925  0.001  -0.151329  -0.25615  0.00075  3.937237  0.001
C  C47  1  0.09618170  0.67599685  0.61218492  1  -0.217816  0.000627  3.696256  0.001  -0.258219  0.000533  3.944541  0.001  -0.26134  0.000345  3.954899  0.001  -0.151309  -0.25611  0.00075  3.937232  0.001
C  C48  1  0.57269909  0.06725792  0.79730641  1  0.032874  -0.003347  3.610791  -0.004  -0.018412  0.001056  3.87667  -0.001  -0.012253  -0.000612  3.893281  -0.002  -0.075522  -0.021861  0.002444  3.865669  0.0
C  C49  1  0.92730099  0.43274327  0.29730651  1  0.032872  -0.003357  3.610793  -0.004  -0.018407  0.001058  3.876685  -0.001  -0.012247  -0.000613  3.893294  -0.002  -0.075524  -0.021853  0.002445  3.86569  0.0
C  C50  1  0.42730025  0.93274102  0.20269243  1  0.032912  -0.003366  3.610817  -0.004  -0.018377  0.001059  3.876702  -0.001  -0.012216  -0.000611  3.893308  -0.002  -0.075502  -0.021825  0.002445  3.865702  0.0
C  C51  1  0.07269885  0.56725767  0.70269402  1  0.03285  -0.003329  3.610901  -0.004  -0.018441  0.001058  3.876771  -0.001  -0.012285  -0.000613  3.89338  -0.002  -0.075511  -0.021886  0.002445  3.865769  0.0
C  C52  1  0.70672185  0.97798773  0.63182127  1  0.040366  -0.0063  3.611536  -0.006  -0.015108  -0.001139  3.886633  -0.002  -0.007267  -0.002469  3.899607  -0.003  -0.068843  -0.019751  7.4e-05  3.878164  -0.001
C  C53  1  0.79328100  0.52201260  0.13182135  1  0.0404  -0.006316  3.61147  -0.006  -0.015023  -0.001138  3.88654  -0.002  -0.007182  -0.002469  3.899514  -0.003  -0.068804  -0.019653  7.4e-05  3.87807  -0.001
C  C54  1  0.29327927  0.02201321  0.36817842  1  0.04037  -0.006312  3.611406  -0.006  -0.015137  -0.001138  3.886582  -0.002  -0.007295  -0.002471  3.899554  -0.003  -0.068864  -0.019772  7.4e-05  3.87811  -0.001
C  C55  1  0.20672012  0.47798834  0.86817918  1  0.040413  -0.006286  3.611399  -0.006  -0.015028  -0.001138  3.886477  -0.002  -0.007188  -0.002472  3.899449  -0.003  -0.068816  -0.019665  7.4e-05  3.878005  -0.001
C  C56  1  0.59460614  0.83982097  0.64675682  1  -0.23215  -0.000418  3.713028  0.001  -0.269358  -0.000218  3.957438  0.0  -0.27339  -0.000352  3.967702  0.0  -0.154342  -0.26656  -5.6e-05  3.950298  0.001
C  C57  1  0.90539817  0.66018037  0.14675849  1  -0.232113  -0.000406  3.713083  0.001  -0.269365  -0.000218  3.957543  0.0  -0.273395  -0.000352  3.967803  0.0  -0.154335  -0.266563  -5.6e-05  3.950402  0.001
C  C58  1  0.40539472  0.16017898  0.35324202  1  -0.232082  -0.000412  3.712965  0.001  -0.269303  -0.000217  3.957404  0.0  -0.273334  -0.000352  3.967668  0.0  -0.15432  -0.266498  -5.6e-05  3.950263  0.001
C  C59  1  0.09460295  0.33982058  0.85324204  1  -0.232084  -0.000407  3.712994  0.001  -0.269325  -0.000218  3.957468  0.0  -0.273355  -0.000351  3.967733  0.0  -0.154324  -0.266524  -5.6e-05  3.950329  0.001
C  C60  1  0.65528420  0.75732961  0.73636293  1  0.340542  -0.007242  3.725589  -0.002  0.326005  -0.001654  3.994126  0.001  0.342663  -0.003707  4.008975  -0.001  0.218476  0.315591  -5.9e-05  3.98388  0.003
C  C61  1  0.84471825  0.74267075  0.23636306  1  0.340482  -0.007248  3.72559  -0.002  0.325967  -0.001653  3.994119  0.001  0.342627  -0.003706  4.008963  -0.001  0.218458  0.315548  -5.9e-05  3.983891  0.003
C  C62  1  0.34471667  0.24267033  0.26363675  1  0.340524  -0.007239  3.725613  -0.002  0.325987  -0.001655  3.994147  0.001  0.342648  -0.003706  4.008994  -0.001  0.21848  0.315566  -5.9e-05  3.983933  0.003
C  C63  1  0.15528287  0.25733020  0.76363747  1  0.340508  -0.007238  3.725614  -0.002  0.325979  -0.001653  3.994143  0.001  0.342636  -0.003706  4.008994  -0.001  0.218461  0.315555  -5.9e-05  3.983917  0.003
N  N64  1  0.83002058  0.07846635  0.98323955  1  -0.31395  0.013139  3.134718  0.019  -0.281628  0.01193  3.446075  0.018  -0.298938  0.008826  3.459303  0.015  -0.250408  -0.271276  0.014337  3.438993  0.02
N  N65  1  0.66997829  0.42153289  0.48324009  1  -0.313969  0.01314  3.134702  0.019  -0.281657  0.011929  3.446079  0.018  -0.29897  0.008828  3.459314  0.015  -0.250418  -0.271313  0.014337  3.438997  0.02
N  N66  1  0.16997901  0.92153360  0.01676014  1  -0.313927  0.01313  3.134782  0.019  -0.281615  0.011932  3.446135  0.018  -0.298925  0.008825  3.45937  0.015  -0.250403  -0.271272  0.014337  3.439052  0.02
N  N67  1  0.33002106  0.57846606  0.51676044  1  -0.314009  0.013139  3.134721  0.019  -0.281678  0.01193  3.446082  0.018  -0.298983  0.008827  3.459298  0.015  -0.250418  -0.27132  0.014337  3.438995  0.02
N  N68  1  0.89274882  0.08421859  0.08989481  1  -0.067019  0.062339  3.290614  0.079  -0.047019  0.04957  3.632363  0.066  -0.064134  0.041927  3.650619  0.06  -0.139166  -0.037775  0.054147  3.622527  0.069
N  N69  1  0.60724903  0.41578055  0.58989486  1  -0.067002  0.062363  3.290564  0.079  -0.047014  0.049569  3.632346  0.066  -0.064121  0.04193  3.650576  0.06  -0.13919  -0.037746  0.054149  3.622497  0.069
N  N70  1  0.10725205  0.91578136  0.91010572  1  -0.067064  0.062353  3.290695  0.079  -0.047047  0.04957  3.632429  0.066  -0.064161  0.041928  3.650677  0.06  -0.139175  -0.037797  0.054149  3.622596  0.069
N  N71  1  0.39275031  0.58421839  0.41010482  1  -0.066999  0.062329  3.290578  0.079  -0.047014  0.049569  3.632348  0.066  -0.064132  0.041929  3.650602  0.06  -0.139181  -0.037762  0.054148  3.622512  0.069
N  N72  1  0.69118658  0.20051315  0.09117812  1  -0.322008  0.006071  2.958369  0.008  -0.289901  0.003305  3.230299  0.005  -0.298514  0.001563  3.237371  0.003  -0.22332  -0.283319  0.005013  3.224576  0.006
N  N73  1  0.80881304  0.29948800  0.59117775  1  -0.321959  0.006077  2.958324  0.008  -0.289846  0.003306  3.230247  0.005  -0.29846  0.001564  3.237323  0.003  -0.223296  -0.283261  0.005013  3.22452  0.006
N  N74  1  0.30881302  0.79948680  0.90882241  1  -0.322008  0.006066  2.958362  0.008  -0.289905  0.003305  3.230292  0.005  -0.29852  0.001565  3.237368  0.003  -0.223312  -0.283319  0.005013  3.224563  0.006
N  N75  1  0.19118656  0.70051195  0.40882278  1  -0.321985  0.006078  2.958322  0.008  -0.289872  0.003305  3.23025  0.005  -0.298485  0.001562  3.237325  0.003  -0.223324  -0.283289  0.005013  3.224523  0.006
N  N76  1  0.81057423  0.15650231  0.15418628  1  -0.081833  -0.008836  2.991034  -0.005  -0.067803  -0.003465  3.292172  -0.001  -0.061501  -0.005654  3.299388  -0.003  -0.095941  -0.071353  -0.001872  3.287265  0.0
N  N77  1  0.68942489  0.34349785  0.65418614  1  -0.081887  -0.008888  2.990957  -0.005  -0.067843  -0.003463  3.292085  -0.001  -0.061546  -0.005657  3.299303  -0.003  -0.095944  -0.071402  -0.001872  3.287179  0.0
N  N78  1  0.18942537  0.84349763  0.84581340  1  -0.08182  -0.008855  2.991024  -0.005  -0.067784  -0.003464  3.292141  -0.001  -0.061485  -0.005656  3.299362  -0.003  -0.095935  -0.071336  -0.001872  3.287233  0.0
N  N79  1  0.31057470  0.65650210  0.34581354  1  -0.08189  -0.008832  2.990968  -0.005  -0.067853  -0.003464  3.292108  -0.001  -0.061552  -0.005655  3.299326  -0.003  -0.095949  -0.07141  -0.001872  3.287209  0.0
N  N80  1  0.73515013  0.05785920  0.73772891  1  -0.339644  0.150455  3.219851  0.192  -0.308968  0.094401  3.506232  0.128  -0.346779  0.072602  3.528226  0.107  -0.486665  -0.287396  0.105883  3.493494  0.137
N  N81  1  0.76485121  0.44214098  0.23773015  1  -0.339694  0.150445  3.219854  0.192  -0.309012  0.094398  3.506204  0.128  -0.346827  0.072602  3.528201  0.107  -0.486685  -0.287443  0.10588  3.493471  0.137
N  N82  1  0.26485074  0.94214074  0.26226908  1  -0.339606  0.150454  3.219713  0.192  -0.308911  0.094401  3.506068  0.128  -0.346724  0.072603  3.528066  0.107  -0.486642  -0.287353  0.105884  3.493339  0.137
N  N83  1  0.23514863  0.55785997  0.76227039  1  -0.339616  0.150437  3.219821  0.192  -0.308953  0.0944  3.506216  0.128  -0.346756  0.072605  3.528196  0.107  -0.486671  -0.287383  0.10588  3.493487  0.137
N  N84  1  0.77076614  0.80278916  0.81783683  1  -0.314274  0.054327  3.218865  0.071  -0.285367  0.038419  3.54463  0.054  -0.311377  0.031091  3.559198  0.047  -0.259315  -0.270094  0.042798  3.536066  0.057
N  N85  1  0.72923472  0.69721121  0.31783713  1  -0.31417  0.05434  3.218897  0.071  -0.285272  0.03842  3.544657  0.054  -0.311282  0.03109  3.559232  0.047  -0.259288  -0.269997  0.042799  3.536095  0.057
N  N86  1  0.22923473  0.19721078  0.18216285  1  -0.314298  0.054326  3.218972  0.071  -0.285394  0.038421  3.544733  0.054  -0.311402  0.031088  3.559306  0.047  -0.259341  -0.270116  0.042797  3.536167  0.057
N  N87  1  0.27076513  0.30278973  0.68216340  1  -0.314266  0.054329  3.218926  0.071  -0.285368  0.038419  3.544698  0.054  -0.311371  0.031091  3.559253  0.047  -0.259337  -0.270084  0.042798  3.536135  0.057
N  N88  1  0.59633518  0.62587444  0.75262481  1  -0.320537  0.059036  3.228594  0.078  -0.291019  0.041805  3.556298  0.059  -0.317177  0.03369  3.57043  0.052  -0.259204  -0.275426  0.046603  3.547807  0.062
N  N89  1  0.90366593  0.87412592  0.25262407  1  -0.320508  0.059036  3.228563  0.078  -0.290969  0.041805  3.556221  0.059  -0.31714  0.033688  3.57039  0.052  -0.259194  -0.275385  0.046603  3.547727  0.062
N  N90  1  0.40366671  0.37412451  0.24737572  1  -0.320554  0.059029  3.228581  0.078  -0.291025  0.041805  3.556275  0.059  -0.317185  0.03369  3.570413  0.052  -0.259211  -0.275441  0.0466  3.5478  0.062
N  N91  1  0.09633518  0.12587503  0.74737646  1  -0.320533  0.059031  3.228569  0.078  -0.291004  0.041806  3.556265  0.059  -0.317163  0.03369  3.570396  0.052  -0.259197  -0.275416  0.046604  3.547777  0.062
N  N92  1  0.67558978  0.59129878  0.84711976  1  -0.088161  0.002193  2.93223  0.004  -0.083494  0.002369  3.238545  0.003  -0.079805  0.000475  3.247199  0.001  -0.102497  -0.085316  0.004228  3.232472  0.005
N  N93  1  0.82440842  0.90870160  0.34711832  1  -0.088147  0.002192  2.932203  0.004  -0.083491  0.002369  3.238525  0.003  -0.079799  0.000475  3.247176  0.001  -0.10249  -0.08531  0.004229  3.232449  0.005
N  N94  1  0.32441108  0.40870116  0.15288162  1  -0.08814  0.002185  2.932176  0.004  -0.08348  0.002368  3.238481  0.003  -0.079789  0.000475  3.247135  0.001  -0.102505  -0.085296  0.004228  3.232413  0.005
N  N95  1  0.17558991  0.09129835  0.65288221  1  -0.088128  0.002197  2.932162  0.004  -0.083464  0.002367  3.238463  0.003  -0.079774  0.000476  3.247117  0.001  -0.102479  -0.085281  0.004228  3.232387  0.005
N  N96  1  0.78059391  0.69726681  0.88589259  1  -0.078251  0.004587  2.971838  0.007  -0.067441  0.003215  3.278795  0.004  -0.066139  0.001039  3.290409  0.002  -0.094468  -0.067665  0.005035  3.27091  0.006
N  N97  1  0.71940542  0.80273358  0.38589127  1  -0.07834  0.004577  2.972006  0.007  -0.067531  0.003215  3.278974  0.004  -0.066228  0.001041  3.290587  0.002  -0.0945  -0.067759  0.005035  3.271089  0.006
N  N98  1  0.21940848  0.30273413  0.11410795  1  -0.078265  0.004601  2.97193  0.007  -0.067451  0.003215  3.278875  0.004  -0.066149  0.00104  3.290489  0.002  -0.094454  -0.067678  0.005035  3.270993  0.006
N  N99  1  0.28059418  0.19726637  0.61410841  1  -0.07828  0.004584  2.971908  0.007  -0.067464  0.003216  3.278857  0.004  -0.066164  0.001039  3.290471  0.002  -0.094466  -0.067689  0.005035  3.270966  0.006
