# generated using pymatgen
data_CdH19C29(NO2)3
_symmetry_space_group_name_H-M   'P 1'
_cell_length_a   10.34677941
_cell_length_b   16.53257790
_cell_length_c   17.38557255
_cell_angle_alpha   89.99980604
_cell_angle_beta   91.49854239
_cell_angle_gamma   89.99962354
_symmetry_Int_Tables_number   1
_chemical_formula_structural   CdH19C29(NO2)3
_chemical_formula_sum   'Cd4 H76 C116 N12 O24'
_cell_volume   2972.94043077
_cell_formula_units_Z   4
loop_
 _symmetry_equiv_pos_site_id
 _symmetry_equiv_pos_as_xyz
  1  'x, y, z'
loop_
 _atom_site_type_symbol
 _atom_site_label
 _atom_site_symmetry_multiplicity
 _atom_site_fract_x
 _atom_site_fract_y
 _atom_site_fract_z
 _atom_site_occupancy
 _atom_site_pbe_bader_charge
 _atom_site_pbe_bader_spin_density
 _atom_site_pbe_cm5_charge
 _atom_site_pbe_ddec_charge
 _atom_site_pbe_ddec_spin_density
 _atom_site_pbe_ddec_sum_bond_order
 _atom_site_pbe_magmom
Cd  Cd0  1  0.82034668  0.37146243  0.02868183  1  1.261357  0  0.759481  0.868706  0  2.157844  0
Cd  Cd1  1  0.17965127  0.87146301  0.47131420  1  1.261327  0  0.759495  0.86868  0  2.157804  0
Cd  Cd2  1  0.17964296  0.62853510  0.97131696  1  1.261329  0  0.75945  0.868675  0  2.157795  0
Cd  Cd3  1  0.82034417  0.12853694  0.52868525  1  1.261378  0  0.759531  0.868725  0  2.157776  0
H  H4  1  0.62171500  0.35498113  0.88603606  1  0.138746  0  0.116573  0.094423  0  1.017274  0
H  H5  1  0.37828421  0.85498277  0.61395699  1  0.138661  0  0.116563  0.094465  0  1.017227  0
H  H6  1  0.37827078  0.64501580  0.11395921  1  0.138875  0  0.116639  0.094512  0  1.017205  0
H  H7  1  0.62171028  0.14502262  0.38603554  1  0.138634  0  0.116554  0.094443  0  1.017147  0
H  H8  1  0.60243943  0.37746551  0.74447221  1  0.083044  0  0.111084  0.119888  0  0.992705  0
H  H9  1  0.39756726  0.87746657  0.75552262  1  0.083178  0  0.111122  0.119954  0  0.992676  0
H  H10  1  0.39756182  0.62253505  0.25552216  1  0.083135  0  0.111073  0.119887  0  0.992591  0
H  H11  1  0.60243593  0.12253942  0.24446833  1  0.083016  0  0.111063  0.11987  0  0.992673  0
H  H12  1  0.98317901  0.48517145  0.75680401  1  0.112111  0  0.115167  0.127187  0  0.994613  0
H  H13  1  0.01682361  0.98517108  0.74319443  1  0.112318  0  0.115191  0.127256  0  0.99454  0
H  H14  1  0.01682221  0.51482306  0.24320244  1  0.112229  0  0.115183  0.127154  0  0.994587  0
H  H15  1  0.98317666  0.01483371  0.25680280  1  0.112301  0  0.115186  0.127233  0  0.994553  0
H  H16  1  0.99117394  0.45093696  0.89700309  1  0.120164  0  0.122949  0.108425  0  1.001627  0
H  H17  1  0.00882423  0.95093772  0.60299596  1  0.12011  0  0.122967  0.108442  0  1.0016  0
H  H18  1  0.00881956  0.54905271  0.10300208  1  0.120951  0  0.122943  0.108401  0  1.001669  0
H  H19  1  0.99117122  0.04906888  0.39700004  1  0.120213  0  0.123006  0.10849  0  1.001637  0
H  H20  1  0.64320213  0.36412592  0.62269717  1  0.084293  0  0.109336  0.120171  0  1.016822  0
H  H21  1  0.35679987  0.86412611  0.87729935  1  0.08425  0  0.109335  0.120145  0  1.016889  0
H  H22  1  0.35679717  0.63587161  0.37730235  1  0.084321  0  0.109364  0.120199  0  1.016853  0
H  H23  1  0.64320042  0.13587505  0.12269500  1  0.084241  0  0.109352  0.120149  0  1.016922  0
H  H24  1  0.76980148  0.52706971  0.44682346  1  0.041725  0  0.107075  0.113246  0  1.020683  0
H  H25  1  0.23020501  0.02706781  0.05317669  1  0.041761  0  0.107087  0.113312  0  1.020677  0
H  H26  1  0.23020458  0.47293387  0.55318077  1  0.041708  0  0.107096  0.113248  0  1.020774  0
H  H27  1  0.76979815  0.97292488  0.94682634  1  0.041926  0  0.107121  0.113324  0  1.02065  0
H  H28  1  0.13623077  0.75116761  0.62435562  1  0.094991  0  0.113811  0.080337  0  1.006191  0
H  H29  1  0.86377534  0.25116926  0.87564823  1  0.094606  0  0.113815  0.080324  0  1.006264  0
H  H30  1  0.86379171  0.24882326  0.37565635  1  0.094319  0  0.113778  0.080364  0  1.006187  0
H  H31  1  0.13623749  0.74883553  0.12435841  1  0.094898  0  0.113795  0.08034  0  1.006369  0
H  H32  1  0.99709520  0.63361729  0.65875695  1  0.102668  0  0.111882  0.120831  0  1.019188  0
H  H33  1  0.00290735  0.13361832  0.84124435  1  0.102725  0  0.111889  0.120807  0  1.019208  0
H  H34  1  0.00291859  0.36637722  0.34125201  1  0.102851  0  0.111841  0.120696  0  1.019203  0
H  H35  1  0.99709968  0.86638405  0.15876220  1  0.102516  0  0.111908  0.120861  0  1.019255  0
H  H36  1  0.92156117  0.59867474  0.41552218  1  0.093688  0  0.109106  0.116349  0  0.999769  0
H  H37  1  0.07844164  0.09867154  0.08447883  1  0.093966  0  0.109112  0.116362  0  0.999755  0
H  H38  1  0.07845068  0.40132702  0.58448675  1  0.093787  0  0.109087  0.116352  0  0.999749  0
H  H39  1  0.92156055  0.90132478  0.91552648  1  0.093742  0  0.109116  0.116343  0  0.999793  0
H  H40  1  0.06263121  0.71636719  0.39153947  1  0.104623  0  0.120093  0.097353  0  0.983352  0
H  H41  1  0.93737710  0.21636827  0.10846240  1  0.104589  0  0.120072  0.097393  0  0.983351  0
H  H42  1  0.93738740  0.28363094  0.60847244  1  0.104312  0  0.120023  0.097338  0  0.983404  0
H  H43  1  0.06263379  0.78363470  0.89154421  1  0.104707  0  0.120079  0.097338  0  0.983451  0
H  H44  1  0.58885566  0.28937378  0.53081469  1  0.123683  0  0.099932  0.099939  0  1.061192  0
H  H45  1  0.41114426  0.78936980  0.96917974  1  0.123605  0  0.099897  0.099886  0  1.061188  0
H  H46  1  0.41114172  0.71062858  0.46918364  1  0.123614  0  0.099929  0.099887  0  1.061163  0
H  H47  1  0.58887249  0.21063075  0.03080626  1  0.123745  0  0.099943  0.099855  0  1.061085  0
H  H48  1  0.43064619  0.22825434  0.43877013  1  0.12446  0  0.109649  0.131295  0  1.001909  0
H  H49  1  0.56935912  0.72824935  0.06122475  1  0.12447  0  0.109637  0.131268  0  1.001973  0
H  H50  1  0.56935119  0.77174984  0.56122821  1  0.124317  0  0.10967  0.131304  0  1.001981  0
H  H51  1  0.43065375  0.27175060  0.93876406  1  0.12437  0  0.109626  0.131257  0  1.002012  0
H  H52  1  0.43654235  0.44548204  0.30189389  1  0.10308  0  0.104217  0.118415  0  1.014082  0
H  H53  1  0.56346836  0.94547840  0.19809750  1  0.103039  0  0.104243  0.118439  0  1.013987  0
H  H54  1  0.56346373  0.55452275  0.69810516  1  0.102922  0  0.104233  0.118397  0  1.014084  0
H  H55  1  0.43652999  0.05451127  0.80190027  1  0.10297  0  0.104245  0.118473  0  1.0139  0
H  H56  1  0.58803122  0.50811910  0.39546599  1  0.06043  0  0.101987  0.101127  0  1.002631  0
H  H57  1  0.41197645  0.00811931  0.10452906  1  0.060566  0  0.10191  0.101055  0  1.002533  0
H  H58  1  0.41197485  0.49188085  0.60453479  1  0.060494  0  0.101958  0.101124  0  1.002497  0
H  H59  1  0.58802285  0.99187520  0.89547103  1  0.060494  0  0.10203  0.101187  0  1.002486  0
H  H60  1  0.12484715  0.33402769  0.23620544  1  0.126356  0  0.110061  0.129215  0  1.01245  0
H  H61  1  0.87515314  0.83402860  0.26379074  1  0.126243  0  0.110049  0.129223  0  1.012431  0
H  H62  1  0.87514442  0.66597830  0.76379222  1  0.126323  0  0.110063  0.129251  0  1.012433  0
H  H63  1  0.12484230  0.16597558  0.73620756  1  0.126317  0  0.110071  0.129272  0  1.012456  0
H  H64  1  0.32057944  0.37559530  0.02384707  1  0.099121  0  0.104914  0.102921  0  1.049807  0
H  H65  1  0.67940688  0.87559443  0.47614587  1  0.099147  0  0.104951  0.102994  0  1.049833  0
H  H66  1  0.67940925  0.62440465  0.97614882  1  0.098995  0  0.104887  0.102926  0  1.049847  0
H  H67  1  0.32057986  0.12440672  0.52385114  1  0.099041  0  0.104936  0.102972  0  1.049835  0
H  H68  1  0.53977500  0.30742727  0.22611206  1  0.119593  0  0.109586  0.129673  0  1.003876  0
H  H69  1  0.46022462  0.80742075  0.27388016  1  0.119745  0  0.109599  0.12965  0  1.003848  0
H  H70  1  0.46021560  0.69258055  0.77388731  1  0.119545  0  0.109632  0.12973  0  1.003646  0
H  H71  1  0.53977373  0.19257133  0.72611531  1  0.11973  0  0.109624  0.129706  0  1.003763  0
H  H72  1  0.81428297  0.54541294  0.02662380  1  0.650003  0  0.279126  0.378542  0  0.971081  0
H  H73  1  0.18571753  0.04541517  0.47337331  1  0.650004  0  0.279136  0.378556  0  0.97109  0
H  H74  1  0.18571054  0.45458520  0.97337389  1  0.649991  0  0.279087  0.3785  0  0.971156  0
H  H75  1  0.81428178  0.95458659  0.52662563  1  0.650105  0  0.279139  0.378607  0  0.971005  0
H  H76  1  0.67494228  0.50539343  0.03804378  1  0.633216  0  0.303427  0.393637  0  0.910576  0
H  H77  1  0.32505673  0.00539514  0.46194941  1  0.633523  0  0.303387  0.393547  0  0.910504  0
H  H78  1  0.32505221  0.49460410  0.96195048  1  0.633302  0  0.303379  0.393544  0  0.910608  0
H  H79  1  0.67494162  0.99460784  0.53804779  1  0.633483  0  0.303408  0.393662  0  0.910554  0
C  C80  1  0.70089120  0.38148263  0.85437893  1  0.490851  0  0.046181  0.091583  0  3.956944  0
C  C81  1  0.29910772  0.88148449  0.64561690  1  0.491038  0  0.046187  0.091616  0  3.957019  0
C  C82  1  0.29909844  0.61851308  0.14561985  1  0.490836  0  0.046076  0.091505  0  3.957211  0
C  C83  1  0.70088773  0.11851909  0.35438025  1  0.491371  0  0.046184  0.091532  0  3.95676  0
C  C84  1  0.69099061  0.39497676  0.77548106  1  -0.106699  0  -0.080969  -0.167409  0  3.938031  0
C  C85  1  0.30901300  0.89497769  0.72451424  1  -0.106818  0  -0.080994  -0.167475  0  3.938273  0
C  C86  1  0.30900580  0.60502077  0.22451611  1  -0.106648  0  -0.080977  -0.167468  0  3.938115  0
C  C87  1  0.69098729  0.10502649  0.27548127  1  -0.106647  0  -0.080893  -0.167293  0  3.937948  0
C  C88  1  0.79314216  0.43296888  0.73805900  1  0.053017  0  0.014927  0.082886  0  3.966461  0
C  C89  1  0.20685814  0.93297130  0.76193669  1  0.053322  0  0.014802  0.082637  0  3.966773  0
C  C90  1  0.20685618  0.56702744  0.26194280  1  0.05302  0  0.014903  0.082839  0  3.966383  0
C  C91  1  0.79314117  0.06703167  0.23805995  1  0.052949  0  0.014845  0.082724  0  3.966693  0
C  C92  1  0.90267302  0.45407902  0.78287430  1  -0.011439  0  -0.074942  -0.151104  0  3.921192  0
C  C93  1  0.09732898  0.95408083  0.71712193  1  -0.011863  0  -0.074813  -0.150934  0  3.921201  0
C  C94  1  0.09732628  0.54591670  0.21712637  1  -0.011648  0  -0.074843  -0.150959  0  3.921067  0
C  C95  1  0.90267033  0.04592275  0.28287643  1  -0.011745  0  -0.074879  -0.151043  0  3.921241  0
C  C96  1  0.90673389  0.43638834  0.86098354  1  0.458545  0  0.049423  0.097102  0  3.933887  0
C  C97  1  0.09326540  0.93638985  0.63901443  1  0.458995  0  0.049297  0.096998  0  3.933863  0
C  C98  1  0.09326251  0.56360556  0.13901708  1  0.458182  0  0.049434  0.097132  0  3.93411  0
C  C99  1  0.90673101  0.06361494  0.36098561  1  0.458748  0  0.049342  0.096978  0  3.934137  0
C  C100  1  0.78584279  0.45416416  0.65516494  1  0.459446  0  0.116884  0.19313  0  4.051001  0
C  C101  1  0.21416114  0.95416444  0.84483305  1  0.459267  0  0.116934  0.193202  0  4.050973  0
C  C102  1  0.21416038  0.54583397  0.34483636  1  0.459061  0  0.116899  0.19321  0  4.051074  0
C  C103  1  0.78583817  0.04583732  0.15516532  1  0.459546  0  0.116901  0.193137  0  4.050984  0
C  C104  1  0.70162845  0.41458137  0.60333141  1  0.007044  0  -0.07761  -0.210995  0  3.896493  0
C  C105  1  0.29837784  0.91458294  0.89666789  1  0.006977  0  -0.077663  -0.210949  0  3.896571  0
C  C106  1  0.29837665  0.58541556  0.39667107  1  0.006742  0  -0.077571  -0.21097  0  3.89658  0
C  C107  1  0.70162244  0.08541883  0.10332991  1  0.006888  0  -0.077608  -0.210912  0  3.896558  0
C  C108  1  0.69216064  0.44061497  0.52646646  1  -0.01524  0  0.01194  0.126406  0  4.005175  0
C  C109  1  0.30784537  0.94061320  0.97353103  1  -0.007355  0  0.012061  0.126571  0  4.005123  0
C  C110  1  0.30784639  0.55938317  0.47353663  1  -0.015052  0  0.011863  0.126336  0  4.005357  0
C  C111  1  0.69215685  0.05938432  0.02646393  1  -0.015179  0  0.011928  0.126377  0  4.005353  0
C  C112  1  0.77242378  0.50490488  0.50575693  1  -0.028036  0  -0.07983  -0.209581  0  3.902433  0
C  C113  1  0.22758403  0.00490263  0.99424199  1  -0.028285  0  -0.07991  -0.209799  0  3.90236  0
C  C114  1  0.22758229  0.49509447  0.49424673  1  -0.028267  0  -0.07976  -0.209453  0  3.902541  0
C  C115  1  0.77241818  0.99509429  0.00575929  1  -0.028305  0  -0.079899  -0.209723  0  3.902581  0
C  C116  1  0.85689409  0.53984592  0.56037629  1  0.567609  0  0.118198  0.201703  0  4.039969  0
C  C117  1  0.14311140  0.03984361  0.93962305  1  0.567724  0  0.118135  0.20176  0  4.039896  0
C  C118  1  0.14310907  0.46015463  0.43962961  1  0.568033  0  0.118162  0.201717  0  4.03981  0
C  C119  1  0.85689467  0.96015634  0.06037830  1  0.567706  0  0.118233  0.201799  0  4.039826  0
C  C120  1  0.08688531  0.71564520  0.57968532  1  0.456916  0  0.047708  0.101963  0  3.968282  0
C  C121  1  0.91311634  0.21564709  0.92031685  1  0.457225  0  0.04775  0.10204  0  3.968295  0
C  C122  1  0.91313040  0.28435172  0.42032597  1  0.457948  0  0.04766  0.10189  0  3.968343  0
C  C123  1  0.08689165  0.78435709  0.07969029  1  0.456794  0  0.04771  0.102003  0  3.968257  0
C  C124  1  0.00917256  0.65070809  0.59893846  1  -0.009349  0  -0.077474  -0.154914  0  3.924863  0
C  C125  1  0.99082980  0.15070851  0.90106278  1  -0.009278  0  -0.077474  -0.154917  0  3.924834  0
C  C126  1  0.99083832  0.34928884  0.40107275  1  -0.009287  0  -0.077441  -0.154763  0  3.924807  0
C  C127  1  0.00917819  0.84929264  0.09894320  1  -0.009124  0  -0.077474  -0.154966  0  3.924857  0
C  C128  1  0.94396681  0.60739483  0.54041153  1  0.048476  0  0.014204  0.084385  0  3.961859  0
C  C129  1  0.05603312  0.10739462  0.95958923  1  -0.012045  0  0.014233  0.084417  0  3.96171  0
C  C130  1  0.05603827  0.39260572  0.45959843  1  -0.012373  0  0.014195  0.084403  0  3.961737  0
C  C131  1  0.94397198  0.89260533  0.04041441  1  -0.01221  0  0.014158  0.084389  0  3.961673  0
C  C132  1  0.96518129  0.63084197  0.46426378  1  -0.083861  0  -0.082713  -0.166146  0  3.945393  0
C  C133  1  0.03482118  0.13084092  0.03573941  1  -0.023625  0  -0.08271  -0.166113  0  3.9454  0
C  C134  1  0.03482669  0.36915919  0.53574738  1  -0.023365  0  -0.082711  -0.166213  0  3.94557  0
C  C135  1  0.96518198  0.86915781  0.96426707  1  -0.023225  0  -0.082628  -0.166083  0  3.945269  0
C  C136  1  0.04575212  0.69605692  0.45006456  1  0.470602  0  0.045744  0.098221  0  3.962897  0
C  C137  1  0.95425158  0.19605632  0.04993730  1  0.470573  0  0.045706  0.098066  0  3.963147  0
C  C138  1  0.95426070  0.30394303  0.54994610  1  0.470354  0  0.045645  0.098111  0  3.96312  0
C  C139  1  0.04575738  0.80394362  0.95006928  1  0.470666  0  0.045748  0.098247  0  3.963149  0
C  C140  1  0.60087816  0.40351215  0.47059036  1  -0.065127  0  -0.022781  0.026118  0  4.015344  0
C  C141  1  0.39912042  0.90351159  0.02940385  1  -0.071172  0  -0.022815  0.025966  0  4.015472  0
C  C142  1  0.39912405  0.59649083  0.52940748  1  -0.065312  0  -0.022844  0.025992  0  4.015516  0
C  C143  1  0.60088180  0.09648473  0.97059054  1  -0.064558  0  -0.022852  0.026081  0  4.015461  0
C  C144  1  0.55340272  0.32480701  0.48186284  1  -0.073018  0  -0.088583  -0.102587  0  3.980079  0
C  C145  1  0.44659669  0.82480449  0.01813565  1  -0.074651  0  -0.088519  -0.102488  0  3.979843  0
C  C146  1  0.44659368  0.67519475  0.51813835  1  -0.072748  0  -0.088522  -0.102434  0  3.979735  0
C  C147  1  0.55341617  0.17519606  0.98185373  1  -0.072969  0  -0.088518  -0.102418  0  3.979783  0
C  C148  1  0.46571266  0.28963370  0.42997326  1  0.009535  0  -0.101293  -0.197417  0  3.983978  0
C  C149  1  0.53428810  0.78962822  0.07002595  1  0.009367  0  -0.101178  -0.197176  0  3.983806  0
C  C150  1  0.53428373  0.71037169  0.57003023  1  0.009689  0  -0.101258  -0.197287  0  3.983886  0
C  C151  1  0.46572960  0.21037234  0.92996639  1  0.009085  0  -0.101264  -0.197272  0  3.983648  0
C  C152  1  0.42418984  0.33308387  0.36491741  1  0.381759  0  0.087757  0.267122  0  4.041134  0
C  C153  1  0.57581434  0.83307980  0.13507711  1  0.381553  0  0.087537  0.266736  0  4.04153  0
C  C154  1  0.57580657  0.66692092  0.63508263  1  0.381564  0  0.087627  0.266805  0  4.041612  0
C  C155  1  0.42419176  0.16691471  0.86491216  1  0.381849  0  0.087674  0.266911  0  4.041325  0
C  C156  1  0.47008907  0.41154041  0.35220459  1  -0.06333  0  -0.105008  -0.204883  0  4.014956  0
C  C157  1  0.52992102  0.91153406  0.14779092  1  -0.063173  0  -0.104839  -0.204617  0  4.014883  0
C  C158  1  0.52991700  0.58846559  0.64779676  1  -0.063026  0  -0.104834  -0.204537  0  4.014931  0
C  C159  1  0.47008312  0.08846105  0.85220752  1  -0.063252  0  -0.105015  -0.204924  0  4.015025  0
C  C160  1  0.55701923  0.44596308  0.40484380  1  0.02651  0  -0.086927  -0.096329  0  3.996031  0
C  C161  1  0.44298952  0.94595788  0.09515216  1  0.026658  0  -0.086906  -0.096358  0  3.995805  0
C  C162  1  0.44298877  0.55404110  0.59515758  1  0.026446  0  -0.086998  -0.096529  0  3.995824  0
C  C163  1  0.55701558  0.05403421  0.90484860  1  0.02645  0  -0.086918  -0.09638  0  3.99592  0
C  C164  1  0.33221196  0.31860499  0.23940018  1  0.446449  0  0.077869  0.24589  0  4.066171  0
C  C165  1  0.66778464  0.81860131  0.26059254  1  0.447202  0  0.077841  0.245896  0  4.066251  0
C  C166  1  0.66777575  0.68140101  0.76059742  1  0.446479  0  0.077802  0.245872  0  4.066198  0
C  C167  1  0.33221274  0.18139501  0.73940407  1  0.446952  0  0.077861  0.245813  0  4.066285  0
C  C168  1  0.21338335  0.33590024  0.20388218  1  -0.083106  0  -0.087964  -0.194939  0  3.931551  0
C  C169  1  0.78661306  0.83589897  0.29611278  1  -0.083943  0  -0.087922  -0.194968  0  3.931129  0
C  C170  1  0.78661209  0.66410274  0.79611670  1  -0.083576  0  -0.087975  -0.195014  0  3.93127  0
C  C171  1  0.21337949  0.16410521  0.70388317  1  -0.08323  0  -0.088002  -0.195041  0  3.931387  0
C  C172  1  0.20851169  0.35656202  0.12560659  1  -0.002615  0  -0.020339  -0.015977  0  4.000724  0
C  C173  1  0.79147771  0.85656408  0.37439279  1  -0.002656  0  -0.020354  -0.015936  0  4.0005  0
C  C174  1  0.79147601  0.64343793  0.87439446  1  -0.002323  0  -0.020276  -0.015845  0  4.000621  0
C  C175  1  0.20851096  0.14344010  0.62560654  1  -0.00282  0  -0.020282  -0.015872  0  4.000473  0
C  C176  1  0.32268364  0.36009428  0.08462411  1  0.000632  0  -0.085279  -0.128214  0  3.948534  0
C  C177  1  0.67730671  0.86008940  0.41536837  1  0.000953  0  -0.085307  -0.128357  0  3.948767  0
C  C178  1  0.67730986  0.63990688  0.91537530  1  0.000719  0  -0.085275  -0.128278  0  3.948785  0
C  C179  1  0.32268101  0.13991115  0.58462635  1  0.000758  0  -0.085305  -0.128281  0  3.94864  0
C  C180  1  0.44157506  0.34274580  0.12092426  1  -0.034861  0  -0.019303  -0.005827  0  3.995669  0
C  C181  1  0.55842032  0.84273730  0.37906606  1  -0.034917  0  -0.019315  -0.005699  0  3.995361  0
C  C182  1  0.55841458  0.65725959  0.87907395  1  -0.034964  0  -0.019337  -0.005957  0  3.995883  0
C  C183  1  0.44157223  0.15726083  0.62093104  1  -0.034663  0  -0.01935  -0.00589  0  3.995691  0
C  C184  1  0.44641375  0.32061480  0.19847572  1  -0.065785  0  -0.092452  -0.211897  0  3.95951  0
C  C185  1  0.55358573  0.82060660  0.30151589  1  -0.066209  0  -0.092494  -0.21191  0  3.959455  0
C  C186  1  0.55358362  0.67939120  0.80152549  1  -0.065747  0  -0.092461  -0.211904  0  3.959592  0
C  C187  1  0.44640681  0.17938972  0.69848064  1  -0.066369  0  -0.092453  -0.211812  0  3.959555  0
C  C188  1  0.08065805  0.37479302  0.08680239  1  1.573763  0  0.19363  0.54969  0  4.247472  0
C  C189  1  0.91933310  0.87479624  0.41319351  1  1.574069  0  0.193507  0.549465  0  4.247644  0
C  C190  1  0.91933353  0.62520754  0.91319297  1  1.574084  0  0.193599  0.549712  0  4.247511  0
C  C191  1  0.08065751  0.12520189  0.58680587  1  1.573762  0  0.193501  0.549582  0  4.247278  0
C  C192  1  0.56481985  0.35113452  0.07806412  1  1.570007  0  0.188512  0.557617  0  4.239234  0
C  C193  1  0.43516964  0.85112697  0.42192320  1  1.571046  0  0.188382  0.557333  0  4.23963  0
C  C194  1  0.43517076  0.64886604  0.92193410  1  1.570639  0  0.188463  0.557525  0  4.239378  0
C  C195  1  0.56482291  0.14886753  0.57807045  1  1.570685  0  0.188358  0.557291  0  4.239596  0
N  N196  1  0.80717606  0.40136914  0.89662723  1  -1.223379  0  -0.32725  -0.250774  0  3.524246  0
N  N197  1  0.19282265  0.90137218  0.60336797  1  -1.223747  0  -0.327205  -0.250818  0  3.524169  0
N  N198  1  0.19281455  0.59862416  0.10337272  1  -1.223881  0  -0.327292  -0.25084  0  3.524547  0
N  N199  1  0.80717474  0.09863321  0.39662519  1  -1.223948  0  -0.327289  -0.250765  0  3.524309  0
N  N200  1  0.86319299  0.51506864  0.63400024  1  -1.173175  0  -0.308307  -0.339797  0  3.31026  0
N  N201  1  0.13680794  0.01506903  0.86599796  1  -1.173206  0  -0.308304  -0.339854  0  3.310208  0
N  N202  1  0.13680727  0.48493131  0.36600390  1  -1.172663  0  -0.308322  -0.339897  0  3.310075  0
N  N203  1  0.86319620  0.98493333  0.13400278  1  -1.173227  0  -0.30834  -0.339859  0  3.310141  0
N  N204  1  0.10434731  0.73908387  0.50664914  1  -1.207126  0  -0.326943  -0.253841  0  3.492286  0
N  N205  1  0.89565603  0.23908194  0.99335183  1  -1.207052  0  -0.326918  -0.253786  0  3.492342  0
N  N206  1  0.89566743  0.26091306  0.49336386  1  -1.207199  0  -0.326683  -0.253635  0  3.492135  0
N  N207  1  0.10435003  0.76091862  0.00665067  1  -1.207101  0  -0.32696  -0.253892  0  3.492198  0
O  O208  1  0.07699216  0.39973239  0.01728723  1  -1.186927  0  -0.324493  -0.57372  0  2.221552  0
O  O209  1  0.92299098  0.89973354  0.48271364  1  -1.186963  0  -0.324486  -0.573664  0  2.221391  0
O  O210  1  0.92300039  0.60026695  0.98270872  1  -1.187012  0  -0.324533  -0.573805  0  2.221608  0
O  O211  1  0.07699575  0.10026883  0.51728797  1  -1.186875  0  -0.32447  -0.573726  0  2.221448  0
O  O212  1  0.76372166  0.50643418  0.05874038  1  -1.256511  0  -0.590937  -0.74711  0  2.024163  0
O  O213  1  0.23627539  0.00643451  0.44125853  1  -1.256823  0  -0.590901  -0.747061  0  2.024006  0
O  O214  1  0.23626992  0.49356697  0.94125959  1  -1.256561  0  -0.590842  -0.747008  0  2.024117  0
O  O215  1  0.76372295  0.99356846  0.55874039  1  -1.256807  0  -0.590915  -0.747207  0  2.024012  0
O  O216  1  0.97892844  0.36267263  0.12506956  1  -1.157372  0  -0.330722  -0.540205  0  2.198811  0
O  O217  1  0.02106283  0.86267843  0.37493213  1  -1.1574  0  -0.330626  -0.540051  0  2.199035  0
O  O218  1  0.02106314  0.63732974  0.87492753  1  -1.157334  0  -0.330685  -0.540189  0  2.198794  0
O  O219  1  0.97892679  0.13731608  0.62507355  1  -1.157444  0  -0.330678  -0.540169  0  2.198772  0
O  O220  1  0.56274786  0.38870832  0.01443751  1  -1.191413  0  -0.338523  -0.580971  0  2.135166  0
O  O221  1  0.43724412  0.88870055  0.48555261  1  -1.192385  0  -0.338387  -0.580783  0  2.135341  0
O  O222  1  0.43724179  0.61129223  0.98555782  1  -1.191794  0  -0.338441  -0.580806  0  2.135369  0
O  O223  1  0.56275519  0.11129396  0.51444575  1  -1.192086  0  -0.338403  -0.580757  0  2.135478  0
O  O224  1  0.66718901  0.32016630  0.10929183  1  -1.163988  0  -0.344617  -0.556897  0  2.175508  0
O  O225  1  0.33280081  0.82016413  0.39069502  1  -1.164138  0  -0.344589  -0.556835  0  2.175571  0
O  O226  1  0.33280063  0.67983485  0.89070407  1  -1.164226  0  -0.344647  -0.556914  0  2.175331  0
O  O227  1  0.66719173  0.17984005  0.60930036  1  -1.163946  0  -0.344583  -0.556792  0  2.175296  0
O  O228  1  0.33408601  0.29631794  0.31667565  1  -1.096173  0  -0.157159  -0.213927  0  2.529278  0
O  O229  1  0.66591953  0.79631575  0.18331786  1  -1.096167  0  -0.15719  -0.213908  0  2.529428  0
O  O230  1  0.66590750  0.70368866  0.68332319  1  -1.096137  0  -0.157157  -0.213886  0  2.529432  0
O  O231  1  0.33408269  0.20368056  0.81667595  1  -1.09618  0  -0.157162  -0.213875  0  2.529518  0
