# generated using pymatgen
data_AgH6C7NO2
_symmetry_space_group_name_H-M   'P 1'
_cell_length_a   4.86947663
_cell_length_b   5.88843235
_cell_length_c   23.88015855
_cell_angle_alpha   90.00046599
_cell_angle_beta   90.00044298
_cell_angle_gamma   90.00024083
_symmetry_Int_Tables_number   1
_chemical_formula_structural   AgH6C7NO2
_chemical_formula_sum   'Ag4 H24 C28 N4 O8'
_cell_volume   684.72972565
_cell_formula_units_Z   4
loop_
 _symmetry_equiv_pos_site_id
 _symmetry_equiv_pos_as_xyz
  1  'x, y, z'
loop_
 _atom_site_type_symbol
 _atom_site_label
 _atom_site_symmetry_multiplicity
 _atom_site_fract_x
 _atom_site_fract_y
 _atom_site_fract_z
 _atom_site_occupancy
 _atom_site_hle17_bader_spin_density
 _atom_site_hle17_ddec_charge
 _atom_site_hle17_ddec_spin_density
 _atom_site_hle17_ddec_sum_bond_order
 _atom_site_hle17_magmom
 _atom_site_hse06_10hf_bader_spin_density
 _atom_site_hse06_10hf_ddec_charge
 _atom_site_hse06_10hf_ddec_spin_density
 _atom_site_hse06_10hf_ddec_sum_bond_order
 _atom_site_hse06_10hf_magmom
 _atom_site_hse06_bader_spin_density
 _atom_site_hse06_ddec_charge
 _atom_site_hse06_ddec_spin_density
 _atom_site_hse06_ddec_sum_bond_order
 _atom_site_hse06_magmom
 _atom_site_pbe_bader_spin_density
 _atom_site_pbe_cm5_charge
 _atom_site_pbe_ddec_charge
 _atom_site_pbe_ddec_spin_density
 _atom_site_pbe_ddec_sum_bond_order
 _atom_site_pbe_magmom
Ag  Ag0  1  0.63310438  0.28338933  0.26739332  1  0  0.550495  0  1.433471  0  0  0.414761  0  1.905839  0  0  0.450082  0  1.846053  0  0  0.423972  0.38994  0  1.947457  0
Ag  Ag1  1  0.13309070  0.71663546  0.73260725  1  0  0.550481  0  1.433588  0  0  0.414827  0  1.905892  0  0  0.450143  0  1.846106  0  0  0.424031  0.390014  0  1.947508  0
Ag  Ag2  1  0.63308606  0.78338478  0.23261702  1  0  0.550547  0  1.433736  0  0  0.41477  0  1.906064  0  0  0.450114  0  1.846249  0  0  0.424011  0.389953  0  1.947683  0
Ag  Ag3  1  0.13308232  0.21662472  0.76738732  1  0  0.550497  0  1.433556  0  0  0.414744  0  1.905874  0  0  0.45006  0  1.846106  0  0  0.423984  0.389925  0  1.947492  0
H  H4  1  0.15547821  0.96446563  0.20216163  1  0  0.302632  0  0.960426  0  0  0.285354  0  1.024938  0  0  0.293729  0  1.018561  0  0  0.282958  0.279461  0  1.029339  0
H  H5  1  0.65545884  0.03552952  0.79784490  1  0  0.302672  0  0.960327  0  0  0.285397  0  1.024858  0  0  0.293775  0  1.018461  0  0  0.282987  0.279508  0  1.029247  0
H  H6  1  0.15547720  0.46451069  0.29784791  1  0  0.302554  0  0.960378  0  0  0.285276  0  1.02481  0  0  0.293626  0  1.018503  0  0  0.282964  0.279391  0  1.029186  0
H  H7  1  0.65549065  0.53552522  0.70215359  1  0  0.30269  0  0.960313  0  0  0.285316  0  1.024916  0  0  0.293684  0  1.018551  0  0  0.282982  0.279422  0  1.02932  0
H  H8  1  0.21553202  0.73753519  0.16314888  1  0  0.308808  0  0.929026  0  0  0.29751  0  0.984684  0  0  0.304133  0  0.980898  0  0  0.28853  0.292676  0  0.9876  0
H  H9  1  0.71550829  0.26242849  0.83685666  1  0  0.308761  0  0.929135  0  0  0.297486  0  0.98476  0  0  0.304103  0  0.980984  0  0  0.288506  0.292657  0  0.987663  0
H  H10  1  0.21550938  0.23760126  0.33686312  1  0  0.308717  0  0.928898  0  0  0.297412  0  0.984582  0  0  0.304027  0  0.980812  0  0  0.288476  0.292585  0  0.987482  0
H  H11  1  0.71552271  0.76244393  0.66314200  1  0  0.308717  0  0.929161  0  0  0.297476  0  0.984729  0  0  0.304096  0  0.980944  0  0  0.288529  0.292647  0  0.987633  0
H  H12  1  0.67190658  0.81103290  0.09914685  1  0  0.118889  0  0.949734  0  0  0.129993  0  1.008901  0  0  0.133428  0  1.007817  0  0  0.104698  0.127396  0  1.010145  0
H  H13  1  0.17187178  0.18891878  0.90085808  1  0  0.118897  0  0.94972  0  0  0.129972  0  1.008897  0  0  0.133413  0  1.007813  0  0  0.104657  0.127376  0  1.010144  0
H  H14  1  0.67189654  0.31108862  0.40086275  1  0  0.11886  0  0.949705  0  0  0.129955  0  1.008888  0  0  0.133413  0  1.007774  0  0  0.104669  0.127357  0  1.010143  0
H  H15  1  0.17191468  0.68895986  0.59913882  1  0  0.118957  0  0.949621  0  0  0.129942  0  1.008939  0  0  0.133379  0  1.007838  0  0  0.104657  0.12734  0  1.010201  0
H  H16  1  0.79112005  0.06554591  0.01948768  1  0  0.08069  0  0.97683  0  0  0.091993  0  1.037998  0  0  0.09387  0  1.038203  0  0  0.096255  0.090664  0  1.037833  0
H  H17  1  0.29110488  0.93436656  0.98051148  1  0  0.080692  0  0.976867  0  0  0.091942  0  1.038052  0  0  0.093744  0  1.038347  0  0  0.096182  0.090662  0  1.037838  0
H  H18  1  0.79112768  0.56563155  0.48051588  1  0  0.08067  0  0.976888  0  0  0.091961  0  1.038031  0  0  0.093781  0  1.038306  0  0  0.096163  0.090634  0  1.037859  0
H  H19  1  0.29116297  0.43441339  0.51948370  1  0  0.080785  0  0.976814  0  0  0.092044  0  1.038016  0  0  0.093873  0  1.038276  0  0  0.096218  0.090715  0  1.037848  0
H  H20  1  0.55674050  0.44235221  0.00982391  1  0  0.085798  0  0.978198  0  0  0.097351  0  1.040275  0  0  0.099641  0  1.040432  0  0  0.09761  0.095797  0  1.040148  0
H  H21  1  0.05671742  0.55754883  0.99016167  1  0  0.085776  0  0.978201  0  0  0.09737  0  1.040225  0  0  0.099613  0  1.040441  0  0  0.097674  0.095863  0  1.040046  0
H  H22  1  0.55674581  0.94245413  0.49017024  1  0  0.085635  0  0.978139  0  0  0.09725  0  1.040175  0  0  0.099493  0  1.04039  0  0  0.097586  0.09573  0  1.04001  0
H  H23  1  0.05680042  0.05758617  0.50983377  1  0  0.085747  0  0.978091  0  0  0.097339  0  1.040165  0  0  0.099584  0  1.040375  0  0  0.097598  0.095832  0  1.039989  0
H  H24  1  0.20361455  0.55473834  0.07970991  1  0  0.088981  0  0.963194  0  0  0.101061  0  1.022996  0  0  0.104087  0  1.020836  0  0  0.102333  0.098673  0  1.024984  0
H  H25  1  0.70357926  0.44520277  0.92028049  1  0  0.089068  0  0.963197  0  0  0.101213  0  1.022893  0  0  0.104197  0  1.020792  0  0  0.102406  0.098826  0  1.024878  0
H  H26  1  0.20359780  0.05480116  0.42029030  1  0  0.089139  0  0.963079  0  0  0.101251  0  1.022828  0  0  0.104255  0  1.02069  0  0  0.102458  0.098867  0  1.024817  0
H  H27  1  0.70365350  0.94522656  0.57971476  1  0  0.088879  0  0.96333  0  0  0.100996  0  1.023095  0  0  0.104003  0  1.020956  0  0  0.102346  0.098611  0  1.025077  0
C  C28  1  0.36960158  0.03819112  0.13335163  1  0  0.275837  0  3.730707  0  0  0.268317  0  3.967972  0  0  0.278073  0  3.99122  0  0  0.088558  0.261758  0  3.952257  0
C  C29  1  0.86957451  0.96177217  0.86664955  1  0  0.275749  0  3.730407  0  0  0.268205  0  3.967814  0  0  0.277943  0  3.991071  0  0  0.088562  0.261661  0  3.952082  0
C  C30  1  0.36961033  0.53824799  0.36665395  1  0  0.275824  0  3.730491  0  0  0.268305  0  3.967771  0  0  0.278042  0  3.991037  0  0  0.088743  0.261764  0  3.952037  0
C  C31  1  0.86961710  0.46179681  0.63334681  1  0  0.275906  0  3.730475  0  0  0.268482  0  3.967632  0  0  0.278216  0  3.990891  0  0  0.088668  0.261936  0  3.951902  0
C  C32  1  0.56817065  0.97405689  0.09388182  1  0  -0.174117  0  3.699838  0  0  -0.190172  0  3.946801  0  0  -0.197466  0  3.967637  0  0  -0.098942  -0.185491  0  3.933218  0
C  C33  1  0.06814394  0.02588878  0.90611973  1  0  -0.174029  0  3.699898  0  0  -0.19002  0  3.946867  0  0  -0.197308  0  3.96769  0  0  -0.098911  -0.185345  0  3.933293  0
C  C34  1  0.56818305  0.47412673  0.40612236  1  0  -0.173871  0  3.699429  0  0  -0.18995  0  3.946421  0  0  -0.197241  0  3.967262  0  0  -0.099009  -0.185273  0  3.932828  0
C  C35  1  0.06820342  0.52592423  0.59387877  1  0  -0.174185  0  3.699585  0  0  -0.190158  0  3.946529  0  0  -0.197433  0  3.967349  0  0  -0.098986  -0.185483  0  3.932936  0
C  C36  1  0.63579361  0.11790624  0.04970526  1  0  -0.032084  0  3.777402  0  0  -0.045533  0  4.023437  0  0  -0.043428  0  4.043308  0  0  -0.085881  -0.046627  0  4.009593  0
C  C37  1  0.13577782  0.88202526  0.95029197  1  0  -0.032296  0  3.777471  0  0  -0.04568  0  4.023552  0  0  -0.043528  0  4.043448  0  0  -0.08579  -0.046812  0  4.0097  0
C  C38  1  0.63581440  0.61799384  0.45029625  1  0  -0.032409  0  3.777328  0  0  -0.045816  0  4.023407  0  0  -0.043675  0  4.043291  0  0  -0.085795  -0.04691  0  4.009574  0
C  C39  1  0.13585560  0.38205654  0.54970601  1  0  -0.032289  0  3.777307  0  0  -0.045679  0  4.023311  0  0  -0.043537  0  4.043189  0  0  -0.085813  -0.046773  0  4.009478  0
C  C40  1  0.50573742  0.32861638  0.04425419  1  0  -0.099766  0  3.785054  0  0  -0.114184  0  4.037701  0  0  -0.119486  0  4.059521  0  0  -0.101596  -0.11061  0  4.022618  0
C  C41  1  0.00571160  0.67131821  0.95573913  1  0  -0.099682  0  3.785065  0  0  -0.114157  0  4.037738  0  0  -0.11942  0  4.059545  0  0  -0.101687  -0.11062  0  4.022654  0
C  C42  1  0.50574368  0.82869436  0.45574544  1  0  -0.099467  0  3.784872  0  0  -0.113954  0  4.037519  0  0  -0.119218  0  4.059338  0  0  -0.101575  -0.110405  0  4.022423  0
C  C43  1  0.00578953  0.17135061  0.54425835  1  0  -0.099592  0  3.784841  0  0  -0.114069  0  4.037498  0  0  -0.119332  0  4.059317  0  0  -0.10157  -0.110531  0  4.022395  0
C  C44  1  0.31003455  0.39267214  0.08341885  1  0  -0.053026  0  3.773729  0  0  -0.077599  0  4.023782  0  0  -0.075274  0  4.044069  0  0  -0.086191  -0.078753  0  4.010117  0
C  C45  1  0.80999938  0.60727169  0.91657411  1  0  -0.053085  0  3.773809  0  0  -0.077625  0  4.023804  0  0  -0.075274  0  4.044109  0  0  -0.086152  -0.07878  0  4.010149  0
C  C46  1  0.31003369  0.89273927  0.41658147  1  0  -0.053207  0  3.773788  0  0  -0.077822  0  4.023826  0  0  -0.075481  0  4.044109  0  0  -0.086351  -0.078982  0  4.010177  0
C  C47  1  0.81006389  0.10729966  0.58342070  1  0  -0.052971  0  3.773816  0  0  -0.077534  0  4.023856  0  0  -0.075194  0  4.044132  0  0  -0.086202  -0.078688  0  4.010201  0
C  C48  1  0.23848565  0.25175942  0.12855758  1  0  -0.180847  0  3.727555  0  0  -0.159599  0  3.964313  0  0  -0.171912  0  3.98817  0  0  -0.027781  -0.151569  0  3.948264  0
C  C49  1  0.73845693  0.74819162  0.87143842  1  0  -0.180727  0  3.727507  0  0  -0.159612  0  3.964507  0  0  -0.171918  0  3.988356  0  0  -0.027799  -0.151586  0  3.948453  0
C  C50  1  0.23849426  0.75182528  0.37144443  1  0  -0.180919  0  3.727741  0  0  -0.159614  0  3.964442  0  0  -0.171917  0  3.988293  0  0  -0.027782  -0.151592  0  3.948394  0
C  C51  1  0.73850170  0.24822596  0.62855576  1  0  -0.181026  0  3.727598  0  0  -0.159871  0  3.964477  0  0  -0.172177  0  3.988334  0  0  -0.027874  -0.151844  0  3.948421  0
C  C52  1  0.02252542  0.33780536  0.16821044  1  0  0.647795  0  3.898494  0  0  0.59452  0  4.186353  0  0  0.629513  0  4.181514  0  0  0.20399  0.570597  0  4.188959  0
C  C53  1  0.52250421  0.66216729  0.83178379  1  0  0.648021  0  3.898651  0  0  0.594765  0  4.186527  0  0  0.62976  0  4.181676  0  0  0.203994  0.570841  0  4.189136  0
C  C54  1  0.02251871  0.83785693  0.33179547  1  0  0.648238  0  3.898619  0  0  0.594884  0  4.186441  0  0  0.629882  0  4.181593  0  0  0.204199  0.570959  0  4.189052  0
C  C55  1  0.52252940  0.16218705  0.66820714  1  0  0.648013  0  3.898822  0  0  0.594677  0  4.186713  0  0  0.629667  0  4.181873  0  0  0.204117  0.570753  0  4.189315  0
N  N56  1  0.30405503  0.88556701  0.17798800  1  0  -0.661739  0  3.258157  0  0  -0.590449  0  3.507481  0  0  -0.615951  0  3.506013  0  0  -0.637041  -0.572495  0  3.508177  0
N  N57  1  0.80404332  0.11441394  0.82201625  1  0  -0.661649  0  3.25785  0  0  -0.590439  0  3.507372  0  0  -0.615902  0  3.505867  0  0  -0.637097  -0.572486  0  3.508076  0
N  N58  1  0.30405540  0.38561117  0.32201985  1  0  -0.661573  0  3.25757  0  0  -0.590299  0  3.507146  0  0  -0.615783  0  3.505644  0  0  -0.637126  -0.572346  0  3.507845  0
N  N59  1  0.80406348  0.61442751  0.67798146  1  0  -0.661524  0  3.257712  0  0  -0.590345  0  3.507374  0  0  -0.615807  0  3.505876  0  0  -0.637091  -0.572396  0  3.508065  0
O  O60  1  0.95615211  0.20630971  0.20962606  1  0  -0.635197  0  2.183294  0  0  -0.541184  0  2.453428  0  0  -0.574499  0  2.441291  0  0  -0.33447  -0.517857  0  2.460899  0
O  O61  1  0.45613293  0.79368434  0.79037423  1  0  -0.635336  0  2.18354  0  0  -0.541296  0  2.453631  0  0  -0.574613  0  2.441513  0  0  -0.33447  -0.517972  0  2.461105  0
O  O62  1  0.95613834  0.70635360  0.29038375  1  0  -0.635482  0  2.184002  0  0  -0.54128  0  2.453983  0  0  -0.574603  0  2.441868  0  0  -0.334498  -0.517953  0  2.461452  0
O  O63  1  0.45615286  0.29368461  0.70962282  1  0  -0.635525  0  2.183649  0  0  -0.541257  0  2.45354  0  0  -0.574607  0  2.441501  0  0  -0.334534  -0.517929  0  2.461009  0
O  O64  1  0.92113261  0.53151012  0.16001581  1  0  -0.623148  0  2.024167  0  0  -0.562183  0  2.269587  0  0  -0.588571  0  2.260152  0  0  -0.317041  -0.543625  0  2.275562  0
O  O65  1  0.42110179  0.46845700  0.83997512  1  0  -0.623309  0  2.024166  0  0  -0.562322  0  2.269575  0  0  -0.588708  0  2.260132  0  0  -0.317061  -0.543761  0  2.275553  0
O  O66  1  0.92111194  0.03156803  0.33998964  1  0  -0.623264  0  2.02381  0  0  -0.562289  0  2.269272  0  0  -0.588679  0  2.259832  0  0  -0.317097  -0.54373  0  2.275253  0
O  O67  1  0.42113683  0.96848570  0.66001175  1  0  -0.623076  0  2.024223  0  0  -0.562123  0  2.269677  0  0  -0.588501  0  2.26024  0  0  -0.317056  -0.543563  0  2.275651  0
