# generated using pymatgen
data_CoP2H14C9(NO3)2
_symmetry_space_group_name_H-M   'P 1'
_cell_length_a   6.82818674
_cell_length_b   10.53278270
_cell_length_c   10.68572942
_cell_angle_alpha   113.41525267
_cell_angle_beta   94.40948025
_cell_angle_gamma   101.02883503
_symmetry_Int_Tables_number   1
_chemical_formula_structural   CoP2H14C9(NO3)2
_chemical_formula_sum   'Co2 P4 H28 C18 N4 O12'
_cell_volume   682.15518405
_cell_formula_units_Z   2
loop_
 _symmetry_equiv_pos_site_id
 _symmetry_equiv_pos_as_xyz
  1  'x, y, z'
loop_
 _atom_site_type_symbol
 _atom_site_label
 _atom_site_symmetry_multiplicity
 _atom_site_fract_x
 _atom_site_fract_y
 _atom_site_fract_z
 _atom_site_occupancy
 _atom_site_hle17_ddec_charge
 _atom_site_hle17_ddec_spin_density
 _atom_site_hle17_ddec_sum_bond_order
 _atom_site_hle17_magmom
 _atom_site_hse06_10hf_ddec_charge
 _atom_site_hse06_10hf_ddec_spin_density
 _atom_site_hse06_10hf_ddec_sum_bond_order
 _atom_site_hse06_10hf_magmom
 _atom_site_hse06_ddec_charge
 _atom_site_hse06_ddec_spin_density
 _atom_site_hse06_ddec_sum_bond_order
 _atom_site_hse06_magmom
 _atom_site_pbe_cm5_charge
 _atom_site_pbe_ddec_charge
 _atom_site_pbe_ddec_spin_density
 _atom_site_pbe_ddec_sum_bond_order
 _atom_site_pbe_magmom
Co  Co0  1  0.12742346  0.37304874  0.31598897  1  1.039177  2.82919  1.938301  2.563  0.993055  2.83252  2.359374  2.623  1.070169  2.872591  2.28472  2.7  0.686012  0.928164  2.798031  2.422827  2.554
Co  Co1  1  0.87258484  0.62695531  0.68401014  1  1.039075  2.829217  1.938332  2.563  0.99305  2.832536  2.359366  2.623  1.070151  2.872596  2.284712  2.7  0.686007  0.928152  2.797988  2.422851  2.554
P  P2  1  0.27836388  0.53403972  0.64672574  1  1.459077  0.002952  4.738912  0.003  1.310155  0.007065  5.244557  0.007  1.361686  0.005064  5.209491  0.005  0.370724  1.27291  0.008992  5.266219  0.008
P  P3  1  0.72163966  0.46595900  0.35327666  1  1.459311  0.002952  4.738696  0.003  1.310397  0.007065  5.244265  0.007  1.361978  0.005064  5.209127  0.005  0.37083  1.273127  0.008992  5.266005  0.008
P  P4  1  0.93987067  0.88816976  0.62978143  1  1.410235  0.00028  4.733749  0.001  1.25469  0.002102  5.234998  0.002  1.303041  0.000902  5.200929  0.002  0.36785  1.220554  0.003421  5.256702  0.003
P  P5  1  0.06012480  0.11183538  0.37022123  1  1.41028  0.000281  4.73347  0.001  1.254746  0.002099  5.234737  0.002  1.303095  0.0009  5.200672  0.002  0.367845  1.220617  0.00342  5.256427  0.003
H  H6  1  0.26433988  0.31124514  0.60360545  1  0.431002  -0.000227  0.880049  0.0  0.39685  -0.000173  0.948303  0.0  0.408559  -0.000156  0.931582  0.0  0.307945  0.388608  -0.000164  0.960036  0.0
H  H7  1  0.73565925  0.68875358  0.39639487  1  0.431058  -0.000228  0.879978  0.0  0.396889  -0.000173  0.948255  0.0  0.408604  -0.000156  0.931527  0.0  0.307956  0.38865  -0.000164  0.959984  0.0
H  H8  1  0.07955990  0.09344719  0.62094315  1  0.443771  5.5e-05  0.859401  0.0  0.407053  6.9e-05  0.930893  0.0  0.418626  4.3e-05  0.914434  0.0  0.307508  0.399112  9.9e-05  0.942116  0.0
H  H9  1  0.92043557  0.90655795  0.37906044  1  0.443779  5.4e-05  0.859391  0.0  0.407064  6.8e-05  0.93088  0.0  0.418637  4.2e-05  0.914422  0.0  0.307513  0.399126  9.9e-05  0.942098  0.0
H  H10  1  0.55226941  0.68146248  0.56690017  1  0.273921  -0.001446  0.919264  -0.002  0.263623  -0.000438  0.979203  -0.001  0.269707  -0.000609  0.975626  -0.001  0.302252  0.258882  -0.000254  0.981984  0.0
H  H11  1  0.44773008  0.31853731  0.43309872  1  0.273934  -0.001446  0.919314  -0.002  0.263638  -0.000438  0.979234  -0.001  0.269719  -0.00061  0.975663  -0.001  0.302258  0.258894  -0.000255  0.982016  0.0
H  H12  1  0.38568633  0.77913944  0.78721846  1  0.115661  0.000804  0.921043  0.001  0.127297  0.000695  0.976421  0.001  0.12939  0.000437  0.975763  0.001  0.126537  0.12581  0.000954  0.97702  0.001
H  H13  1  0.61431720  0.22085928  0.21278301  1  0.115786  0.000802  0.92093  0.001  0.12738  0.000695  0.976365  0.001  0.129473  0.000437  0.97571  0.001  0.12658  0.125894  0.000953  0.976964  0.001
H  H14  1  0.86512731  0.93326402  0.90908854  1  0.114397  -0.000474  0.955873  0.0  0.134126  -0.000352  1.016314  0.0  0.135412  -0.000314  1.016626  0.0  0.095476  0.133348  -0.000373  1.015957  0.0
H  H15  1  0.13486997  0.06673365  0.09091127  1  0.11439  -0.000478  0.955917  0.0  0.134144  -0.000351  1.016322  0.0  0.13543  -0.000314  1.016634  0.0  0.095487  0.133368  -0.000373  1.015964  0.0
H  H16  1  0.83970436  0.08481641  0.88125264  1  0.110985  -0.000178  0.953482  0.0  0.131658  -8.7e-05  1.01545  0.0  0.132742  -6.6e-05  1.015942  0.0  0.094108  0.131022  -0.000117  1.014996  0.0
H  H17  1  0.16029184  0.91518232  0.11875035  1  0.110986  -0.000181  0.953448  0.0  0.131664  -8.7e-05  1.015416  0.0  0.132747  -6.6e-05  1.015909  0.0  0.094097  0.131027  -0.000117  1.014964  0.0
H  H18  1  0.62748739  0.98012462  0.91113839  1  0.104403  -3.2e-05  0.949183  0.0  0.126463  -5.7e-05  1.009797  0.0  0.127569  -4.6e-05  1.010112  0.0  0.089762  0.125678  -6.3e-05  1.009623  0.0
H  H19  1  0.37250991  0.01987304  0.08886330  1  0.104395  -3.3e-05  0.949156  0.0  0.126457  -5.7e-05  1.009772  0.0  0.127563  -4.6e-05  1.010087  0.0  0.089747  0.125672  -6.3e-05  1.009599  0.0
H  H20  1  0.41079910  0.93535202  0.68182730  1  0.128472  1.7e-05  0.949152  0.0  0.149316  0.00013  1.008957  0.0  0.151499  6.4e-05  1.008358  0.0  0.093832  0.147541  0.000199  1.009676  0.0
H  H21  1  0.58919232  0.06464565  0.31817411  1  0.128513  1.7e-05  0.949197  0.0  0.149336  0.00013  1.009021  0.0  0.151519  6.4e-05  1.008425  0.0  0.093854  0.147568  0.000199  1.009733  0.0
H  H22  1  0.61569859  0.05704756  0.66503103  1  0.108928  0.000308  0.937741  0.0  0.13236  0.000332  0.994544  0.0  0.13325  0.000234  0.994904  0.0  0.093385  0.132049  0.000439  0.993875  0.001
H  H23  1  0.38429466  0.94295117  0.33496995  1  0.108891  0.00031  0.93778  0.0  0.132358  0.000332  0.994532  0.0  0.133249  0.000234  0.994892  0.0  0.093371  0.132046  0.000439  0.993865  0.001
H  H24  1  0.51845896  0.88454264  0.52789355  1  0.11626  -0.000109  0.940506  0.0  0.137141  2e-06  0.99928  0.0  0.138775  -7e-06  0.998948  0.0  0.094348  0.135825  1.7e-05  0.999713  0.0
H  H25  1  0.48153576  0.11545610  0.47210750  1  0.116231  -0.000107  0.940606  0.0  0.137131  2e-06  0.999352  0.0  0.138767  -7e-06  0.999021  0.0  0.094338  0.135815  1.8e-05  0.999787  0.0
H  H26  1  0.99446791  0.59100925  0.93987333  1  0.081427  0.000394  0.961754  0.002  0.087776  0.000443  1.02955  0.001  0.090114  0.000281  1.027457  0.001  0.115473  0.085909  0.000612  1.031419  0.001
H  H27  1  0.00554955  0.40899159  0.06012307  1  0.081441  0.000393  0.961946  0.002  0.087797  0.000444  1.029717  0.001  0.090133  0.000282  1.027627  0.001  0.115485  0.085933  0.000613  1.031581  0.001
H  H28  1  0.85910536  0.61929995  0.15998670  1  0.11845  0.000246  0.951593  0.0  0.126827  0.00023  1.011544  0.0  0.130514  0.000127  1.010138  0.0  0.111118  0.123796  0.000403  1.013145  0.001
H  H29  1  0.14090292  0.38069556  0.84001092  1  0.118495  0.000246  0.951722  0.0  0.126861  0.00023  1.011655  0.0  0.130545  0.000126  1.010253  0.0  0.11112  0.123837  0.000403  1.013268  0.001
H  H30  1  0.53314899  0.69541879  0.19162813  1  0.104998  6.6e-05  0.931958  0.0  0.118077  -2.9e-05  0.98415  0.0  0.12093  -3.1e-05  0.981592  0.0  0.113378  0.115545  -0.000127  0.986795  0.0
H  H31  1  0.46685962  0.30457353  0.80835983  1  0.104956  6.6e-05  0.931724  0.0  0.118092  -2.9e-05  0.983864  0.0  0.120945  -3.1e-05  0.98131  0.0  0.11339  0.115562  -0.000127  0.986505  0.0
H  H32  1  0.35503366  0.73810241  0.00220963  1  0.107427  0.000241  0.950388  0.0  0.118387  0.000303  1.01054  0.0  0.121303  0.000186  1.010171  0.0  0.10873  0.116093  0.000429  1.011256  0.0
H  H33  1  0.64496290  0.26189312  0.99779119  1  0.107474  0.00024  0.950364  0.0  0.118409  0.000302  1.010529  0.0  0.121325  0.000186  1.010158  0.0  0.108763  0.116116  0.000428  1.011245  0.0
C  C34  1  0.47669660  0.69934879  0.75242416  1  -0.202962  0.001336  3.661266  0.002  -0.207775  0.002072  3.897583  0.002  -0.213383  0.001061  3.910838  0.001  0.008525  -0.204033  0.003138  3.888864  0.003
C  C35  1  0.52330729  0.30065099  0.24757493  1  -0.203113  0.001341  3.661365  0.002  -0.207992  0.002073  3.897729  0.002  -0.213602  0.001061  3.910987  0.001  0.008427  -0.204244  0.003137  3.889008  0.003
C  C36  1  0.70367721  0.88686074  0.70432922  1  0.053764  -0.003686  3.618297  -0.003  0.084809  -0.001536  3.866787  -0.002  0.082541  -0.001797  3.886842  -0.002  0.062549  0.08602  -0.001153  3.852969  -0.001
C  C37  1  0.29631787  0.11313905  0.29567133  1  0.053813  -0.003675  3.618249  -0.003  0.084703  -0.001539  3.867003  -0.002  0.082435  -0.001798  3.887058  -0.002  0.0625  0.085914  -0.001154  3.853185  -0.001
C  C38  1  0.76223842  0.97553100  0.86102123  1  -0.331836  -0.000433  3.67907  0.0  -0.414186  -0.000457  3.918176  0.0  -0.416531  -0.000401  3.928857  0.0  -0.238606  -0.412359  -0.0005  3.910374  0.0
C  C39  1  0.23775850  0.02446986  0.13897982  1  -0.331825  -0.000423  3.678993  0.0  -0.414168  -0.000456  3.918137  0.0  -0.416513  -0.000401  3.928818  0.0  -0.238582  -0.412336  -0.0005  3.91032  0.0
C  C40  1  0.55318069  0.94414740  0.64089720  1  -0.338934  0.001988  3.6697  0.003  -0.421906  0.001519  3.909206  0.002  -0.424602  0.001068  3.919769  0.001  -0.242303  -0.419697  0.002014  3.901852  0.002
C  C41  1  0.44681256  0.05585133  0.35910471  1  -0.338903  0.001983  3.669839  0.003  -0.421869  0.00152  3.909378  0.002  -0.424558  0.001068  3.919927  0.001  -0.242259  -0.419665  0.002014  3.902025  0.002
C  C42  1  0.58097141  0.68570163  0.87390270  1  0.25385  -0.010387  3.735959  -0.006  0.252126  5.3e-05  3.983169  0.001  0.263267  0.000415  4.003097  0.001  0.125832  0.243433  -0.00124  3.97117  0.001
C  C43  1  0.41902774  0.31430137  0.12610397  1  0.25381  -0.010373  3.735767  -0.006  0.25216  5.4e-05  3.982838  0.001  0.263292  0.000414  4.002779  0.001  0.125893  0.243469  -0.001241  3.970828  0.001
C  C44  1  0.85366166  0.62362397  0.96005488  1  0.119772  -0.011774  3.700001  -0.007  0.094183  5.7e-05  3.955229  0.0  0.102798  0.001335  3.972909  0.001  0.043641  0.087062  -0.002347  3.944456  -0.001
C  C45  1  0.14633456  0.37637049  0.03995392  1  0.119545  -0.011746  3.699941  -0.007  0.093907  5.7e-05  3.955186  0.0  0.102518  0.001333  3.972865  0.001  0.043507  0.086795  -0.002345  3.944401  -0.001
C  C46  1  0.77814338  0.64016462  0.08104086  1  -0.108532  0.006285  3.713642  0.009  -0.126144  0.001835  3.971868  0.003  -0.133498  0.000704  3.99106  0.001  -0.082297  -0.121701  0.002738  3.961162  0.004
C  C47  1  0.22186374  0.35983196  0.91893934  1  -0.108466  0.00628  3.712874  0.009  -0.126049  0.001837  3.971076  0.003  -0.133395  0.000706  3.990265  0.001  -0.082224  -0.121624  0.002741  3.960372  0.004
C  C48  1  0.59670143  0.68268457  0.09822737  1  0.030377  -0.013242  3.68803  -0.008  0.007893  -0.001102  3.943452  -0.001  0.015967  0.000692  3.957296  0.001  -0.060756  0.000965  -0.005806  3.93657  -0.003
C  C49  1  0.40331168  0.31731200  0.90178307  1  0.030433  -0.013197  3.688446  -0.008  0.007909  -0.001098  3.943865  -0.001  0.015964  0.00069  3.957729  0.001  -0.060768  0.000992  -0.005793  3.936964  -0.003
C  C50  1  0.49761090  0.70587021  0.99347517  1  -0.163909  0.005332  3.699536  0.007  -0.18206  0.001124  3.949422  0.001  -0.190876  0.000244  3.969373  0.0  -0.081793  -0.176819  0.001631  3.93805  0.002
C  C51  1  0.50238998  0.29412959  0.00650507  1  -0.163965  0.005319  3.699738  0.007  -0.182123  0.001124  3.949602  0.001  -0.190933  0.000245  3.969563  0.0  -0.08187  -0.17688  0.001632  3.938216  0.002
N  N52  1  0.62284861  0.73114593  0.66849460  1  -0.448948  0.035292  3.258685  0.072  -0.413232  0.026584  3.515421  0.052  -0.436018  0.01995  3.525994  0.043  -0.457265  -0.394555  0.033054  3.506789  0.06
N  N53  1  0.37715051  0.26885279  0.33150385  1  -0.449027  0.035286  3.258819  0.072  -0.413228  0.02658  3.515571  0.052  -0.436017  0.019949  3.526148  0.043  -0.457249  -0.394555  0.033046  3.506933  0.06
N  N54  1  0.75745199  0.64584586  0.85800824  1  -0.362274  0.041301  3.29609  0.067  -0.320212  0.029642  3.591324  0.041  -0.346056  0.023108  3.603245  0.031  -0.335668  -0.301344  0.035074  3.58509  0.049
N  N55  1  0.24255078  0.35415926  0.14198447  1  -0.36215  0.041292  3.296594  0.067  -0.32003  0.029642  3.591723  0.041  -0.345871  0.023108  3.603653  0.031  -0.33561  -0.301169  0.035071  3.585471  0.049
O  O56  1  0.24857274  0.52854065  0.50197427  1  -0.813868  0.034714  2.046013  0.056  -0.756284  0.029205  2.343312  0.041  -0.79174  0.022494  2.319974  0.031  -0.362565  -0.72692  0.03638  2.357579  0.051
O  O57  1  0.75143006  0.47146020  0.49802799  1  -0.813914  0.03471  2.046136  0.056  -0.756307  0.029203  2.343343  0.041  -0.791761  0.022493  2.31999  0.031  -0.362571  -0.72694  0.036381  2.357632  0.051
O  O58  1  0.09690297  0.54125042  0.72178995  1  -0.827641  0.034286  2.015767  0.055  -0.767775  0.030451  2.304264  0.042  -0.803712  0.024304  2.282653  0.034  -0.369555  -0.738099  0.036475  2.317221  0.05
O  O59  1  0.90310460  0.45875150  0.27821108  1  -0.827787  0.034288  2.015721  0.055  -0.767885  0.030454  2.304191  0.042  -0.803826  0.024308  2.282568  0.034  -0.369629  -0.738209  0.036476  2.317151  0.05
O  O60  1  0.37157011  0.40856869  0.65042107  1  -0.749646  0.001367  2.02549  0.004  -0.681139  0.001406  2.256469  0.004  -0.70303  0.000804  2.232145  0.003  -0.381705  -0.664893  0.002242  2.273393  0.005
O  O61  1  0.62843048  0.59143004  0.34957931  1  -0.749793  0.001367  2.025441  0.004  -0.681206  0.001406  2.256352  0.004  -0.703136  0.000804  2.232031  0.003  -0.381722  -0.664957  0.002241  2.273279  0.005
O  O62  1  0.05233277  0.80323828  0.68439247  1  -0.809899  0.043368  1.987903  0.073  -0.757827  0.034573  2.27859  0.053  -0.794386  0.026238  2.258552  0.04  -0.367141  -0.727639  0.043021  2.290281  0.065
O  O63  1  0.94766748  0.19676792  0.31561083  1  -0.809992  0.043366  1.987836  0.073  -0.757834  0.034572  2.278467  0.053  -0.794388  0.026237  2.258418  0.04  -0.36715  -0.727657  0.043015  2.290155  0.065
O  O64  1  0.88514094  0.82855223  0.47127248  1  -0.829167  0.00031  1.997555  0.001  -0.740826  0.000271  2.22515  0.001  -0.766466  5e-05  2.204581  0.001  -0.359381  -0.722544  0.000641  2.238829  0.002
O  O65  1  0.11485270  0.17145184  0.52872967  1  -0.829163  0.000309  1.997514  0.001  -0.740816  0.000271  2.225092  0.001  -0.766457  5.1e-05  2.204531  0.001  -0.359388  -0.722532  0.000641  2.238765  0.002
O  O66  1  0.06569102  0.04744711  0.68974680  1  -0.738615  0.001813  2.032254  0.003  -0.664532  0.001542  2.255806  0.002  -0.687585  0.001033  2.234264  0.002  -0.379957  -0.647752  0.002162  2.270095  0.004
O  O67  1  0.93430371  0.95255589  0.31025499  1  -0.738622  0.001812  2.032202  0.003  -0.66455  0.001542  2.255744  0.002  -0.687605  0.001034  2.234203  0.002  -0.379938  -0.647777  0.002162  2.270032  0.004
