# generated using pymatgen
data_CdH29C29N6ClO6
_symmetry_space_group_name_H-M   'P 1'
_cell_length_a   9.36238095
_cell_length_b   12.19774680
_cell_length_c   14.05890000
_cell_angle_alpha   75.69573624
_cell_angle_beta   84.89347659
_cell_angle_gamma   87.79928465
_symmetry_Int_Tables_number   1
_chemical_formula_structural   CdH29C29N6ClO6
_chemical_formula_sum   'Cd2 H58 C58 N12 Cl2 O12'
_cell_volume   1549.35131562
_cell_formula_units_Z   2
loop_
 _symmetry_equiv_pos_site_id
 _symmetry_equiv_pos_as_xyz
  1  'x, y, z'
loop_
 _atom_site_type_symbol
 _atom_site_label
 _atom_site_symmetry_multiplicity
 _atom_site_fract_x
 _atom_site_fract_y
 _atom_site_fract_z
 _atom_site_occupancy
 _atom_site_hle17_bader_spin_density
 _atom_site_hle17_ddec_charge
 _atom_site_hle17_ddec_spin_density
 _atom_site_hle17_ddec_sum_bond_order
 _atom_site_hle17_magmom
 _atom_site_hse06_10hf_bader_spin_density
 _atom_site_hse06_10hf_ddec_charge
 _atom_site_hse06_10hf_ddec_spin_density
 _atom_site_hse06_10hf_ddec_sum_bond_order
 _atom_site_hse06_10hf_magmom
 _atom_site_hse06_bader_spin_density
 _atom_site_hse06_ddec_charge
 _atom_site_hse06_ddec_spin_density
 _atom_site_hse06_ddec_sum_bond_order
 _atom_site_hse06_magmom
 _atom_site_pbe_bader_charge
 _atom_site_pbe_bader_spin_density
 _atom_site_pbe_cm5_charge
 _atom_site_pbe_ddec_charge
 _atom_site_pbe_ddec_spin_density
 _atom_site_pbe_ddec_sum_bond_order
 _atom_site_pbe_magmom
Cd  Cd0  1  0.98128033  0.00245814  0.69510968  1  0  1.052118  0  1.786512  0  0  0.867411  0  2.250542  0  0  0.919485  0  2.203548  0  1.178086  0  0.716706  0.831119  0  2.281801  0
Cd  Cd1  1  0.01871836  0.99754220  0.30488997  1  0  1.052096  0  1.786516  0  0  0.867385  0  2.250548  0  0  0.919459  0  2.203557  0  1.178086  0  0.716687  0.831094  0  2.281809  0
H  H2  1  0.79212009  0.11323693  0.85170987  1  0  0.098952  0  0.934192  0  0  0.108269  0  0.997527  0  0  0.111011  0  0.993862  0  0.155443  0  0.133559  0.106  0  1.000634  0
H  H3  1  0.20787966  0.88676426  0.14829024  1  0  0.098964  0  0.934193  0  0  0.108281  0  0.997528  0  0  0.111022  0  0.993865  0  0.155454  0  0.133566  0.106013  0  1.000634  0
H  H4  1  0.10980757  0.76834704  0.88158880  1  0  0.114474  0  0.961198  0  0  0.12515  0  1.024044  0  0  0.128535  0  1.021589  0  0.081823  0  0.101671  0.122754  0  1.02581  0
H  H5  1  0.89018901  0.23165161  0.11841062  1  0  0.114533  0  0.961166  0  0  0.12519  0  1.024025  0  0  0.128575  0  1.021569  0  0.081713  0  0.101683  0.122794  0  1.025792  0
H  H6  1  0.79448495  0.82035977  0.17726276  1  0  0.124094  0  0.953551  0  0  0.135775  0  1.012365  0  0  0.139206  0  1.01032  0  0.101632  0  0.106873  0.133207  0  1.014083  0
H  H7  1  0.20551695  0.17964057  0.82273741  1  0  0.124088  0  0.953533  0  0  0.135767  0  1.012347  0  0  0.139201  0  1.010301  0  0.101637  0  0.106874  0.133199  0  1.014066  0
H  H8  1  0.19479705  0.59325128  0.97364680  1  0  0.101626  0  0.953793  0  0  0.124148  0  1.012645  0  0  0.125571  0  1.012273  0  0.04488  0  0.089603  0.123016  0  1.013025  0
H  H9  1  0.80520166  0.40674822  0.02635587  1  0  0.101633  0  0.953749  0  0  0.124193  0  1.012564  0  0  0.125622  0  1.012191  0  0.04484  0  0.089604  0.123062  0  1.012942  0
H  H10  1  0.07282782  0.51537180  0.06782175  1  0  0.107722  0  0.943845  0  0  0.13043  0  1.002108  0  0  0.131512  0  1.002648  0  0.035115  0  0.092552  0.129621  0  1.001789  0
H  H11  1  0.92716984  0.48462685  0.93217975  1  0  0.107745  0  0.943779  0  0  0.130454  0  1.002051  0  0  0.131535  0  1.002591  0  0.035301  0  0.092568  0.129647  0  1.001726  0
H  H12  1  0.21237720  0.58828084  0.09955704  1  0  0.106937  0  0.944931  0  0  0.129582  0  1.002828  0  0  0.130207  0  1.004027  0  0.023051  0  0.091185  0.12902  0  1.002058  0
H  H13  1  0.78762149  0.41171950  0.90044403  1  0  0.106968  0  0.944902  0  0  0.129611  0  1.002806  0  0  0.130238  0  1.004003  0  0.023059  0  0.091195  0.129048  0  1.002037  0
H  H14  1  0.87767186  0.65038676  0.27174937  1  0  0.112827  0  0.941848  0  0  0.136973  0  0.996695  0  0  0.138419  0  0.996306  0  0.043959  0  0.094113  0.135861  0  0.996999  0
H  H15  1  0.12232678  0.34961613  0.72825187  1  0  0.11282  0  0.941862  0  0  0.136975  0  0.996698  0  0  0.138422  0  0.996307  0  0.044002  0  0.094129  0.135864  0  0.997003  0
H  H16  1  0.05886042  0.61454529  0.24177271  1  0  0.107387  0  0.946414  0  0  0.128079  0  1.008856  0  0  0.129264  0  1.00895  0  0.030745  0  0.091888  0.127216  0  1.008778  0
H  H17  1  0.94114147  0.38545590  0.75822871  1  0  0.107386  0  0.946452  0  0  0.128082  0  1.008885  0  0  0.129269  0  1.008976  0  0.030755  0  0.091898  0.127219  0  1.008808  0
H  H18  1  0.91941642  0.54186641  0.20859452  1  0  0.103563  0  0.93541  0  0  0.124934  0  0.994787  0  0  0.126155  0  0.994735  0  0.011399  0  0.090414  0.123971  0  0.994975  0
H  H19  1  0.08058118  0.45813478  0.79140857  1  0  0.103533  0  0.935391  0  0  0.1249  0  0.994782  0  0  0.126121  0  0.99473  0  0.011271  0  0.090379  0.123938  0  0.99497  0
H  H20  1  0.67412546  0.12929058  0.01898588  1  0  0.073519  0  0.919809  0  0  0.09168  0  0.98026  0  0  0.091765  0  0.98113  0  0.051436  0  0.112114  0.091453  0  0.979719  0
H  H21  1  0.32587651  0.87070723  0.98101483  1  0  0.073501  0  0.919811  0  0  0.091665  0  0.980274  0  0  0.09175  0  0.981145  0  0.051416  0  0.112093  0.091438  0  0.979733  0
H  H22  1  0.70923180  0.02287467  0.12523117  1  0  0.091414  0  0.922093  0  0  0.101021  0  0.993543  0  0  0.103024  0  0.991062  0  0.108081  0  0.113417  0.099525  0  0.994812  0
H  H23  1  0.29076691  0.97712483  0.87476937  1  0  0.09143  0  0.922095  0  0  0.101044  0  0.993547  0  0  0.103047  0  0.991065  0  0.10809  0  0.113424  0.099548  0  0.994815  0
H  H24  1  0.53675710  0.89415476  0.08045177  1  0  0.07124  0  0.922586  0  0  0.093151  0  0.976889  0  0  0.093745  0  0.977496  0  0.001941  0  0.094273  0.092589  0  0.976688  0
H  H25  1  0.46324161  0.10584474  0.91954877  1  0  0.071285  0  0.922563  0  0  0.093175  0  0.976886  0  0  0.09377  0  0.977491  0  0.001935  0  0.094274  0.092611  0  0.976687  0
H  H26  1  0.45739839  0.01900426  0.10380297  1  0  0.080878  0  0.938187  0  0  0.098486  0  0.999911  0  0  0.099252  0  1.000329  0  0.05426  0  0.095579  0.097851  0  0.999702  0
H  H27  1  0.54260350  0.98099693  0.89619631  1  0  0.080855  0  0.938216  0  0  0.098463  0  0.999943  0  0  0.09923  0  1.000362  0  0.054245  0  0.09556  0.097828  0  0.999735  0
H  H28  1  0.06436274  0.83449768  0.53999176  1  0  0.108742  0  0.953028  0  0  0.115237  0  1.023132  0  0  0.118231  0  1.01884  0  0.194061  0  0.129958  0.113107  0  1.025876  0
H  H29  1  0.93563913  0.16550436  0.46000734  1  0  0.108717  0  0.953026  0  0  0.115232  0  1.023128  0  0  0.118229  0  1.018827  0  0.193974  0  0.129937  0.113098  0  1.025872  0
H  H30  1  0.74320330  0.81942813  0.84876137  1  0  0.10578  0  0.979422  0  0  0.115446  0  1.043144  0  0  0.117803  0  1.043218  0  0.082667  0  0.099939  0.113705  0  1.043383  0
H  H31  1  0.25679438  0.18056967  0.15123959  1  0  0.105734  0  0.97945  0  0  0.11539  0  1.043188  0  0  0.117745  0  1.043264  0  0.082631  0  0.099916  0.113649  0  1.043426  0
H  H32  1  0.67484000  0.54171325  0.64624846  1  0  0.112114  0  0.98961  0  0  0.114509  0  1.064748  0  0  0.118633  0  1.061553  0  0.08049  0  0.097907  0.111509  0  1.067078  0
H  H33  1  0.32515979  0.45828625  0.35374988  1  0  0.112095  0  0.989654  0  0  0.114511  0  1.064774  0  0  0.118635  0  1.061581  0  0.080528  0  0.097922  0.111511  0  1.067104  0
H  H34  1  0.55929568  0.73811064  0.96329893  1  0  0.106148  0  0.945928  0  0  0.130335  0  1.00152  0  0  0.131796  0  1.001322  0  0.027581  0  0.091011  0.129279  0  1.001663  0
H  H35  1  0.44070741  0.26188462  0.03670439  1  0  0.106086  0  0.945888  0  0  0.130283  0  1.001473  0  0  0.131743  0  1.001274  0  0.027577  0  0.090993  0.129229  0  1.001612  0
H  H36  1  0.52406449  0.59319289  0.97557935  1  0  0.095975  0  0.978993  0  0  0.117745  0  1.041063  0  0  0.118801  0  1.041041  0  0.031513  0  0.087278  0.116842  0  1.041223  0
H  H37  1  0.47593865  0.40679984  0.02442238  1  0  0.095846  0  0.979152  0  0  0.117629  0  1.041211  0  0  0.118682  0  1.041192  0  0.031524  0  0.087223  0.116723  0  1.041377  0
H  H38  1  0.41253902  0.69814238  0.90739688  1  0  0.104267  0  0.969493  0  0  0.121698  0  1.039396  0  0  0.122661  0  1.0398  0  0.049424  0  0.08819  0.12113  0  1.038881  0
H  H39  1  0.58746302  0.30185204  0.09260598  1  0  0.104227  0  0.969496  0  0  0.121665  0  1.039407  0  0  0.122627  0  1.039813  0  0.049464  0  0.088175  0.121098  0  1.038892  0
H  H40  1  0.47478730  0.46829058  0.74933571  1  0  0.122275  0  0.952929  0  0  0.144803  0  1.008357  0  0  0.146657  0  1.007343  0  0.058155  0  0.093263  0.143418  0  1.00903  0
H  H41  1  0.52521252  0.53170722  0.25066370  1  0  0.122278  0  0.952894  0  0  0.144799  0  1.008331  0  0  0.146654  0  1.007318  0  0.058184  0  0.093263  0.143414  0  1.009003  0
H  H42  1  0.37472770  0.56571672  0.80575889  1  0  0.101888  0  0.947966  0  0  0.122734  0  1.010417  0  0  0.123946  0  1.010152  0  0.038413  0  0.087947  0.122  0  1.010443  0
H  H43  1  0.62527208  0.43428278  0.19424016  1  0  0.101899  0  0.948033  0  0  0.122763  0  1.010458  0  0  0.123977  0  1.010192  0  0.038853  0  0.087964  0.122029  0  1.010484  0
H  H44  1  0.48616274  0.46277436  0.87579901  1  0  0.098016  0  0.973369  0  0  0.119096  0  1.036534  0  0  0.120296  0  1.036558  0  0.036919  0  0.087028  0.118391  0  1.036354  0
H  H45  1  0.51383601  0.53722344  0.12420118  1  0  0.09798  0  0.973445  0  0  0.119075  0  1.036604  0  0  0.120275  0  1.036631  0  0.036934  0  0.087007  0.118367  0  1.036427  0
H  H46  1  0.00956379  0.69686381  0.45178955  1  0  0.083921  0  0.944309  0  0  0.096933  0  1.012193  0  0  0.097828  0  1.012057  0  0.106332  0  0.103889  0.096328  0  1.012123  0
H  H47  1  0.99043706  0.30313569  0.54821015  1  0  0.083908  0  0.944295  0  0  0.096939  0  1.012192  0  0  0.097832  0  1.012053  0  0.106337  0  0.103895  0.096333  0  1.012122  0
H  H48  1  0.82864965  0.65249120  0.46861607  1  0  0.069781  0  0.925861  0  0  0.085197  0  0.992054  0  0  0.085392  0  0.992061  0  0.041224  0  0.104298  0.084913  0  0.992233  0
H  H49  1  0.17135118  0.34750915  0.53138345  1  0  0.069768  0  0.925838  0  0  0.085201  0  0.992052  0  0  0.085396  0  0.992054  0  0.041219  0  0.104299  0.084917  0  0.992231  0
H  H50  1  0.06692897  0.52367278  0.58847051  1  0  0.077162  0  0.949959  0  0  0.096264  0  1.009385  0  0  0.096981  0  1.009671  0  0.055747  0  0.093624  0.09587  0  1.009075  0
H  H51  1  0.93307296  0.47632671  0.41152913  1  0  0.077214  0  0.949918  0  0  0.096281  0  1.009388  0  0  0.097001  0  1.009673  0  0.055753  0  0.093643  0.095887  0  1.009077  0
H  H52  1  0.88996642  0.47661526  0.58960651  1  0  0.068855  0  0.949067  0  0  0.084932  0  1.014559  0  0  0.085934  0  1.014282  0  0.015433  0  0.090095  0.084274  0  1.014701  0
H  H53  1  0.11003336  0.52338424  0.41039254  1  0  0.068836  0  0.949092  0  0  0.084935  0  1.014561  0  0  0.085924  0  1.014303  0  0.015244  0  0.090085  0.084278  0  1.014703  0
H  H54  1  0.38810140  0.24741671  0.62573980  1  0  0.136215  0  0.922655  0  0  0.139934  0  0.987777  0  0  0.14517  0  0.981979  0  0.169836  0  0.124204  0.136047  0  0.992144  0
H  H55  1  0.61189615  0.75258702  0.37425848  1  0  0.136193  0  0.922671  0  0  0.139916  0  0.987799  0  0  0.145148  0  0.982005  0  0.169819  0  0.124194  0.136032  0  0.99216  0
H  H56  1  0.68616814  0.29559627  0.36692827  1  0  0.13949  0  0.932325  0  0  0.141699  0  0.999338  0  0  0.146758  0  0.994085  0  0.161753  0  0.127889  0.138543  0  1.002053  0
H  H57  1  0.31383268  0.70440492  0.63307036  1  0  0.139595  0  0.932284  0  0  0.141743  0  0.999337  0  0  0.146803  0  0.994083  0  0.161686  0  0.127902  0.138588  0  1.002052  0
H  H58  1  0.36163307  0.03952064  0.42077820  1  0  0.139608  0  0.93529  0  0  0.139252  0  1.009596  0  0  0.144126  0  1.004744  0  0.179103  0  0.117927  0.135874  0  1.012763  0
H  H59  1  0.63836990  0.96048055  0.57922243  1  0  0.139686  0  0.935216  0  0  0.139294  0  1.009543  0  0  0.144166  0  1.004693  0  0.179058  0  0.117961  0.135911  0  1.012716  0
C  C60  1  0.83332025  0.03406027  0.89558333  1  0  0.198477  0  3.685137  0  0  0.130327  0  3.96214  0  0  0.147889  0  3.973423  0  0.994592  0  0.155658  0.118459  0  3.954641  0
C  C61  1  0.16668059  0.96594008  0.10441548  1  0  0.198501  0  3.685044  0  0  0.130352  0  3.962052  0  0  0.147915  0  3.973334  0  0.994636  0  0.155665  0.118486  0  3.954553  0
C  C62  1  0.95165732  0.87481541  0.93920650  1  0  0.148098  0  3.857831  0  0  0.13966  0  4.117933  0  0  0.1439  0  4.140504  0  0.388864  0  0.077991  0.136861  0  4.101769  0
C  C63  1  0.04834142  0.12518239  0.06079369  1  0  0.147867  0  3.858183  0  0  0.139578  0  4.118101  0  0  0.143818  0  4.140673  0  0.388731  0  0.077969  0.136779  0  4.101937  0
C  C64  1  0.04063096  0.77888277  0.94546683  1  0  -0.206421  0  3.732639  0  0  -0.235189  0  3.989397  0  0  -0.238771  0  4.009405  0  -0.04178  0  -0.101173  -0.232543  0  3.975463  0
C  C65  1  0.95936670  0.22111588  0.05453395  1  0  -0.20641  0  3.73278  0  0  -0.235222  0  3.989517  0  0  -0.238805  0  4.009526  0  -0.041699  0  -0.101189  -0.232577  0  3.975585  0
C  C66  1  0.03944474  0.69767783  0.03511942  1  0  0.075303  0  3.738449  0  0  0.095602  0  3.978061  0  0  0.094487  0  4.005099  0  0.012989  0  -0.018681  0.096038  0  3.959998  0
C  C67  1  0.96055295  0.30231913  0.96488172  1  0  0.07526  0  3.738569  0  0  0.095586  0  3.978181  0  0  0.09447  0  4.005222  0  0.013269  0  -0.018662  0.096022  0  3.960118  0
C  C68  1  0.94921910  0.71262129  0.11870405  1  0  0.091317  0  3.730955  0  0  0.113776  0  3.965752  0  0  0.112855  0  3.992982  0  -0.02367  0  -0.013566  0.114385  0  3.94752  0
C  C69  1  0.05078068  0.28737821  0.88129785  1  0  0.091369  0  3.730914  0  0  0.113786  0  3.965763  0  0  0.112866  0  3.992992  0  -0.022008  0  -0.013571  0.114395  0  3.947531  0
C  C70  1  0.85981927  0.80803353  0.11238236  1  0  -0.207019  0  3.740455  0  0  -0.234722  0  3.993452  0  0  -0.23884  0  4.013999  0  0.015521  0  -0.101363  -0.23227  0  3.979922  0
C  C71  1  0.14018264  0.19196681  0.88761852  1  0  -0.207062  0  3.740464  0  0  -0.234741  0  3.993482  0  0  -0.238861  0  4.014028  0  0.015566  0  -0.101372  -0.232288  0  3.979952  0
C  C72  1  0.86193759  0.88778559  0.02211749  1  0  0.099769  0  3.800025  0  0  0.084974  0  4.054875  0  0  0.088746  0  4.077305  0  0.289138  0  0.085174  0.082954  0  4.0393  0
C  C73  1  0.13806221  0.11221306  0.97788246  1  0  0.099924  0  3.800111  0  0  0.085072  0  4.05496  0  0  0.088845  0  4.07739  0  0.289257  0  0.085222  0.083051  0  4.039385  0
C  C74  1  0.13461562  0.59377421  0.04415763  1  0  -0.324661  0  3.746799  0  0  -0.402428  0  3.980703  0  0  -0.40477  0  3.991897  0  -0.055537  0  -0.239344  -0.400454  0  3.972994  0
C  C75  1  0.86538205  0.40622359  0.95584476  1  0  -0.324737  0  3.746668  0  0  -0.402548  0  3.980561  0  0  -0.404896  0  3.991756  0  -0.055775  0  -0.239392  -0.400573  0  3.972852  0
C  C76  1  0.95098095  0.62558704  0.21514245  1  0  -0.325003  0  3.742781  0  0  -0.403958  0  3.97844  0  0  -0.406043  0  3.989225  0  -0.028378  0  -0.238676  -0.40225  0  3.970969  0
C  C77  1  0.04901772  0.37441415  0.78485844  1  0  -0.324962  0  3.742703  0  0  -0.40392  0  3.978371  0  0  -0.406005  0  3.989149  0  -0.030111  0  -0.238667  -0.402214  0  3.970905  0
C  C78  1  0.67689545  0.03732397  0.04991949  1  0  0.00836  0  3.623331  0  0  -0.057087  0  3.891923  0  0  -0.052248  0  3.902415  0  0.306428  0  -0.050155  -0.059916  0  3.883863  0
C  C79  1  0.32310648  0.96267553  0.95008015  1  0  0.008323  0  3.623314  0  0  -0.057149  0  3.891937  0  0  -0.052308  0  3.902429  0  0.306459  0  -0.050175  -0.059978  0  3.883879  0
C  C80  1  0.52974873  0.98653853  0.05057264  1  0  -0.131654  0  3.682399  0  0  -0.176233  0  3.953016  0  0  -0.177579  0  3.966777  0  0.005689  0  -0.165297  -0.175072  0  3.942978  0
C  C81  1  0.47025530  0.01346266  0.94942651  1  0  -0.131665  0  3.682397  0  0  -0.176238  0  3.953037  0  0  -0.177586  0  3.966796  0  -0.019479  0  -0.165259  -0.175073  0  3.942998  0
C  C82  1  0.97842982  0.79609230  0.59387141  1  0  0.217756  0  3.635195  0  0  0.151927  0  3.90408  0  0  0.169986  0  3.914158  0  0.996201  0  0.15945  0.140503  0  3.896174  0
C  C83  1  0.02156890  0.20390635  0.40612859  1  0  0.217792  0  3.635044  0  0  0.151937  0  3.903926  0  0  0.169999  0  3.914  0  0.996274  0  0.159433  0.140518  0  3.896018  0
C  C84  1  0.81943468  0.76023729  0.71995959  1  0  0.145632  0  3.863434  0  0  0.14002  0  4.114779  0  0  0.14355  0  4.138812  0  0.399441  0  0.076794  0.137186  0  4.099061  0
C  C85  1  0.18056405  0.23976136  0.28003970  1  0  0.14566  0  3.863434  0  0  0.140045  0  4.114778  0  0  0.143575  0  4.13881  0  0.39942  0  0.076809  0.137209  0  4.099057  0
C  C86  1  0.72967028  0.75885803  0.80508002  1  0  -0.197658  0  3.739139  0  0  -0.224345  0  3.989863  0  0  -0.228048  0  4.010986  0  -0.064783  0  -0.101856  -0.222052  0  3.9762  0
C  C87  1  0.27032845  0.24114063  0.19491999  1  0  -0.197614  0  3.739198  0  0  -0.224297  0  3.989915  0  0  -0.227998  0  4.011039  0  -0.064793  0  -0.101863  -0.222004  0  3.976252  0
C  C88  1  0.62127469  0.67925066  0.83289743  1  0  0.076617  0  3.742678  0  0  0.097056  0  3.981347  0  0  0.095997  0  4.008004  0  0.002534  0  -0.022883  0.097525  0  3.963507  0
C  C89  1  0.37872189  0.32074799  0.16710199  1  0  0.076636  0  3.742746  0  0  0.0971  0  3.981401  0  0  0.096041  0  4.008057  0  0.00248  0  -0.022842  0.097568  0  3.963561  0
C  C90  1  0.60091692  0.60117571  0.77477553  1  0  0.085335  0  3.73511  0  0  0.103587  0  3.976564  0  0  0.102476  0  4.004074  0  -0.008314  0  -0.018867  0.10458  0  3.957496  0
C  C91  1  0.39908185  0.39882125  0.22522413  1  0  0.085297  0  3.735092  0  0  0.103493  0  3.976625  0  0  0.10238  0  4.004141  0  -0.007989  0  -0.018909  0.104488  0  3.957553  0
C  C92  1  0.69194297  0.60123495  0.69035479  1  0  -0.215194  0  3.754591  0  0  -0.239741  0  4.01152  0  0  -0.244839  0  4.033353  0  0.044167  0  -0.105895  -0.236226  0  3.99635  0
C  C93  1  0.30805577  0.39876286  0.30964540  1  0  -0.215184  0  3.754653  0  0  -0.23974  0  4.011581  0  0  -0.244832  0  4.033399  0  0.044175  0  -0.105896  -0.236233  0  3.996426  0
C  C94  1  0.80060029  0.68088885  0.66415853  1  0  0.099157  0  3.802574  0  0  0.088826  0  4.046603  0  0  0.091988  0  4.070776  0  0.252912  0  0.086152  0.087031  0  4.030285  0
C  C95  1  0.19940059  0.31910980  0.33584064  1  0  0.099146  0  3.802541  0  0  0.088825  0  4.046567  0  0  0.09199  0  4.07074  0  0.252924  0  0.086151  0.087036  0  4.030238  0
C  C96  1  0.52432224  0.67742461  0.92442778  1  0  -0.326718  0  3.741877  0  0  -0.4054  0  3.976626  0  0  -0.407566  0  3.987231  0  -0.080106  0  -0.241806  -0.40356  0  3.969159  0
C  C97  1  0.47568189  0.32257235  0.07557512  1  0  -0.326488  0  3.741862  0  0  -0.405183  0  3.976593  0  0  -0.407346  0  3.987198  0  -0.080087  0  -0.241717  -0.403347  0  3.969124  0
C  C98  1  0.47826687  0.52010531  0.80253588  1  0  -0.331252  0  3.737772  0  0  -0.407402  0  3.968643  0  0  -0.409737  0  3.979296  0  -0.076809  0  -0.242071  -0.405458  0  3.960694  0
C  C99  1  0.52173402  0.47989250  0.19746347  1  0  -0.331231  0  3.737843  0  0  -0.407394  0  3.968721  0  0  -0.409731  0  3.979376  0  -0.077562  0  -0.242064  -0.405447  0  3.960769  0
C  C100  1  0.92826309  0.64847355  0.50543956  1  0  0.01145  0  3.625758  0  0  -0.05121  0  3.885455  0  0  -0.046827  0  3.897398  0  0.306237  0  -0.054665  -0.053937  0  3.876984  0
C  C101  1  0.07173665  0.35152764  0.49456056  1  0  0.011567  0  3.625491  0  0  -0.051168  0  3.885282  0  0  -0.0468  0  3.897272  0  0.306206  0  -0.054641  -0.053895  0  3.876812  0
C  C102  1  0.97703399  0.52615800  0.54287647  1  0  -0.131461  0  3.699384  0  0  -0.17495  0  3.963577  0  0  -0.176621  0  3.977273  0  0.010612  0  -0.168886  -0.173513  0  3.953659  0
C  C103  1  0.02296572  0.47384488  0.45712400  1  0  -0.131487  0  3.699332  0  0  -0.174965  0  3.963586  0  0  -0.176619  0  3.977249  0  -0.017837  0  -0.168897  -0.173527  0  3.953666  0
C  C104  1  0.36194173  0.13776164  0.52988509  1  0  -0.034382  0  3.707345  0  0  -0.010794  0  3.94763  0  0  -0.021852  0  3.970667  0  -0.017956  0  -0.004143  -0.003843  0  3.932114  0
C  C105  1  0.63805803  0.86223870  0.47011663  1  0  -0.034371  0  3.707306  0  0  -0.010783  0  3.947604  0  0  -0.021845  0  3.97064  0  0.024692  0  -0.004131  -0.003832  0  3.932082  0
C  C106  1  0.42716914  0.22434996  0.55804606  1  0  -0.050153  0  3.631577  0  0  -0.094905  0  3.892962  0  0  -0.088405  0  3.905586  0  0.016999  0  -0.051231  -0.099235  0  3.88404  0
C  C107  1  0.57283057  0.77565292  0.44195156  1  0  -0.05019  0  3.631371  0  0  -0.094968  0  3.892774  0  0  -0.088466  0  3.905405  0  0.016983  0  -0.051263  -0.099299  0  3.883856  0
C  C108  1  0.54162145  0.28046749  0.49827055  1  0  0.080386  0  3.702479  0  0  0.075999  0  3.961553  0  0  0.070558  0  3.983779  0  0.261951  0  0.084197  0.079294  0  3.946132  0
C  C109  1  0.45837826  0.71953539  0.50173134  1  0  0.080583  0  3.702497  0  0  0.076206  0  3.961529  0  0  0.070751  0  3.983774  0  0.261946  0  0.084247  0.079498  0  3.946106  0
C  C110  1  0.59626320  0.25147328  0.41252458  1  0  -0.087457  0  3.661568  0  0  -0.129421  0  3.923736  0  0  -0.124496  0  3.938154  0  0.051034  0  -0.052184  -0.131445  0  3.912685  0
C  C111  1  0.40374183  0.74853130  0.58747450  1  0  -0.0876  0  3.661858  0  0  -0.129517  0  3.923937  0  0  -0.124587  0  3.938357  0  0.051107  0  -0.052186  -0.131542  0  3.912888  0
C  C112  1  0.53051657  0.16365039  0.38721328  1  0  0.074163  0  3.69118  0  0  0.070816  0  3.948579  0  0  0.064958  0  3.972037  0  0.169998  0  0.087649  0.074011  0  3.932706  0
C  C113  1  0.46948211  0.83635080  0.61278761  1  0  0.074078  0  3.691304  0  0  0.070846  0  3.948494  0  0  0.064985  0  3.97195  0  0.17015  0  0.087652  0.074039  0  3.932618  0
C  C114  1  0.41313795  0.10662914  0.44335067  1  0  -0.062407  0  3.621551  0  0  -0.102395  0  3.879365  0  0  -0.09724  0  3.895755  0  0.049734  0  -0.050733  -0.104671  0  3.867328  0
C  C115  1  0.58686710  0.89337458  0.55664858  1  0  -0.062411  0  3.621426  0  0  -0.102404  0  3.879227  0  0  -0.097245  0  3.895613  0  0.006947  0  -0.050774  -0.104672  0  3.867182  0
C  C116  1  0.23358660  0.08123033  0.59168654  1  0  0.61249  0  3.965349  0  0  0.561159  0  4.260145  0  0  0.595184  0  4.256699  0  1.574616  0  0.183276  0.538477  0  4.260957  0
C  C117  1  0.76641207  0.91877086  0.40831364  1  0  0.612433  0  3.965411  0  0  0.561092  0  4.260226  0  0  0.595118  0  4.256784  0  1.574284  0  0.183227  0.538411  0  4.261036  0
N  N118  1  0.93096007  0.96820360  0.86120840  1  0  -0.445519  0  3.214316  0  0  -0.374152  0  3.506145  0  0  -0.396614  0  3.51998  0  -1.223817  0  -0.364569  -0.358624  0  3.495441  0
N  N119  1  0.06903868  0.03179421  0.13879108  1  0  -0.445463  0  3.214426  0  0  -0.374129  0  3.506199  0  0  -0.396594  0  3.520041  0  -1.22387  0  -0.364545  -0.358602  0  3.495494  0
N  N120  1  0.78866146  0.99022871  0.99167192  1  0  -0.118849  0  3.521347  0  0  -0.027174  0  3.744968  0  0  -0.044009  0  3.769984  0  -1.230712  0  -0.242124  -0.01605  0  3.727301  0
N  N121  1  0.21133937  0.00977164  0.00832689  1  0  -0.118837  0  3.52131  0  0  -0.027163  0  3.744971  0  0  -0.043999  0  3.769986  0  -1.230742  0  -0.242133  -0.016041  0  3.727304  0
N  N122  1  0.93164405  0.83091497  0.67390913  1  0  -0.442301  0  3.212975  0  0  -0.368757  0  3.500315  0  0  -0.391731  0  3.514022  0  -1.191159  0  -0.366179  -0.353298  0  3.490709  0
N  N123  1  0.06835573  0.16908453  0.32608992  1  0  -0.442317  0  3.212945  0  0  -0.368773  0  3.500303  0  0  -0.391748  0  3.51401  0  -1.191194  0  -0.366173  -0.353314  0  3.490697  0
N  N124  1  0.90346056  0.70649329  0.58460605  1  0  -0.118331  0  3.516805  0  0  -0.026624  0  3.737039  0  0  -0.043722  0  3.762099  0  -1.231791  0  -0.23949  -0.015614  0  3.719823  0
N  N125  1  0.09653921  0.29350706  0.41539353  1  0  -0.118401  0  3.516616  0  0  -0.026662  0  3.736887  0  0  -0.043764  0  3.761941  0  -1.231747  0  -0.23949  -0.015652  0  3.719669  0
N  N126  1  0.60480040  0.37507925  0.52561401  1  0  0.50934  0  3.902797  0  0  0.532756  0  4.208304  0  0  0.55403  0  4.217227  0  0.371326  0  0.058583  0.518619  0  4.202343  0
N  N127  1  0.39520674  0.62492702  0.47437604  1  0  0.5091  0  3.903019  0  0  0.532485  0  4.208579  0  0  0.553763  0  4.217504  0  0.371002  0  0.058454  0.51835  0  4.202615  0
N  N128  1  0.58764208  0.13106501  0.29715779  1  0  0.504114  0  3.895662  0  0  0.528151  0  4.198741  0  0  0.54928  0  4.208126  0  0.372581  0  0.058804  0.513703  0  4.193201  0
N  N129  1  0.41236186  0.86894041  0.70284259  1  0  0.504305  0  3.895489  0  0  0.528305  0  4.198544  0  0  0.549437  0  4.207924  0  0.372557  0  0.058911  0.513857  0  4.193005  0
Cl  Cl130  1  0.79290225  0.14730566  0.64350332  1  0  -0.624836  0  0.785733  0  0  -0.564535  0  1.024764  0  0  -0.58204  0  1.003941  0  -0.672744  0  -0.371313  -0.553178  0  1.038733  0
Cl  Cl131  1  0.20709642  0.85269553  0.35649757  1  0  -0.624834  0  0.785748  0  0  -0.564524  0  1.024771  0  0  -0.582031  0  1.003949  0  -0.672736  0  -0.371311  -0.553169  0  1.038743  0
O  O132  1  0.17626113  0.00197074  0.56542106  1  0  -0.621095  0  1.946869  0  0  -0.564344  0  2.189419  0  0  -0.593259  0  2.183698  0  -1.161487  0  -0.327414  -0.544362  0  2.19258  0
O  O133  1  0.82373647  0.99803045  0.43457918  1  0  -0.621022  0  1.946879  0  0  -0.564261  0  2.18943  0  0  -0.593179  0  2.18371  0  -1.161496  0  -0.327353  -0.544279  0  2.192586  0
O  O134  1  0.18644631  0.11737642  0.66668169  1  0  -0.630241  0  1.947487  0  0  -0.572265  0  2.193033  0  0  -0.600432  0  2.183503  0  -1.150727  0  -0.33323  -0.552414  0  2.198149  0
O  O135  1  0.81355131  0.88262392  0.33331731  1  0  -0.630251  0  1.947427  0  0  -0.572283  0  2.193012  0  0  -0.600434  0  2.183447  0  -1.150393  0  -0.333234  -0.552434  0  2.198135  0
O  O136  1  0.69673378  0.43141594  0.46651033  1  0  -0.354122  0  1.759876  0  0  -0.334191  0  1.968134  0  0  -0.34698  0  1.965414  0  -0.467193  0  -0.12041  -0.325711  0  1.969893  0
O  O137  1  0.30326491  0.56858441  0.53349359  1  0  -0.354193  0  1.759488  0  0  -0.334213  0  1.967735  0  0  -0.347008  0  1.965011  0  -0.46711  0  -0.120464  -0.32573  0  1.96949  0
O  O138  1  0.56087812  0.39505915  0.60563363  1  0  -0.356902  0  1.765976  0  0  -0.341321  0  1.976132  0  0  -0.354013  0  1.972004  0  -0.471095  0  -0.120528  -0.332665  0  1.978856  0
O  O139  1  0.43911294  0.60494712  0.39436662  1  0  -0.356693  0  1.766437  0  0  -0.341123  0  1.976608  0  0  -0.353807  0  1.972477  0  -0.470753  0  -0.120378  -0.332471  0  1.979334  0
O  O140  1  0.53336676  0.04910189  0.27749211  1  0  -0.338118  0  1.756657  0  0  -0.316642  0  1.963491  0  0  -0.328977  0  1.962002  0  -0.445786  0  -0.106864  -0.308549  0  1.964995  0
O  O141  1  0.46662981  0.95089761  0.72251140  1  0  -0.338181  0  1.756832  0  0  -0.316665  0  1.96366  0  0  -0.329  0  1.962169  0  -0.445789  0  -0.106867  -0.308576  0  1.965168  0
O  O142  1  0.68803071  0.18691853  0.24620412  1  0  -0.373018  0  1.757503  0  0  -0.355367  0  1.973626  0  0  -0.368409  0  1.969728  0  -0.473361  0  -0.126533  -0.34716  0  1.976611  0
O  O143  1  0.31196907  0.81308097  0.75379565  1  0  -0.373111  0  1.757237  0  0  -0.355501  0  1.973391  0  0  -0.368542  0  1.969481  0  -0.473346  0  -0.126631  -0.347291  0  1.976375  0
