# generated using pymatgen
data_Cd2H29C25N3O11
_symmetry_space_group_name_H-M   'P 1'
_cell_length_a   9.96339913
_cell_length_b   10.33981594
_cell_length_c   15.25276890
_cell_angle_alpha   80.96294695
_cell_angle_beta   90.36628622
_cell_angle_gamma   83.67261265
_symmetry_Int_Tables_number   1
_chemical_formula_structural   Cd2H29C25N3O11
_chemical_formula_sum   'Cd4 H58 C50 N6 O22'
_cell_volume   1541.92788836
_cell_formula_units_Z   2
loop_
 _symmetry_equiv_pos_site_id
 _symmetry_equiv_pos_as_xyz
  1  'x, y, z'
loop_
 _atom_site_type_symbol
 _atom_site_label
 _atom_site_symmetry_multiplicity
 _atom_site_fract_x
 _atom_site_fract_y
 _atom_site_fract_z
 _atom_site_occupancy
 _atom_site_pbe_bader_spin_density
 _atom_site_pbe_cm5_charge
 _atom_site_pbe_ddec_charge
 _atom_site_pbe_ddec_spin_density
 _atom_site_pbe_ddec_sum_bond_order
 _atom_site_pbe_magmom
Cd  Cd0  1  0.75699338  0.41752743  0.38949724  1  0  0.770779  0.995923  0  2.112114  0
Cd  Cd1  1  0.24300721  0.58247186  0.61050295  1  0  0.77082  0.995997  0  2.112035  0
Cd  Cd2  1  0.77590468  0.21485131  0.22521149  1  0  0.773812  1.013547  0  2.132055  0
Cd  Cd3  1  0.22409767  0.78514997  0.77478719  1  0  0.773879  1.013577  0  2.131976  0
H  H4  1  0.26620574  0.39705944  0.37599577  1  0  0.108172  0.117244  0  1.015554  0
H  H5  1  0.73379849  0.60294285  0.62400150  1  0  0.108179  0.117263  0  1.015635  0
H  H6  1  0.07393369  0.09648090  0.27366244  1  0  0.100649  0.101253  0  1.04952  0
H  H7  1  0.92606632  0.90352331  0.72633725  1  0  0.100627  0.101209  0  1.049499  0
H  H8  1  0.29894769  0.98079840  0.24819373  1  0  0.100695  0.098433  0  1.011167  0
H  H9  1  0.70104990  0.01920087  0.75180777  1  0  0.100702  0.098436  0  1.011172  0
H  H10  1  0.50850871  0.07396786  0.28663048  1  0  0.1085  0.113216  0  1.022419  0
H  H11  1  0.49149222  0.92602848  0.71336935  1  0  0.108503  0.11322  0  1.022448  0
H  H12  1  0.00279232  0.52476698  0.05780945  1  0  0.101618  0.099136  0  1.048345  0
H  H13  1  0.99721094  0.47523526  0.94219110  1  0  0.101626  0.099144  0  1.048359  0
H  H14  1  0.10475512  0.72980783  0.99365669  1  0  0.104464  0.115389  0  1.01003  0
H  H15  1  0.89524903  0.27019540  0.00634376  1  0  0.10446  0.115425  0  1.010017  0
H  H16  1  0.04307774  0.93625718  0.05739152  1  0  0.105837  0.108624  0  1.020222  0
H  H17  1  0.95692264  0.06374406  0.94260978  1  0  0.105833  0.108661  0  1.020207  0
H  H18  1  0.76354278  0.74096808  0.23071538  1  0  0.106285  0.115927  0  1.019303  0
H  H19  1  0.23645827  0.25902726  0.76928521  1  0  0.106256  0.115917  0  1.01932  0
H  H20  1  0.92588314  0.65133859  0.43138710  1  0  0.129523  0.068408  0  0.990897  0
H  H21  1  0.07411332  0.34866168  0.56861234  1  0  0.129526  0.068375  0  0.990916  0
H  H22  1  0.59737115  0.84670422  0.40064594  1  0  0.108012  0.123642  0  1.007159  0
H  H23  1  0.40262607  0.15329803  0.59935263  1  0  0.108  0.123639  0  1.007191  0
H  H24  1  0.67318721  0.99607622  0.40080244  1  0  0.10661  0.134785  0  1.019682  0
H  H25  1  0.32681002  0.00392602  0.59919745  1  0  0.106618  0.134784  0  1.01971  0
H  H26  1  0.63375180  0.89957824  0.50349162  1  0  0.098035  0.111571  0  1.010326  0
H  H27  1  0.36624566  0.10042204  0.49650782  1  0  0.098037  0.11158  0  1.010312  0
H  H28  1  0.90552228  0.92910759  0.51673181  1  0  0.102345  0.120307  0  1.003827  0
H  H29  1  0.09447517  0.07089269  0.48326762  1  0  0.10234  0.120285  0  1.003848  0
H  H30  1  0.91797590  0.97845487  0.39988376  1  0  0.103322  0.122831  0  1.009296  0
H  H31  1  0.08202268  0.02154442  0.60011577  1  0  0.103308  0.122803  0  1.009312  0
H  H32  1  0.01077168  0.82757984  0.45442243  1  0  0.108517  0.12844  0  1.021698  0
H  H33  1  0.98922577  0.17242045  0.54557635  1  0  0.108509  0.128427  0  1.021716  0
H  H34  1  0.57023345  0.35329058  0.55561223  1  0  0.12916  0.068441  0  0.9989  0
H  H35  1  0.42976526  0.64670771  0.44438871  1  0  0.129131  0.068402  0  0.998894  0
H  H36  1  0.87222956  0.19739254  0.70269186  1  0  0.104181  0.120131  0  0.993952  0
H  H37  1  0.12777103  0.80260674  0.29730898  1  0  0.104177  0.12016  0  0.993897  0
H  H38  1  0.80281119  0.28111708  0.78849639  1  0  0.102984  0.115153  0  1.02197  0
H  H39  1  0.19718829  0.71888318  0.21150436  1  0  0.102995  0.115199  0  1.02198  0
H  H40  1  0.87337846  0.37137383  0.69308848  1  0  0.106485  0.133155  0  1.012063  0
H  H41  1  0.12662101  0.62862644  0.30691161  1  0  0.10648  0.13318  0  1.012071  0
H  H42  1  0.47108217  0.32506843  0.68348083  1  0  0.112005  0.135527  0  1.030074  0
H  H43  1  0.52891743  0.67493083  0.31652068  1  0  0.112044  0.135598  0  1.030057  0
H  H44  1  0.55557644  0.39769203  0.76240181  1  0  0.099494  0.116796  0  1.007338  0
H  H45  1  0.44442427  0.60230626  0.23759914  1  0  0.099498  0.116793  0  1.007339  0
H  H46  1  0.56285339  0.22179060  0.77438365  1  0  0.102504  0.114578  0  0.984258  0
H  H47  1  0.43714609  0.77820965  0.22561842  1  0  0.102497  0.114523  0  0.984307  0
H  H48  1  0.55691444  0.44649501  0.13478671  1  0  0.11809  0.04679  0  1.024019  0
H  H49  1  0.44308190  0.55350625  0.86521262  1  0  0.118064  0.046763  0  1.02391  0
H  H50  1  0.37949729  0.18009290  0.08698181  1  0  0.113358  0.136112  0  0.993295  0
H  H51  1  0.62050119  0.81990735  0.91301959  1  0  0.113356  0.136058  0  0.993307  0
H  H52  1  0.28862778  0.28578313  0.99611554  1  0  0.100828  0.116771  0  1.013859  0
H  H53  1  0.71137003  0.71421419  0.00388485  1  0  0.100794  0.116711  0  1.013891  0
H  H54  1  0.22175088  0.27257550  0.10488496  1  0  0.109791  0.132778  0  0.975555  0
H  H55  1  0.77824693  0.72742181  0.89511543  1  0  0.109741  0.13269  0  0.975542  0
H  H56  1  0.23497422  0.51679286  0.12279495  1  0  0.103744  0.12048  0  1.005546  0
H  H57  1  0.76502313  0.48320839  0.87720504  1  0  0.103718  0.120401  0  1.005575  0
H  H58  1  0.26982657  0.53772278  0.00727649  1  0  0.106193  0.127657  0  1.0121  0
H  H59  1  0.73016889  0.46227748  0.99272426  1  0  0.106179  0.127609  0  1.012175  0
H  H60  1  0.38552540  0.58397556  0.08336243  1  0  0.108993  0.120183  0  0.999817  0
H  H61  1  0.61447229  0.41602274  0.91663786  1  0  0.108994  0.120207  0  0.999728  0
C  C62  1  0.52514278  0.29627166  0.35780881  1  0  0.199393  0.566099  0  4.211811  0
C  C63  1  0.47485791  0.70372666  0.64219083  1  0  0.199435  0.566279  0  4.211542  0
C  C64  1  0.39992215  0.24123737  0.33354660  1  0  -0.023403  -0.048316  0  3.989794  0
C  C65  1  0.60008133  0.75876292  0.66645284  1  0  -0.023429  -0.048284  0  3.98963  0
C  C66  1  0.27295372  0.30659337  0.34722602  1  0  -0.072531  -0.099476  0  3.914872  0
C  C67  1  0.72704962  0.69340794  0.65277069  1  0  -0.072536  -0.099542  0  3.914948  0
C  C68  1  0.15539015  0.25375397  0.32683954  1  0  -0.021104  -0.044053  0  3.985122  0
C  C69  1  0.84461285  0.74625028  0.67315753  1  0  -0.021095  -0.04403  0  3.985179  0
C  C70  1  0.16559274  0.13577864  0.29135930  1  0  -0.077798  -0.080825  0  3.952176  0
C  C71  1  0.83440649  0.86422361  0.70863994  1  0  -0.077752  -0.08079  0  3.952169  0
C  C72  1  0.29206787  0.07149822  0.27683796  1  0  -0.091955  -0.092552  0  4.017075  0
C  C73  1  0.70792948  0.92850302  0.72316269  1  0  -0.091974  -0.092525  0  4.01707  0
C  C74  1  0.40931949  0.12326468  0.29806690  1  0  -0.07672  -0.081889  0  3.945854  0
C  C75  1  0.59068110  0.87673461  0.70193329  1  0  -0.076703  -0.081931  0  3.945913  0
C  C76  1  0.01994165  0.31887930  0.34694735  1  0  0.198035  0.569943  0  4.209285  0
C  C77  1  0.98006114  0.68112690  0.65305149  1  0  0.19796  0.56979  0  4.209196  0
C  C78  1  0.81303109  0.49850422  0.17974272  1  0  0.195568  0.56248  0  4.236749  0
C  C79  1  0.18697026  0.50149706  0.82025596  1  0  0.195521  0.562427  0  4.236791  0
C  C80  1  0.87743366  0.62053896  0.14703369  1  0  -0.024997  -0.048335  0  4.005235  0
C  C81  1  0.12256904  0.37945936  0.85296529  1  0  -0.025  -0.048232  0  4.005162  0
C  C82  1  0.97498579  0.61777464  0.08138006  1  0  -0.083952  -0.100109  0  3.983167  0
C  C83  1  0.02501758  0.38222662  0.91861993  1  0  -0.083908  -0.100124  0  3.983075  0
C  C84  1  0.03337113  0.73100678  0.04742286  1  0  -0.089455  -0.08631  0  3.998404  0
C  C85  1  0.96663047  0.26899250  0.95257799  1  0  -0.089446  -0.086297  0  3.998383  0
C  C86  1  0.99720143  0.84704829  0.08148480  1  0  -0.07639  -0.082983  0  3.947545  0
C  C87  1  0.00280007  0.15295195  0.91851792  1  0  -0.07639  -0.08306  0  3.947524  0
C  C88  1  0.90037674  0.85099532  0.14770398  1  0  -0.018613  -0.032407  0  3.983801  0
C  C89  1  0.09962500  0.14900295  0.85229894  1  0  -0.01861  -0.032314  0  3.983561  0
C  C90  1  0.83976296  0.73776774  0.17998579  1  0  -0.075466  -0.101678  0  3.915471  0
C  C91  1  0.16023888  0.26222956  0.82001591  1  0  -0.075476  -0.10178  0  3.915422  0
C  C92  1  0.86054083  0.97735436  0.18170320  1  0  0.185496  0.544832  0  4.249127  0
C  C93  1  0.13946492  0.02264391  0.81830038  1  0  0.18546  0.544778  0  4.249073  0
C  C94  1  0.81976777  0.69575577  0.42826331  1  0  0.178164  0.297517  0  4.068899  0
C  C95  1  0.18022858  0.30424548  0.57173668  1  0  0.178213  0.297629  0  4.06881  0
C  C96  1  0.66835386  0.89556291  0.43549951  1  0  -0.135453  -0.265667  0  3.864619  0
C  C97  1  0.33164460  0.10443737  0.56449992  1  0  -0.135447  -0.265667  0  3.864662  0
C  C98  1  0.91615426  0.89319760  0.45277569  1  0  -0.133084  -0.284624  0  3.890975  0
C  C99  1  0.08384320  0.10680267  0.54722440  1  0  -0.133053  -0.284556  0  3.890945  0
C  C100  1  0.67342403  0.33263733  0.58467044  1  0  0.176763  0.30228  0  4.060108  0
C  C101  1  0.32657078  0.66735996  0.41533126  1  0  0.17678  0.302315  0  4.060154  0
C  C102  1  0.81528579  0.28879130  0.71673898  1  0  -0.136592  -0.281752  0  3.893683  0
C  C103  1  0.18471391  0.71120700  0.28326132  1  0  -0.136648  -0.281893  0  3.893664  0
C  C104  1  0.56150001  0.31329624  0.72643199  1  0  -0.132068  -0.279214  0  3.91157  0
C  C105  1  0.43850071  0.68670204  0.27357027  1  0  -0.132112  -0.279226  0  3.911573  0
C  C106  1  0.51556247  0.35792589  0.11854037  1  0  0.167641  0.288641  0  4.124003  0
C  C107  1  0.48442031  0.64209702  0.88145809  1  0  0.167541  0.288523  0  4.124657  0
C  C108  1  0.31534152  0.27313189  0.06715692  1  0  -0.131982  -0.267103  0  3.867182  0
C  C109  1  0.68465405  0.72686739  0.93284326  1  0  -0.131986  -0.266997  0  3.867241  0
C  C110  1  0.31579250  0.51185819  0.07429681  1  0  -0.132847  -0.289779  0  3.92403  0
C  C111  1  0.68420274  0.48814404  0.92570373  1  0  -0.132858  -0.289738  0  3.924128  0
N  N112  1  0.80214339  0.82230975  0.43773836  1  0  -0.274537  0.04563  0  3.726763  0
N  N113  1  0.19785395  0.17769151  0.56226098  1  0  -0.274541  0.045589  0  3.726749  0
N  N114  1  0.68198662  0.30926435  0.67305600  1  0  -0.280583  0.030975  0  3.723886  0
N  N115  1  0.31801310  0.69073393  0.32694560  1  0  -0.280564  0.030939  0  3.723781  0
N  N116  1  0.38875175  0.38041908  0.08590520  1  0  -0.282325  0.029036  0  3.728837  0
N  N117  1  0.61124908  0.61957823  0.91409585  1  0  -0.282324  0.028972  0  3.728664  0
O  O118  1  0.64006363  0.23159560  0.34645168  1  0  -0.342299  -0.601776  0  2.36666  0
O  O119  1  0.35993821  0.76840170  0.65355002  1  0  -0.34226  -0.601824  0  2.366583  0
O  O120  1  0.51619499  0.40277161  0.38988174  1  0  -0.312564  -0.530474  0  2.179723  0
O  O121  1  0.48380984  0.59722573  0.61011800  1  0  -0.312619  -0.530587  0  2.179636  0
O  O122  1  0.91744105  0.25318753  0.34298417  1  0  -0.342258  -0.60263  0  2.355747  0
O  O123  1  0.08255952  0.74682061  0.65701644  1  0  -0.342226  -0.602562  0  2.355723  0
O  O124  1  0.00810289  0.43144843  0.37047889  1  0  -0.317835  -0.545086  0  2.135653  0
O  O125  1  0.99190446  0.56856171  0.62952021  1  0  -0.317806  -0.545014  0  2.135612  0
O  O126  1  0.72076803  0.50288841  0.23709743  1  0  -0.33949  -0.60069  0  2.30232  0
O  O127  1  0.27923790  0.49710796  0.76290043  1  0  -0.339506  -0.600731  0  2.302178  0
O  O128  1  0.85331348  0.39542837  0.14624915  1  0  -0.325984  -0.555218  0  2.255237  0
O  O129  1  0.14669007  0.60457100  0.85374579  1  0  -0.325919  -0.555187  0  2.255414  0
O  O130  1  0.76615192  0.98313222  0.23764261  1  0  -0.332929  -0.556986  0  2.168246  0
O  O131  1  0.23384844  0.01686904  0.76235738  1  0  -0.3329  -0.556928  0  2.168228  0
O  O132  1  0.92265473  0.07679506  0.15230103  1  0  -0.334444  -0.561433  0  2.180509  0
O  O133  1  0.07735743  0.92320021  0.84770679  1  0  -0.334423  -0.56145  0  2.180528  0
O  O134  1  0.72345522  0.62999966  0.41643374  1  0  -0.31243  -0.47274  0  2.355656  0
O  O135  1  0.27654236  0.36999962  0.58356710  1  0  -0.312476  -0.472776  0  2.355627  0
O  O136  1  0.77707239  0.33157894  0.53752532  1  0  -0.312545  -0.469051  0  2.331366  0
O  O137  1  0.22292653  0.66841740  0.46247452  1  0  -0.312514  -0.469004  0  2.331445  0
O  O138  1  0.58368331  0.24689476  0.13133219  1  0  -0.311433  -0.467519  0  2.323861  0
O  O139  1  0.41632204  0.75308973  0.86867147  1  0  -0.311279  -0.467215  0  2.325056  0
