# generated using pymatgen
data_CdH8C14(SN2)3
_symmetry_space_group_name_H-M   'P 1'
_cell_length_a   7.72789339
_cell_length_b   9.48117247
_cell_length_c   14.49260688
_cell_angle_alpha   109.09338538
_cell_angle_beta   107.53909635
_cell_angle_gamma   90.00592526
_symmetry_Int_Tables_number   1
_chemical_formula_structural   CdH8C14(SN2)3
_chemical_formula_sum   'Cd2 H16 C28 S6 N12'
_cell_volume   951.04524717
_cell_formula_units_Z   2
loop_
 _symmetry_equiv_pos_site_id
 _symmetry_equiv_pos_as_xyz
  1  'x, y, z'
loop_
 _atom_site_type_symbol
 _atom_site_label
 _atom_site_symmetry_multiplicity
 _atom_site_fract_x
 _atom_site_fract_y
 _atom_site_fract_z
 _atom_site_occupancy
 _atom_site_pbe_bader_charge
 _atom_site_pbe_bader_spin_density
 _atom_site_pbe_cm5_charge
 _atom_site_pbe_ddec_charge
 _atom_site_pbe_ddec_spin_density
 _atom_site_pbe_ddec_sum_bond_order
 _atom_site_pbe_magmom
Cd  Cd0  1  0.00001431  0.50000160  0.50000816  1  1.170253  0  0.718843  0.733444  0  2.451551  0
Cd  Cd1  1  0.49998142  0.99998036  0.49998803  1  1.169215  0  0.719416  0.732957  0  2.453142  0
H  H2  1  0.85844694  0.42964835  0.67110022  1  0.132482  0  0.107872  0.078742  0  1.055672  0
H  H3  1  0.77655783  0.55408314  0.82844722  1  0.063717  0  0.104076  0.113266  0  1.007901  0
H  H4  1  0.87992595  0.97974305  0.79430706  1  0.067651  0  0.106097  0.12049  0  1.004675  0
H  H5  1  0.95892672  0.83521800  0.63598110  1  0.135654  0  0.105779  0.084621  0  1.057457  0
H  H6  1  0.64153019  0.75849279  0.32905700  1  0.134145  0  0.10782  0.078593  0  1.05593  0
H  H7  1  0.72347093  0.72558211  0.17172097  1  0.094606  0  0.104249  0.113375  0  1.007485  0
H  H8  1  0.61996681  0.18534144  0.20580652  1  0.107852  0  0.106216  0.119728  0  1.00497  0
H  H9  1  0.54097196  0.19912311  0.36414581  1  0.139915  0  0.106161  0.084548  0  1.057724  0
H  H10  1  0.14161117  0.57038313  0.32892883  1  0.132418  0  0.107811  0.078654  0  1.055752  0
H  H11  1  0.22348194  0.44595602  0.17157343  1  0.06342  0  0.104057  0.113281  0  1.007781  0
H  H12  1  0.12006935  0.02028949  0.20568583  1  0.067917  0  0.106105  0.120415  0  1.004943  0
H  H13  1  0.04106125  0.16479560  0.36401509  1  0.135719  0  0.105825  0.084643  0  1.057452  0
H  H14  1  0.35848118  0.24147015  0.67092933  1  0.133226  0  0.107822  0.078675  0  1.055871  0
H  H15  1  0.27651683  0.27439651  0.82825926  1  0.094553  0  0.104232  0.113341  0  1.007282  0
H  H16  1  0.38001680  0.81464754  0.79419856  1  0.108658  0  0.106151  0.119741  0  1.004871  0
H  H17  1  0.45901586  0.80083364  0.63585736  1  0.139902  0  0.106077  0.084543  0  1.05757  0
C  C18  1  0.86424796  0.55149799  0.70128381  1  0.508334  0  0.048865  0.109186  0  3.940384  0
C  C19  1  0.81865448  0.62226404  0.78966246  1  -0.049575  0  -0.085415  -0.170642  0  3.951037  0
C  C20  1  0.82584283  0.77929918  0.82639555  1  -0.011522  0  0.010013  0.090902  0  4.021702  0
C  C21  1  0.87457378  0.85787834  0.76944276  1  0.050804  0  -0.074963  -0.139477  0  3.890637  0
C  C22  1  0.91887232  0.77825944  0.68187211  1  0.516826  0  0.045944  0.101747  0  3.919016  0
C  C23  1  0.78446460  0.85765975  0.92087292  1  0.437183  0  0.12794  0.096325  0  4.018084  0
C  C24  1  0.59309278  0.63930264  0.43955266  1  0.590825  0  0.146621  0.273591  0  4.287505  0
C  C25  1  0.63573207  0.85012138  0.29887032  1  0.519859  0  0.048126  0.108135  0  3.939379  0
C  C26  1  0.68137198  0.83256292  0.21051580  1  -0.055574  0  -0.084411  -0.169903  0  3.949647  0
C  C27  1  0.67420786  0.95287452  0.17379702  1  -0.075752  0  0.009524  0.090584  0  4.020609  0
C  C28  1  0.62545723  0.08840715  0.23072282  1  0.042874  0  -0.075644  -0.138503  0  3.888688  0
C  C29  1  0.58109198  0.09628309  0.31826971  1  0.487528  0  0.046534  0.101851  0  3.919128  0
C  C30  1  0.71561105  0.93671507  0.07932234  1  0.426547  0  0.128492  0.0963  0  4.018168  0
C  C31  1  0.90700351  0.19989581  0.56064869  1  0.567487  0  0.147853  0.275231  0  4.285951  0
C  C32  1  0.13579156  0.44853819  0.29873497  1  0.508362  0  0.048953  0.109398  0  3.939906  0
C  C33  1  0.18136741  0.37776570  0.21035286  1  -0.049626  0  -0.085401  -0.170694  0  3.951291  0
C  C34  1  0.17417639  0.22073632  0.17360979  1  -0.010732  0  0.009834  0.090686  0  4.021874  0
C  C35  1  0.12541672  0.14214981  0.23055685  1  0.052806  0  -0.074835  -0.139249  0  3.890807  0
C  C36  1  0.08113481  0.22177243  0.31813157  1  0.51477  0  0.045902  0.101761  0  3.919401  0
C  C37  1  0.21554658  0.14236938  0.07913035  1  0.435821  0  0.128008  0.096451  0  4.017867  0
C  C38  1  0.40689652  0.36066184  0.56042465  1  0.590371  0  0.146775  0.273708  0  4.287879  0
C  C39  1  0.36427201  0.14984568  0.70111998  1  0.520884  0  0.048107  0.108119  0  3.939348  0
C  C40  1  0.31862689  0.16741082  0.78947098  1  -0.056191  0  -0.084395  -0.169832  0  3.949664  0
C  C41  1  0.32579050  0.04711946  0.82620441  1  -0.075044  0  0.009468  0.090389  0  4.020624  0
C  C42  1  0.37452981  0.91157086  0.76927696  1  0.042012  0  -0.075593  -0.138513  0  3.88848  0
C  C43  1  0.41890082  0.90369286  0.68173150  1  0.487177  0  0.046676  0.1019  0  3.919414  0
C  C44  1  0.28438439  0.06328507  0.92067960  1  0.426574  0  0.128556  0.096499  0  4.01817  0
C  C45  1  0.09295116  0.80008911  0.43935058  1  0.567102  0  0.147915  0.275136  0  4.286175  0
S  S46  1  0.64825464  0.48263322  0.37147947  1  0.035957  0  -0.152146  -0.306344  0  2.462147  0
S  S47  1  0.85176803  0.11137888  0.62872672  1  0.031666  0  -0.152252  -0.306709  0  2.462309  0
S  S48  1  0.35177554  0.51733850  0.62851604  1  0.036623  0  -0.152177  -0.306382  0  2.461983  0
S  S49  1  0.14817338  0.88859982  0.37125372  1  0.029882  0  -0.152371  -0.306779  0  2.461639  0
S  S50  1  0.74995236  0.76527670  0.00004030  1  0.226188  0  0.118352  0.079192  0  2.728249  0
S  S51  1  0.25006788  0.23473714  0.99995794  1  0.226596  0  0.118456  0.079219  0  2.728292  0
N  N52  1  0.91575921  0.62774225  0.64873384  1  -1.231372  0  -0.321322  -0.220781  0  3.475511  0
N  N53  1  0.76986563  0.00334324  0.95557659  1  -0.662346  0  -0.200364  -0.172552  0  3.281698  0
N  N54  1  0.55269631  0.75403562  0.48780079  1  -1.297582  0  -0.387619  -0.465394  0  3.142991  0
N  N55  1  0.58422574  0.97892602  0.35140337  1  -1.212474  0  -0.321888  -0.220189  0  3.47566  0
N  N56  1  0.73040807  0.04785261  0.04475403  1  -0.621845  0  -0.200774  -0.171932  0  3.280738  0
N  N57  1  0.94755239  0.26630526  0.51236853  1  -1.269812  0  -0.388882  -0.467221  0  3.140751  0
N  N58  1  0.08425676  0.37227943  0.35127665  1  -1.2317  0  -0.321434  -0.221003  0  3.475271  0
N  N59  1  0.23012881  0.99668484  0.04443424  1  -0.661402  0  -0.200381  -0.172588  0  3.28176  0
N  N60  1  0.44726461  0.24593256  0.51216953  1  -1.297576  0  -0.387717  -0.465444  0  3.143625  0
N  N61  1  0.41576852  0.02103218  0.64858794  1  -1.212306  0  -0.321866  -0.220202  0  3.475837  0
N  N62  1  0.26957763  0.95215750  0.95525432  1  -0.622206  0  -0.200854  -0.172031  0  3.280998  0
N  N63  1  0.05243355  0.73370783  0.48764169  1  -1.267724  0  -0.38882  -0.466999  0  3.141472  0
