# generated using pymatgen
data_Li2H3C6N3O7
_symmetry_space_group_name_H-M   'P 1'
_cell_length_a   4.71934221
_cell_length_b   6.02297014
_cell_length_c   15.91885022
_cell_angle_alpha   90.00174539
_cell_angle_beta   90.00303623
_cell_angle_gamma   96.65723311
_symmetry_Int_Tables_number   1
_chemical_formula_structural   Li2H3C6N3O7
_chemical_formula_sum   'Li4 H6 C12 N6 O14'
_cell_volume   449.43377895
_cell_formula_units_Z   2
loop_
 _symmetry_equiv_pos_site_id
 _symmetry_equiv_pos_as_xyz
  1  'x, y, z'
loop_
 _atom_site_type_symbol
 _atom_site_label
 _atom_site_symmetry_multiplicity
 _atom_site_fract_x
 _atom_site_fract_y
 _atom_site_fract_z
 _atom_site_occupancy
 _atom_site_hle17_bader_spin_density
 _atom_site_hle17_ddec_charge
 _atom_site_hle17_ddec_spin_density
 _atom_site_hle17_ddec_sum_bond_order
 _atom_site_hle17_magmom
 _atom_site_hse06_10hf_bader_spin_density
 _atom_site_hse06_10hf_ddec_charge
 _atom_site_hse06_10hf_ddec_spin_density
 _atom_site_hse06_10hf_ddec_sum_bond_order
 _atom_site_hse06_10hf_magmom
 _atom_site_hse06_bader_spin_density
 _atom_site_hse06_ddec_charge
 _atom_site_hse06_ddec_spin_density
 _atom_site_hse06_ddec_sum_bond_order
 _atom_site_hse06_magmom
 _atom_site_pbe_bader_spin_density
 _atom_site_pbe_cm5_charge
 _atom_site_pbe_ddec_charge
 _atom_site_pbe_ddec_spin_density
 _atom_site_pbe_ddec_sum_bond_order
 _atom_site_pbe_magmom
Li  Li0  1  0.28711446  0.66054167  0.55279841  1  0  0.848342  0  0.406674  0  0  0.799137  0  0.524749  0  0  0.810449  0  0.505762  0  0  0.536621  0.791037  0  0.538087  0
Li  Li1  1  0.71289585  0.33946573  0.05280747  1  0  0.848358  0  0.406661  0  0  0.799166  0  0.524714  0  0  0.810314  0  0.505961  0  0  0.536573  0.791055  0  0.538257  0
Li  Li2  1  0.39055912  0.21439141  0.48534165  1  0  0.849341  0  0.399035  0  0  0.795188  0  0.525542  0  0  0.807101  0  0.505462  0  0  0.521911  0.786656  0  0.539615  0
Li  Li3  1  0.60945362  0.78560450  0.98534618  1  0  0.849353  0  0.399034  0  0  0.795233  0  0.525483  0  0  0.806983  0  0.505643  0  0  0.521881  0.786698  0  0.539763  0
H  H4  1  0.25549307  0.03899821  0.85215550  1  0  0.104047  0  0.94169  0  0  0.105485  0  1.011069  0  0  0.109378  0  1.007798  0  0  0.130173  0.102573  0  1.013648  0
H  H5  1  0.74451517  0.96100134  0.35215127  1  0  0.104046  0  0.94152  0  0  0.105452  0  1.01095  0  0  0.109378  0  1.007612  0  0  0.130143  0.102538  0  1.013504  0
H  H6  1  0.12440499  0.98380011  0.69742341  1  0  0.107374  0  0.927369  0  0  0.112152  0  0.990879  0  0  0.11581  0  0.988553  0  0  0.133022  0.109448  0  0.992717  0
H  H7  1  0.87557669  0.01619445  0.19742131  1  0  0.10739  0  0.927337  0  0  0.112153  0  0.990853  0  0  0.115789  0  0.988567  0  0  0.132991  0.109438  0  0.99273  0
H  H8  1  0.85387359  0.29558618  0.75133109  1  0  0.373151  0  0.953728  0  0  0.339704  0  1.03432  0  0  0.352801  0  1.016956  0  0  0.289441  0.330649  0  1.045904  0
H  H9  1  0.14610931  0.70440798  0.25132545  1  0  0.373187  0  0.953702  0  0  0.339711  0  1.034318  0  0  0.352809  0  1.016951  0  0  0.289447  0.330658  0  1.045913  0
C  C10  1  0.51471496  0.57193434  0.72332636  1  0  0.035971  0  3.677541  0  0  0.03768  0  3.923686  0  0  0.035309  0  3.942475  0  0  0.132053  0.038963  0  3.911346  0
C  C11  1  0.48527972  0.42807418  0.22333053  1  0  0.035845  0  3.677652  0  0  0.037558  0  3.923767  0  0  0.035183  0  3.9426  0  0  0.132041  0.038846  0  3.911444  0
C  C12  1  0.76309490  0.45844388  0.86376608  1  0  0.664662  0  3.856181  0  0  0.611108  0  4.162174  0  0  0.644135  0  4.153723  0  0  0.243761  0.588797  0  4.167267  0
C  C13  1  0.23689038  0.54154318  0.36376976  1  0  0.664676  0  3.856728  0  0  0.611059  0  4.162663  0  0  0.644105  0  4.154194  0  0  0.243731  0.588766  0  4.167725  0
C  C14  1  0.58813878  0.60141512  0.80908206  1  0  0.041275  0  3.669761  0  0  0.041351  0  3.916529  0  0  0.039746  0  3.935597  0  0  0.131968  0.042144  0  3.903927  0
C  C15  1  0.41185597  0.39857400  0.30908156  1  0  0.041234  0  3.669982  0  0  0.041572  0  3.91638  0  0  0.039945  0  3.935489  0  0  0.132008  0.042336  0  3.903809  0
C  C16  1  0.33187797  0.90613057  0.81493489  1  0  0.114174  0  3.649168  0  0  0.084746  0  3.915674  0  0  0.088425  0  3.928732  0  0  0.077463  0.082171  0  3.907011  0
C  C17  1  0.66811767  0.09387242  0.31493247  1  0  0.114109  0  3.649021  0  0  0.08471  0  3.915508  0  0  0.088416  0  3.928504  0  0  0.077452  0.082138  0  3.906779  0
C  C18  1  0.59037071  0.39170004  0.66231507  1  0  0.669181  0  3.824433  0  0  0.614794  0  4.130806  0  0  0.648454  0  4.120629  0  0  0.255151  0.592009  0  4.137215  0
C  C19  1  0.40963411  0.60830833  0.16231981  1  0  0.669289  0  3.824077  0  0  0.61465  0  4.130806  0  0  0.648271  0  4.120696  0  0  0.255001  0.591874  0  4.137264  0
C  C20  1  0.25847519  0.87587819  0.73023390  1  0  0.107388  0  3.645994  0  0  0.078421  0  3.912528  0  0  0.080952  0  3.926731  0  0  0.074632  0.076673  0  3.902896  0
C  C21  1  0.74151541  0.12412255  0.23023365  1  0  0.10738  0  3.645831  0  0  0.078434  0  3.912324  0  0  0.080945  0  3.926578  0  0  0.074669  0.076682  0  3.902742  0
N  N22  1  0.49269128  0.76909719  0.85314717  1  0  -0.308194  0  3.15104  0  0  -0.273489  0  3.415599  0  0  -0.279834  0  3.428436  0  0  -0.324738  -0.269115  0  3.407159  0
N  N23  1  0.50730396  0.23089904  0.35314405  1  0  -0.308094  0  3.15123  0  0  -0.273479  0  3.415695  0  0  -0.279783  0  3.428453  0  0  -0.324726  -0.269099  0  3.407199  0
N  N24  1  0.34855504  0.71026221  0.68616249  1  0  -0.304541  0  3.192433  0  0  -0.27264  0  3.4609  0  0  -0.278573  0  3.474929  0  0  -0.33184  -0.268472  0  3.451455  0
N  N25  1  0.65144189  0.28974984  0.18616365  1  0  -0.304493  0  3.192308  0  0  -0.272613  0  3.46077  0  0  -0.278612  0  3.474948  0  0  -0.331841  -0.268454  0  3.451422  0
N  N26  1  0.81827467  0.93326625  0.52324631  1  0  0.753018  0  4.121084  0  0  0.789653  0  4.40927  0  0  0.818684  0  4.411332  0  0  0.120915  0.789352  0  4.377719  0
N  N27  1  0.18174385  0.06673199  0.02324600  1  0  0.753342  0  4.120849  0  0  0.789443  0  4.409726  0  0  0.815268  0  4.412576  0  0  0.12092  0.7699  0  4.408069  0
O  O28  1  0.46313906  0.37731432  0.59376381  1  0  -0.669137  0  2.037748  0  0  -0.628976  0  2.284323  0  0  -0.648561  0  2.270559  0  0  -0.358908  -0.615529  0  2.293446  0
O  O29  1  0.53687514  0.62271330  0.09377512  1  0  -0.66909  0  2.03753  0  0  -0.628877  0  2.284253  0  0  -0.648524  0  2.270679  0  0  -0.358696  -0.615455  0  2.29349  0
O  O30  1  0.54816122  0.92604872  0.51444201  1  0  -0.600413  0  1.85252  0  0  -0.599155  0  2.100214  0  0  -0.61301  0  2.088284  0  0  -0.276275  -0.595903  0  2.10024  0
O  O31  1  0.45185865  0.07395545  0.01444035  1  0  -0.600551  0  1.852609  0  0  -0.599192  0  2.100555  0  0  -0.611759  0  2.088774  0  0  -0.276297  -0.589551  0  2.1087  0
O  O32  1  0.77923956  0.26248395  0.68357099  1  0  -0.536735  0  2.076831  0  0  -0.486433  0  2.296515  0  0  -0.510987  0  2.283636  0  0  -0.296822  -0.469508  0  2.304788  0
O  O33  1  0.22073521  0.73750939  0.18357073  1  0  -0.536856  0  2.076705  0  0  -0.486442  0  2.296497  0  0  -0.511019  0  2.283679  0  0  -0.296876  -0.469541  0  2.304782  0
O  O34  1  0.91683786  0.78306037  0.56538104  1  0  -0.507275  0  1.809424  0  0  -0.504321  0  2.038888  0  0  -0.51745  0  2.029418  0  0  -0.201707  -0.501696  0  2.037008  0
O  O35  1  0.08318383  0.21695150  0.06537741  1  0  -0.507368  0  1.809185  0  0  -0.504232  0  2.038794  0  0  -0.516013  0  2.02942  0  0  -0.201699  -0.495131  0  2.045287  0
O  O36  1  0.97549051  0.09086418  0.48942357  1  0  -0.494263  0  1.793134  0  0  -0.492833  0  2.024598  0  0  -0.505121  0  2.014434  0  0  -0.186618  -0.490735  0  2.023176  0
O  O37  1  0.02452609  0.90912374  0.98942187  1  0  -0.494401  0  1.793163  0  0  -0.492708  0  2.024766  0  0  -0.50366  0  2.014714  0  0  -0.186622  -0.484145  0  2.031728  0
O  O38  1  0.74795443  0.48731458  0.94115554  1  0  -0.675095  0  2.038108  0  0  -0.629169  0  2.27879  0  0  -0.649973  0  2.266291  0  0  -0.365313  -0.614824  0  2.287153  0
O  O39  1  0.25201140  0.51266063  0.44114588  1  0  -0.674965  0  2.038822  0  0  -0.629027  0  2.279497  0  0  -0.649738  0  2.266809  0  0  -0.365273  -0.614685  0  2.287745  0
O  O40  1  0.91558017  0.32153012  0.82837562  1  0  -0.572274  0  2.02032  0  0  -0.522436  0  2.240166  0  0  -0.547968  0  2.230177  0  0  -0.304844  -0.504732  0  2.246414  0
O  O41  1  0.08441052  0.67846564  0.32837433  1  0  -0.572387  0  2.020208  0  0  -0.52254  0  2.240084  0  0  -0.548061  0  2.230069  0  0  -0.304872  -0.504827  0  2.246312  0
