# generated using pymatgen
data_CoPH8C7N2O3
_symmetry_space_group_name_H-M   'P 1'
_cell_length_a   5.28209029
_cell_length_b   11.07898023
_cell_length_c   17.78997886
_cell_angle_alpha   101.80477221
_cell_angle_beta   90.00045220
_cell_angle_gamma   90.00006207
_symmetry_Int_Tables_number   1
_chemical_formula_structural   CoPH8C7N2O3
_chemical_formula_sum   'Co4 P4 H32 C28 N8 O12'
_cell_volume   1019.05433608
_cell_formula_units_Z   4
loop_
 _symmetry_equiv_pos_site_id
 _symmetry_equiv_pos_as_xyz
  1  'x, y, z'
loop_
 _atom_site_type_symbol
 _atom_site_label
 _atom_site_symmetry_multiplicity
 _atom_site_fract_x
 _atom_site_fract_y
 _atom_site_fract_z
 _atom_site_occupancy
 _atom_site_hle17_ddec_charge
 _atom_site_hle17_ddec_spin_density
 _atom_site_hle17_ddec_sum_bond_order
 _atom_site_hle17_magmom
 _atom_site_hse06_10hf_ddec_charge
 _atom_site_hse06_10hf_ddec_spin_density
 _atom_site_hse06_10hf_ddec_sum_bond_order
 _atom_site_hse06_10hf_magmom
 _atom_site_hse06_ddec_charge
 _atom_site_hse06_ddec_spin_density
 _atom_site_hse06_ddec_sum_bond_order
 _atom_site_hse06_magmom
 _atom_site_pbe_cm5_charge
 _atom_site_pbe_ddec_charge
 _atom_site_pbe_ddec_spin_density
 _atom_site_pbe_ddec_sum_bond_order
 _atom_site_pbe_magmom
Co  Co0  1  0.79918121  0.51240057  0.91049388  1  1.09768  2.822951  1.970818  2.559  1.051968  2.832791  2.41242  2.614  1.129149  2.872648  2.336568  2.692  0.682321  0.981112  2.795225  2.480752  2.541
Co  Co1  1  0.29918414  0.98760317  0.58950409  1  1.097678  2.822947  1.970741  2.559  1.051988  2.83279  2.41234  2.614  1.129168  2.872646  2.336494  2.692  0.682298  0.981131  2.795221  2.48066  2.541
Co  Co2  1  0.20081999  0.48760607  0.08950408  1  1.097648  2.822958  1.970842  2.559  1.051908  2.832788  2.412472  2.614  1.129101  2.872644  2.336607  2.692  0.682273  0.981052  2.795221  2.480804  2.541
Co  Co3  1  0.70080381  0.01240169  0.41049759  1  1.097644  2.82294  1.970791  2.559  1.051967  2.832782  2.412381  2.614  1.12913  2.872642  2.336541  2.692  0.682318  0.981142  2.795214  2.48063  2.541
P  P4  1  0.28235267  0.65524651  0.96928845  1  1.421754  0.008755  4.95394  0.004  1.252451  0.015697  5.475169  0.011  1.308734  0.0115  5.441784  0.009  0.280986  1.211219  0.019321  5.4927  0.012
P  P5  1  0.78235365  0.84476184  0.53071117  1  1.421561  0.008754  4.954226  0.004  1.252253  0.015697  5.475456  0.011  1.308537  0.011502  5.442081  0.009  0.280947  1.211012  0.019321  5.493013  0.012
P  P6  1  0.71764284  0.34476103  0.03070794  1  1.421543  0.008756  4.954228  0.004  1.252225  0.015697  5.475485  0.011  1.308509  0.011501  5.442109  0.009  0.280959  1.210991  0.019322  5.493011  0.012
P  P7  1  0.21764187  0.15524579  0.46929085  1  1.421698  0.008754  4.9539  0.004  1.252389  0.015697  5.47515  0.011  1.30867  0.011499  5.44177  0.009  0.281035  1.211145  0.01932  5.492718  0.012
H  H8  1  0.23931873  0.78105190  0.97003621  1  -0.156293  0.004521  0.923755  0.007  -0.123918  0.003538  1.00683  0.005  -0.131857  0.002412  1.006937  0.003  0.083122  -0.11812  0.00475  1.007206  0.006
H  H9  1  0.73931371  0.71895832  0.52996803  1  -0.15624  0.00452  0.923716  0.007  -0.123885  0.003537  1.006823  0.005  -0.131821  0.002411  1.006925  0.003  0.0831  -0.118083  0.004749  1.007207  0.006
H  H10  1  0.76067679  0.21895755  0.02996435  1  -0.156253  0.004521  0.923694  0.007  -0.123888  0.003537  1.006784  0.005  -0.131824  0.002411  1.006886  0.003  0.083096  -0.11809  0.004749  1.007161  0.006
H  H11  1  0.26067234  0.28105214  0.47003771  1  -0.156318  0.004521  0.923719  0.007  -0.123942  0.003537  1.006797  0.005  -0.131883  0.002412  1.006906  0.003  0.083107  -0.11814  0.004749  1.007184  0.006
H  H12  1  0.01173875  0.50171036  0.73858879  1  0.102228  -0.000129  0.933843  0.001  0.112022  -0.000109  0.994568  0.0  0.114859  -9.7e-05  0.991127  0.0  0.139037  0.109659  -0.000145  0.997436  0.0
H  H13  1  0.51173866  0.99828657  0.76140881  1  0.102226  -0.000129  0.933831  0.001  0.112012  -0.000109  0.994562  0.0  0.114851  -9.7e-05  0.991117  0.0  0.139028  0.109647  -0.000145  0.997431  0.0
H  H14  1  0.98825677  0.49828890  0.26140772  1  0.102234  -0.000129  0.933826  0.001  0.112044  -0.000109  0.994532  0.0  0.114883  -9.7e-05  0.991087  0.0  0.139032  0.109681  -0.000145  0.9974  0.0
H  H15  1  0.48825307  0.00171556  0.23859423  1  0.102236  -0.000129  0.933934  0.001  0.112048  -0.000109  0.994623  0.0  0.114885  -9.8e-05  0.991183  0.0  0.139037  0.109684  -0.000146  0.997491  0.0
H  H16  1  0.34105245  0.36348365  0.81804426  1  0.112904  0.000112  0.952095  0.001  0.120244  0.000299  1.014304  0.001  0.122617  0.000178  1.013419  0.001  0.121804  0.118454  0.000428  1.015094  0.001
H  H17  1  0.84103993  0.13652290  0.68195407  1  0.112902  0.000112  0.951965  0.001  0.120171  0.000299  1.014297  0.001  0.122545  0.000178  1.013412  0.001  0.121794  0.118381  0.000428  1.015078  0.001
H  H18  1  0.65896957  0.63651841  0.18195484  1  0.112955  0.000112  0.951969  0.001  0.120234  0.000299  1.014279  0.001  0.122609  0.000178  1.013392  0.001  0.121809  0.118445  0.000428  1.015061  0.001
H  H19  1  0.15894422  0.86348479  0.31805133  1  0.112833  0.000112  0.951995  0.001  0.120177  0.000299  1.014198  0.001  0.12255  0.000178  1.013314  0.001  0.121754  0.118392  0.000428  1.014995  0.001
H  H20  1  0.37425867  0.28079558  0.65802689  1  0.134819  -8.5e-05  0.973579  0.0  0.142046  -5.1e-05  1.036999  0.0  0.14559  -0.000116  1.035303  0.0  0.123466  0.139322  2.4e-05  1.038417  0.0
H  H21  1  0.87425061  0.21920186  0.84197379  1  0.134832  -8.5e-05  0.97331  0.0  0.14193  -5.1e-05  1.036897  0.0  0.145464  -0.000116  1.03522  0.0  0.123473  0.139209  2.4e-05  1.038315  0.0
H  H22  1  0.62575199  0.71920283  0.34197402  1  0.134813  -8.5e-05  0.97331  0.0  0.141961  -5.1e-05  1.036861  0.0  0.145497  -0.000116  1.035177  0.0  0.123438  0.139236  2.5e-05  1.038279  0.0
H  H23  1  0.12574302  0.78079569  0.15803039  1  0.134807  -8.5e-05  0.973457  0.0  0.141972  -5.1e-05  1.036986  0.0  0.145512  -0.000115  1.035297  0.0  0.123481  0.139251  2.4e-05  1.038404  0.0
H  H24  1  0.80571737  0.27434568  0.57088112  1  0.114564  -0.000105  0.928365  0.0  0.129677  -0.000199  0.986021  0.0  0.13168  -0.000268  0.98453  0.0  0.121599  0.127808  -0.000108  0.987367  0.0
H  H25  1  0.30572874  0.22564333  0.92911669  1  0.114534  -0.000104  0.928439  0.0  0.12971  -0.000199  0.986015  0.0  0.131715  -0.000268  0.984523  0.0  0.121582  0.127842  -0.000108  0.98737  0.0
H  H26  1  0.19429140  0.72565178  0.42911799  1  0.114604  -0.000104  0.928365  0.0  0.12973  -0.000199  0.985992  0.0  0.131732  -0.000268  0.984504  0.0  0.121626  0.127861  -0.000108  0.987338  0.0
H  H27  1  0.69427435  0.77435052  0.07088648  1  0.114586  -0.000104  0.928344  0.0  0.129674  -0.000199  0.986029  0.0  0.13168  -0.000268  0.984536  0.0  0.121623  0.127807  -0.000108  0.987381  0.0
H  H28  1  0.00206257  0.40467744  0.59903505  1  0.083289  -3.6e-05  0.933407  0.0  0.097362  1e-06  1.001355  0.0  0.097697  -7e-06  1.00192  0.0  0.113338  0.09696  2.3e-05  1.001181  0.0
H  H29  1  0.50206337  0.09530843  0.90096279  1  0.083271  -3.5e-05  0.933355  0.0  0.097344  1e-06  1.001285  0.0  0.097679  -7e-06  1.001853  0.0  0.113356  0.096945  2.3e-05  1.001106  0.0
H  H30  1  0.99794998  0.59531264  0.40096316  1  0.083302  -3.4e-05  0.933382  0.0  0.097316  1e-06  1.001358  0.0  0.097649  -7e-06  1.001928  0.0  0.113315  0.096911  2.3e-05  1.001188  0.0
H  H31  1  0.49793594  0.90469091  0.09903823  1  0.083268  -3.5e-05  0.933368  0.0  0.097382  1e-06  1.001232  0.0  0.097716  -6e-06  1.001799  0.0  0.113357  0.096975  2.3e-05  1.001061  0.0
H  H32  1  0.82407024  0.34556916  0.44409041  1  0.104091  -0.000144  0.962196  0.0  0.116838  -0.000167  1.018569  0.0  0.119884  -0.000201  1.017354  0.0  0.104229  0.114491  -0.000114  1.019595  0.0
H  H33  1  0.32406960  0.15442396  0.05590698  1  0.10405  -0.000144  0.962182  0.0  0.116753  -0.000167  1.018614  0.0  0.119801  -0.000201  1.017401  0.0  0.104222  0.114408  -0.000115  1.019638  0.0
H  H34  1  0.17593664  0.65441993  0.55590375  1  0.104029  -0.000143  0.962266  0.0  0.116712  -0.000167  1.018724  0.0  0.11976  -0.000201  1.017512  0.0  0.104185  0.114366  -0.000114  1.019746  0.0
H  H35  1  0.67592592  0.84557446  0.94409449  1  0.104088  -0.000143  0.962182  0.0  0.116798  -0.000167  1.018608  0.0  0.119842  -0.000201  1.017393  0.0  0.10423  0.114451  -0.000115  1.019633  0.0
H  H36  1  0.42838316  0.54998637  0.64087600  1  0.089956  -2.8e-05  0.958302  0.0  0.102189  -2.6e-05  1.014597  0.0  0.104574  -2e-05  1.013971  0.0  0.100485  0.100579  -4e-05  1.015051  0.0
H  H37  1  0.92836474  0.95000190  0.85912210  1  0.089974  -2.7e-05  0.958302  0.0  0.102214  -2.6e-05  1.014591  0.0  0.104597  -2e-05  1.013968  0.0  0.100515  0.100612  -4e-05  1.015038  0.0
H  H38  1  0.57161993  0.45000368  0.35912052  1  0.08999  -2.6e-05  0.95833  0.0  0.102218  -2.7e-05  1.014628  0.0  0.104603  -2e-05  1.014004  0.0  0.100494  0.100605  -4e-05  1.015085  0.0
H  H39  1  0.07162510  0.04999835  0.14087847  1  0.089955  -2.7e-05  0.958327  0.0  0.102179  -2.7e-05  1.014634  0.0  0.104564  -2e-05  1.014009  0.0  0.100484  0.100559  -4e-05  1.015102  0.0
C  C40  1  0.83181556  0.45488315  0.73942121  1  0.153661  -0.015094  3.667267  -0.009  0.098281  -0.00093  3.933249  0.001  0.113786  -0.000304  3.944995  0.001  0.141517  0.087359  -0.002399  3.925086  0.0
C  C41  1  0.33181444  0.04511695  0.76057744  1  0.153713  -0.015094  3.667012  -0.009  0.098364  -0.000929  3.932985  0.001  0.113869  -0.000307  3.944725  0.001  0.141588  0.087438  -0.002399  3.924823  0.0
C  C42  1  0.16818564  0.54511801  0.26057891  1  0.153576  -0.015101  3.667131  -0.009  0.098195  -0.000929  3.933113  0.001  0.113701  -0.000306  3.944855  0.001  0.141518  0.087273  -0.002399  3.924949  0.0
C  C43  1  0.66817729  0.95488975  0.23942390  1  0.153747  -0.0151  3.66692  -0.009  0.098357  -0.00093  3.932924  0.001  0.113862  -0.000305  3.944664  0.001  0.141575  0.087429  -0.002401  3.924769  0.0
C  C44  1  0.48503092  0.37901189  0.77772621  1  0.008065  -0.007705  3.735953  -0.005  -0.023355  -0.00104  4.011682  0.0  -0.020092  -0.001269  4.030843  0.0  -0.000798  -0.026063  -0.001022  3.998695  0.0
C  C45  1  0.98503269  0.12098754  0.72227497  1  0.008194  -0.007697  3.736149  -0.005  -0.023175  -0.001039  4.011879  0.0  -0.019911  -0.001268  4.031039  0.0  -0.000675  -0.02588  -0.001021  3.998896  0.0
C  C46  1  0.51497406  0.62098746  0.22227538  1  0.007979  -0.007702  3.736138  -0.005  -0.023403  -0.001039  4.011897  0.0  -0.020139  -0.00127  4.031055  0.0  -0.000747  -0.026109  -0.001021  3.998906  0.0
C  C47  1  0.01495525  0.87901091  0.27772763  1  0.008218  -0.007701  3.736175  -0.005  -0.023179  -0.001039  4.011851  0.0  -0.019918  -0.00127  4.031018  0.0  -0.000711  -0.025906  -0.001022  3.998893  0.0
C  C48  1  0.49552757  0.33968691  0.69934248  1  -0.079942  0.004997  3.65715  0.007  -0.120367  0.002126  3.918798  0.003  -0.120275  0.001672  3.93792  0.002  -0.001858  -0.120626  0.002665  3.906903  0.004
C  C49  1  0.99552963  0.16030504  0.80065163  1  -0.079976  0.004994  3.657318  0.007  -0.120284  0.002126  3.919015  0.003  -0.120191  0.001671  3.938142  0.002  -0.001989  -0.120552  0.002664  3.907135  0.004
C  C50  1  0.50447552  0.66030865  0.30065302  1  -0.079912  0.004996  3.657096  0.007  -0.120282  0.002126  3.918777  0.003  -0.120191  0.001671  3.93791  0.002  -0.001927  -0.120542  0.002664  3.906884  0.004
C  C51  1  0.00446778  0.83969061  0.19934951  1  -0.079935  0.004996  3.657359  0.007  -0.120327  0.002126  3.919056  0.003  -0.120234  0.001672  3.938181  0.002  -0.001973  -0.120591  0.002665  3.907177  0.004
C  C52  1  0.80433202  0.37318777  0.59721404  1  -0.049753  0.000667  3.64232  0.001  -0.114353  0.000516  3.885291  0.001  -0.110482  0.000338  3.895424  0.001  -0.045184  -0.11671  0.000705  3.879012  0.001
C  C53  1  0.30433110  0.12680033  0.90278422  1  -0.049755  0.000665  3.642465  0.001  -0.114382  0.000516  3.885437  0.001  -0.110517  0.000337  3.895579  0.001  -0.045234  -0.116748  0.000704  3.879169  0.001
C  C54  1  0.19567864  0.62680878  0.40278552  1  -0.049827  0.000664  3.642357  0.001  -0.114387  0.000516  3.885313  0.001  -0.110517  0.000337  3.895455  0.001  -0.045179  -0.116742  0.000705  3.879036  0.001
C  C55  1  0.69566631  0.87319443  0.09721850  1  -0.049843  0.000665  3.642446  0.001  -0.114374  0.000516  3.885337  0.001  -0.110503  0.000337  3.895469  0.001  -0.045246  -0.116731  0.000704  3.879069  0.001
C  C56  1  0.64595097  0.44095812  0.54836038  1  0.073367  1.7e-05  3.742369  0.0  0.090468  0.00018  3.987824  0.0  0.090137  0.000124  4.011589  0.0  -0.01275  0.090388  0.000225  3.972249  0.0
C  C57  1  0.14594930  0.05902975  0.95163579  1  0.073414  2.6e-05  3.742252  0.0  0.090556  0.00018  3.987648  0.0  0.090228  0.000124  4.011415  0.0  -0.012714  0.090471  0.000226  3.972068  0.0
C  C58  1  0.35406348  0.55903564  0.45163715  1  0.07328  3.9e-05  3.742406  0.0  0.090439  0.00018  3.987733  0.0  0.090109  0.000123  4.011503  0.0  -0.01275  0.090359  0.000226  3.972155  0.0
C  C59  1  0.85405190  0.94096038  0.04836468  1  0.073487  3.1e-05  3.742276  0.0  0.090546  0.00018  3.98777  0.0  0.09022  0.000126  4.01153  0.0  -0.012719  0.09046  0.000226  3.972185  0.0
C  C60  1  0.68479814  0.41499795  0.46882832  1  -0.108124  0.000102  3.740932  0.0  -0.127083  0.00012  3.989775  0.0  -0.129453  2.6e-05  4.010641  0.0  -0.09081  -0.125574  0.000295  3.976195  0.0
C  C61  1  0.18479289  0.08499688  0.03117119  1  -0.108189  9.6e-05  3.740786  0.0  -0.12712  0.00012  3.98962  0.0  -0.129499  2.4e-05  4.010496  0.0  -0.090881  -0.125618  0.000295  3.97604  0.0
C  C62  1  0.31521821  0.58499764  0.53116887  1  -0.107965  8.4e-05  3.740922  0.0  -0.126871  0.00012  3.989693  0.0  -0.129249  2.6e-05  4.010568  0.0  -0.090809  -0.12536  0.000295  3.97611  0.0
C  C63  1  0.81521020  0.91499694  0.96883028  1  -0.108317  9e-05  3.74107  0.0  -0.127252  0.00012  3.989968  0.0  -0.129618  2.3e-05  4.010821  0.0  -0.090926  -0.12575  0.000295  3.976397  0.0
C  C64  1  0.45989445  0.52686064  0.57896785  1  -0.129586  0.000192  3.778521  0.0  -0.150961  0.000234  4.031321  0.0  -0.153245  0.000153  4.05217  0.0  -0.098578  -0.149302  0.000313  4.017255  0.0
C  C65  1  0.95988720  0.97312770  0.92103201  1  -0.129452  0.000187  3.778646  0.0  -0.150837  0.000234  4.031441  0.0  -0.153127  0.000154  4.052301  0.0  -0.098556  -0.149192  0.000313  4.017372  0.0
C  C66  1  0.54012567  0.47313495  0.42102934  1  -0.129535  0.000178  3.778573  0.0  -0.150925  0.000234  4.031373  0.0  -0.153214  0.000153  4.052226  0.0  -0.098583  -0.149262  0.000313  4.017307  0.0
C  C67  1  0.04011399  0.02686428  0.07896924  1  -0.129479  0.000182  3.778476  0.0  -0.150843  0.000234  4.031308  0.0  -0.153131  0.000154  4.052162  0.0  -0.098576  -0.149182  0.000313  4.017246  0.0
N  N68  1  0.69644384  0.45020125  0.80209465  1  -0.391207  0.039345  3.361248  0.066  -0.34799  0.028919  3.680714  0.039  -0.373147  0.023501  3.688168  0.031  -0.36538  -0.327963  0.033834  3.67547  0.046
N  N69  1  0.19644107  0.04980327  0.69790309  1  -0.391268  0.039344  3.361168  0.066  -0.348073  0.028917  3.680631  0.039  -0.373228  0.0235  3.688082  0.031  -0.365463  -0.328051  0.033833  3.675391  0.046
N  N70  1  0.30356114  0.54980448  0.19790377  1  -0.391136  0.039345  3.36114  0.066  -0.347911  0.028917  3.680588  0.039  -0.373071  0.0235  3.688041  0.031  -0.365384  -0.327883  0.033832  3.675342  0.046
N  N71  1  0.80355634  0.95019887  0.30210051  1  -0.391255  0.039347  3.361028  0.066  -0.34806  0.028918  3.680513  0.039  -0.373216  0.023501  3.687965  0.031  -0.365382  -0.32804  0.033835  3.675287  0.046
N  N72  1  0.71635656  0.38865151  0.67614024  1  -0.057376  -0.000759  3.602558  0.0  0.037158  0.000364  3.816876  0.001  0.02298  0.000292  3.842841  0.001  -0.242473  0.046003  0.000211  3.800009  0.001
N  N73  1  0.21634782  0.11134293  0.82385858  1  -0.057388  -0.000759  3.602539  0.0  0.037126  0.000364  3.816837  0.001  0.02295  0.000293  3.842798  0.001  -0.242412  0.045966  0.00021  3.79998  0.001
N  N74  1  0.28365032  0.61134594  0.32385774  1  -0.057276  -0.000758  3.602591  0.0  0.037258  0.000363  3.816858  0.001  0.02308  0.000294  3.842823  0.001  -0.242405  0.046102  0.00021  3.799992  0.001
N  N75  1  0.78364391  0.88865735  0.17614424  1  -0.057425  -0.000759  3.602446  0.0  0.03708  0.000364  3.816801  0.001  0.022904  0.000291  3.84276  0.001  -0.242448  0.04592  0.00021  3.799939  0.001
O  O76  1  0.13550261  0.57934499  0.90080158  1  -0.833623  0.046479  2.026173  0.077  -0.774028  0.037322  2.329825  0.054  -0.814576  0.028022  2.306017  0.04  -0.386081  -0.738991  0.046563  2.343469  0.067
O  O77  1  0.63551695  0.92066869  0.59919834  1  -0.833635  0.046478  2.026385  0.077  -0.774031  0.037323  2.330033  0.054  -0.81459  0.028022  2.306242  0.04  -0.386054  -0.738993  0.046564  2.343676  0.067
O  O78  1  0.86449101  0.42066529  0.09919402  1  -0.833651  0.046474  2.026362  0.077  -0.774039  0.037321  2.330015  0.054  -0.814596  0.028022  2.30622  0.04  -0.386092  -0.738999  0.04656  2.343652  0.067
O  O79  1  0.36447857  0.07934442  0.40080153  1  -0.833625  0.046478  2.026258  0.077  -0.774038  0.037322  2.329911  0.054  -0.814578  0.02802  2.3061  0.04  -0.386145  -0.739007  0.046564  2.343567  0.067
O  O80  1  0.57068347  0.63874197  0.96059405  1  -0.84404  0.04914  2.112663  0.08  -0.781678  0.040508  2.427102  0.057  -0.821986  0.030765  2.400195  0.042  -0.382646  -0.747023  0.050342  2.443534  0.071
O  O81  1  0.07069044  0.86126048  0.53939930  1  -0.843989  0.049141  2.112675  0.08  -0.781619  0.040507  2.427087  0.057  -0.821929  0.030764  2.400182  0.042  -0.382638  -0.74699  0.050341  2.443571  0.071
O  O82  1  0.42930826  0.36126460  0.03939998  1  -0.843967  0.049141  2.112761  0.08  -0.781596  0.040508  2.427187  0.057  -0.821906  0.030766  2.400281  0.042  -0.38263  -0.746951  0.050343  2.443647  0.071
O  O83  1  0.92930507  0.13874161  0.46060149  1  -0.843967  0.04914  2.112624  0.08  -0.7816  0.040507  2.427043  0.057  -0.821903  0.030763  2.400135  0.042  -0.382603  -0.746964  0.050341  2.443516  0.071
O  O84  1  0.18578958  0.63740221  0.04826903  1  -0.846487  0.046817  2.059535  0.075  -0.787005  0.039915  2.37608  0.055  -0.826618  0.03066  2.351174  0.041  -0.385291  -0.752984  0.048914  2.390932  0.067
O  O85  1  0.68576775  0.86260278  0.45173236  1  -0.8464  0.046816  2.059578  0.075  -0.786964  0.039914  2.37621  0.055  -0.826527  0.030658  2.351207  0.041  -0.385273  -0.752942  0.048913  2.39106  0.067
O  O86  1  0.81420404  0.36260073  0.95172736  1  -0.846352  0.046812  2.059584  0.075  -0.786884  0.039911  2.376173  0.055  -0.826466  0.030655  2.351209  0.041  -0.385248  -0.752858  0.048909  2.391017  0.067
O  O87  1  0.31422588  0.13740208  0.54826932  1  -0.846485  0.046815  2.059516  0.075  -0.787022  0.039913  2.376074  0.055  -0.82663  0.030659  2.351162  0.041  -0.385331  -0.753004  0.048912  2.390932  0.067
