# generated using pymatgen
data_CuH8C14N4Cl
_symmetry_space_group_name_H-M   'P 1'
_cell_length_a   3.69540049
_cell_length_b   12.04728683
_cell_length_c   12.80464666
_cell_angle_alpha   89.99954082
_cell_angle_beta   93.43505808
_cell_angle_gamma   89.99940461
_symmetry_Int_Tables_number   1
_chemical_formula_structural   CuH8C14N4Cl
_chemical_formula_sum   'Cu2 H16 C28 N8 Cl2'
_cell_volume   569.03291211
_cell_formula_units_Z   2
loop_
 _symmetry_equiv_pos_site_id
 _symmetry_equiv_pos_as_xyz
  1  'x, y, z'
loop_
 _atom_site_type_symbol
 _atom_site_label
 _atom_site_symmetry_multiplicity
 _atom_site_fract_x
 _atom_site_fract_y
 _atom_site_fract_z
 _atom_site_occupancy
 _atom_site_hle17_bader_spin_density
 _atom_site_hle17_ddec_charge
 _atom_site_hle17_ddec_spin_density
 _atom_site_hle17_ddec_sum_bond_order
 _atom_site_hle17_magmom
 _atom_site_hse06_10hf_bader_spin_density
 _atom_site_hse06_10hf_ddec_charge
 _atom_site_hse06_10hf_ddec_spin_density
 _atom_site_hse06_10hf_ddec_sum_bond_order
 _atom_site_hse06_10hf_magmom
 _atom_site_hse06_bader_spin_density
 _atom_site_hse06_ddec_charge
 _atom_site_hse06_ddec_spin_density
 _atom_site_hse06_ddec_sum_bond_order
 _atom_site_hse06_magmom
 _atom_site_pbe_bader_spin_density
 _atom_site_pbe_cm5_charge
 _atom_site_pbe_ddec_charge
 _atom_site_pbe_ddec_spin_density
 _atom_site_pbe_ddec_sum_bond_order
 _atom_site_pbe_magmom
Cu  Cu0  1  0.50000876  0.00327191  0.24999530  1  0  0.443846  0  2.005459  0  0  0.339302  0  2.515565  0  0  0.33026  0  2.47647  0  0  0.416921  0.348463  0  2.538883  0
Cu  Cu1  1  0.49999202  0.99673172  0.75000642  1  0  0.443859  0  2.005384  0  0  0.339318  0  2.515498  0  0  0.330246  0  2.476379  0  0  0.416973  0.348476  0  2.539058  0
H  H2  1  0.76073157  0.04713956  0.02145593  1  0  0.068624  0  0.9496  0  0  0.077488  0  1.018838  0  0  0.080971  0  1.014193  0  0  0.11145  0.074822  0  1.022434  0
H  H3  1  0.23928980  0.04713439  0.47853359  1  0  0.068642  0  0.949697  0  0  0.077483  0  1.018895  0  0  0.080966  0  1.014254  0  0  0.111439  0.074817  0  1.022492  0
H  H4  1  0.23928566  0.95285909  0.97854911  1  0  0.068622  0  0.949624  0  0  0.077439  0  1.018931  0  0  0.080922  0  1.014287  0  0  0.111404  0.074774  0  1.022538  0
H  H5  1  0.76070532  0.95286094  0.52146416  1  0  0.068703  0  0.949721  0  0  0.077508  0  1.018957  0  0  0.08099  0  1.014316  0  0  0.11144  0.074845  0  1.02256  0
H  H6  1  0.94386322  0.21467368  0.92658035  1  0  0.101851  0  0.990993  0  0  0.110158  0  1.055403  0  0  0.113656  0  1.054657  0  0  0.093821  0.107613  0  1.056197  0
H  H7  1  0.05614331  0.21466580  0.57341010  1  0  0.101788  0  0.990886  0  0  0.110138  0  1.05529  0  0  0.113633  0  1.054545  0  0  0.093791  0.107593  0  1.056072  0
H  H8  1  0.05615111  0.78532581  0.07342154  1  0  0.101798  0  0.991005  0  0  0.110128  0  1.055393  0  0  0.113628  0  1.054646  0  0  0.093782  0.107583  0  1.056191  0
H  H9  1  0.94384668  0.78532953  0.42659227  1  0  0.101842  0  0.99088  0  0  0.11018  0  1.055284  0  0  0.113676  0  1.054541  0  0  0.093796  0.107642  0  1.056063  0
H  H10  1  0.86860336  0.40373175  0.00985654  1  0  0.111794  0  0.947627  0  0  0.11282  0  1.025472  0  0  0.117469  0  1.019719  0  0  0.108662  0.109499  0  1.029527  0
H  H11  1  0.13140088  0.40373017  0.49013930  1  0  0.111788  0  0.947562  0  0  0.112913  0  1.025315  0  0  0.117581  0  1.019521  0  0  0.108692  0.109588  0  1.02938  0
H  H12  1  0.13139732  0.59627022  0.99014362  1  0  0.11178  0  0.947629  0  0  0.112839  0  1.025444  0  0  0.117508  0  1.019648  0  0  0.108681  0.109507  0  1.029547  0
H  H13  1  0.86859733  0.59626683  0.50986473  1  0  0.111736  0  0.947595  0  0  0.112835  0  1.02537  0  0  0.117501  0  1.019591  0  0  0.108654  0.109513  0  1.029444  0
H  H14  1  0.65059776  0.70523753  0.16577171  1  0  0.079317  0  0.966791  0  0  0.087503  0  1.03099  0  0  0.090441  0  1.029938  0  0  0.105434  0.085175  0  1.032142  0
H  H15  1  0.34939895  0.70523817  0.33422398  1  0  0.07928  0  0.966799  0  0  0.087497  0  1.030968  0  0  0.090436  0  1.02991  0  0  0.105424  0.085168  0  1.032122  0
H  H16  1  0.34941629  0.29475946  0.83422549  1  0  0.079295  0  0.966771  0  0  0.087509  0  1.030966  0  0  0.090445  0  1.029913  0  0  0.105416  0.08518  0  1.032116  0
H  H17  1  0.65060673  0.29476546  0.66576921  1  0  0.079255  0  0.966812  0  0  0.08746  0  1.030979  0  0  0.090403  0  1.029929  0  0  0.105391  0.08513  0  1.032132  0
C  C18  1  0.73639089  0.12896037  0.05677974  1  0  0.136308  0  3.699052  0  0  0.102189  0  3.961177  0  0  0.110719  0  3.97204  0  0  0.045937  0.096453  0  3.954323  0
C  C19  1  0.26363052  0.12895209  0.44321147  1  0  0.136038  0  3.699107  0  0  0.101933  0  3.96123  0  0  0.110462  0  3.972089  0  0  0.04582  0.096196  0  3.954383  0
C  C20  1  0.26360989  0.87104077  0.94322198  1  0  0.136347  0  3.699023  0  0  0.102202  0  3.961138  0  0  0.110735  0  3.971996  0  0  0.045977  0.096461  0  3.954351  0
C  C21  1  0.73636754  0.87104656  0.55679022  1  0  0.136034  0  3.699219  0  0  0.101954  0  3.961329  0  0  0.110486  0  3.972186  0  0  0.04584  0.096214  0  3.954543  0
C  C22  1  0.83906456  0.22429807  0.00381139  1  0  -0.115949  0  3.7292  0  0  -0.126761  0  3.978558  0  0  -0.133469  0  3.99912  0  0  -0.087145  -0.122684  0  3.964985  0
C  C23  1  0.16095646  0.22429633  0.49618218  1  0  -0.115731  0  3.728983  0  0  -0.126603  0  3.978365  0  0  -0.13331  0  3.998931  0  0  -0.087097  -0.122522  0  3.964798  0
C  C24  1  0.16094164  0.77570308  0.99619040  1  0  -0.115925  0  3.729182  0  0  -0.126723  0  3.978532  0  0  -0.133437  0  3.999097  0  0  -0.087143  -0.122645  0  3.965009  0
C  C25  1  0.83903885  0.77569983  0.50381869  1  0  -0.115908  0  3.729129  0  0  -0.126766  0  3.978502  0  0  -0.133474  0  3.999064  0  0  -0.087132  -0.122689  0  3.964995  0
C  C26  1  0.79570980  0.32763159  0.04938094  1  0  -0.026342  0  3.658318  0  0  -0.055556  0  3.915408  0  0  -0.050661  0  3.930554  0  0  -0.06516  -0.0583  0  3.904649  0
C  C27  1  0.20431047  0.32762511  0.45061337  1  0  -0.026518  0  3.658491  0  0  -0.05584  0  3.915622  0  0  -0.050953  0  3.930782  0  0  -0.065276  -0.058584  0  3.904861  0
C  C28  1  0.20428812  0.67237204  0.95061841  1  0  -0.02632  0  3.658144  0  0  -0.055588  0  3.915261  0  0  -0.050699  0  3.930424  0  0  -0.065161  -0.058338  0  3.90455  0
C  C29  1  0.79567685  0.67237521  0.54938975  1  0  -0.026353  0  3.6586  0  0  -0.055641  0  3.91571  0  0  -0.050755  0  3.930854  0  0  -0.065175  -0.058391  0  3.905007  0
C  C30  1  0.56671532  0.23220240  0.19800306  1  0  0.133673  0  3.747201  0  0  0.125999  0  3.986152  0  0  0.130677  0  4.005453  0  0  0.109502  0.122932  0  3.973235  0
C  C31  1  0.43331375  0.23220053  0.30199368  1  0  0.133682  0  3.747193  0  0  0.125894  0  3.986218  0  0  0.130575  0  4.005516  0  0  0.109375  0.12283  0  3.973302  0
C  C32  1  0.43328284  0.76779708  0.80200019  1  0  0.133712  0  3.747168  0  0  0.126027  0  3.986096  0  0  0.130703  0  4.005398  0  0  0.109472  0.122964  0  3.97323  0
C  C33  1  0.56668151  0.76780061  0.69800641  1  0  0.133707  0  3.747122  0  0  0.125927  0  3.986155  0  0  0.13061  0  4.005454  0  0  0.109417  0.122859  0  3.973295  0
C  C34  1  0.65130834  0.33289568  0.14849031  1  0  -0.041581  0  3.763368  0  0  -0.03078  0  3.997319  0  0  -0.036209  0  4.022032  0  0  -0.001742  -0.027279  0  3.98062  0
C  C35  1  0.34872545  0.33289700  0.35150646  1  0  -0.041402  0  3.763386  0  0  -0.030592  0  3.997348  0  0  -0.036023  0  4.022075  0  0  -0.001645  -0.027094  0  3.980648  0
C  C36  1  0.34868945  0.66710547  0.85150668  1  0  -0.041572  0  3.763345  0  0  -0.030782  0  3.997305  0  0  -0.036214  0  4.022027  0  0  -0.001714  -0.02728  0  3.980653  0
C  C37  1  0.65127271  0.66710331  0.64849679  1  0  -0.041435  0  3.763581  0  0  -0.030634  0  3.997588  0  0  -0.036064  0  4.022316  0  0  -0.001682  -0.027135  0  3.980941  0
C  C38  1  0.57940831  0.43708252  0.20078209  1  0  0.124334  0  3.765085  0  0  0.120471  0  4.012196  0  0  0.123148  0  4.033444  0  0  0.119413  0.118484  0  3.998136  0
C  C39  1  0.42061361  0.43708155  0.29921136  1  0  0.124301  0  3.764977  0  0  0.120539  0  4.011984  0  0  0.123213  0  4.03324  0  0  0.119478  0.118555  0  3.997921  0
C  C40  1  0.42059233  0.56291696  0.79921728  1  0  0.124332  0  3.765059  0  0  0.12055  0  4.012097  0  0  0.123227  0  4.033346  0  0  0.119409  0.118563  0  3.998041  0
C  C41  1  0.57938156  0.56291959  0.70078717  1  0  0.124289  0  3.765024  0  0  0.120457  0  4.012112  0  0  0.123132  0  4.033366  0  0  0.119475  0.118473  0  3.998055  0
C  C42  1  0.58275857  0.62656003  0.20196060  1  0  0.083183  0  3.703033  0  0  0.057866  0  3.962618  0  0  0.061037  0  3.97779  0  0  0.051693  0.055494  0  3.95304  0
C  C43  1  0.41724356  0.62655493  0.29803578  1  0  0.083068  0  3.7033  0  0  0.057727  0  3.962889  0  0  0.060902  0  3.978054  0  0  0.051606  0.055355  0  3.953316  0
C  C44  1  0.41724454  0.37344028  0.79803490  1  0  0.08313  0  3.702951  0  0  0.057755  0  3.962567  0  0  0.060934  0  3.977727  0  0  0.051576  0.055389  0  3.952978  0
C  C45  1  0.58275414  0.37344455  0.70195965  1  0  0.083199  0  3.703203  0  0  0.057893  0  3.962773  0  0  0.061058  0  3.977949  0  0  0.05177  0.055521  0  3.953188  0
N  N46  1  0.60277606  0.13144707  0.15166811  1  0  -0.312733  0  3.328151  0  0  -0.253879  0  3.628367  0  0  -0.258922  0  3.631862  0  0  -0.352482  -0.250964  0  3.625557  0
N  N47  1  0.39725082  0.13144660  0.34832550  1  0  -0.312506  0  3.328165  0  0  -0.253543  0  3.628217  0  0  -0.258584  0  3.631713  0  0  -0.352279  -0.250624  0  3.625402  0
N  N48  1  0.39723285  0.86855408  0.84833371  1  0  -0.312815  0  3.328053  0  0  -0.253894  0  3.628222  0  0  -0.258929  0  3.631701  0  0  -0.352472  -0.250983  0  3.62553  0
N  N49  1  0.60273907  0.86855372  0.65167531  1  0  -0.312467  0  3.328144  0  0  -0.253534  0  3.628243  0  0  -0.258574  0  3.631728  0  0  -0.352302  -0.250618  0  3.625545  0
N  N50  1  0.66206241  0.53320796  0.15307949  1  0  -0.285938  0  3.045736  0  0  -0.253604  0  3.31295  0  0  -0.262493  0  3.328673  0  0  -0.295508  -0.247587  0  3.30249  0
N  N51  1  0.33795644  0.53321268  0.34691706  1  0  -0.285926  0  3.045702  0  0  -0.253646  0  3.312963  0  0  -0.262533  0  3.328686  0  0  -0.295497  -0.247631  0  3.302505  0
N  N52  1  0.33794364  0.46678820  0.84691995  1  0  -0.285972  0  3.045602  0  0  -0.253661  0  3.312839  0  0  -0.262548  0  3.328558  0  0  -0.295486  -0.247645  0  3.302375  0
N  N53  1  0.66204406  0.46679095  0.65307997  1  0  -0.285954  0  3.045735  0  0  -0.253647  0  3.312963  0  0  -0.262537  0  3.328692  0  0  -0.295552  -0.247633  0  3.302502  0
Cl  Cl54  1  0.00001302  0.89091741  0.24999956  1  0  -0.556899  0  1.367751  0  0  -0.487109  0  1.765014  0  0  -0.502984  0  1.733083  0  0  -0.304632  -0.475741  0  1.785923  0
Cl  Cl55  1  0.99998490  0.10908622  0.74999978  1  0  -0.556912  0  1.36776  0  0  -0.487118  0  1.765028  0  0  -0.502976  0  1.733071  0  0  -0.304648  -0.47576  0  1.786095  0
