# generated using pymatgen
data_AgH9C5SNO3
_symmetry_space_group_name_H-M   'P 1'
_cell_length_a   4.71743113
_cell_length_b   11.44978661
_cell_length_c   15.81666583
_cell_angle_alpha   95.94921190
_cell_angle_beta   90.00055466
_cell_angle_gamma   89.99906995
_symmetry_Int_Tables_number   1
_chemical_formula_structural   AgH9C5SNO3
_chemical_formula_sum   'Ag4 H36 C20 S4 N4 O12'
_cell_volume   849.71354013
_cell_formula_units_Z   4
loop_
 _symmetry_equiv_pos_site_id
 _symmetry_equiv_pos_as_xyz
  1  'x, y, z'
loop_
 _atom_site_type_symbol
 _atom_site_label
 _atom_site_symmetry_multiplicity
 _atom_site_fract_x
 _atom_site_fract_y
 _atom_site_fract_z
 _atom_site_occupancy
 _atom_site_hle17_bader_spin_density
 _atom_site_hle17_ddec_charge
 _atom_site_hle17_ddec_spin_density
 _atom_site_hle17_ddec_sum_bond_order
 _atom_site_hle17_magmom
 _atom_site_hse06_10hf_bader_spin_density
 _atom_site_hse06_10hf_ddec_charge
 _atom_site_hse06_10hf_ddec_spin_density
 _atom_site_hse06_10hf_ddec_sum_bond_order
 _atom_site_hse06_10hf_magmom
 _atom_site_hse06_bader_spin_density
 _atom_site_hse06_ddec_charge
 _atom_site_hse06_ddec_spin_density
 _atom_site_hse06_ddec_sum_bond_order
 _atom_site_hse06_magmom
 _atom_site_pbe_bader_spin_density
 _atom_site_pbe_cm5_charge
 _atom_site_pbe_ddec_charge
 _atom_site_pbe_ddec_spin_density
 _atom_site_pbe_ddec_sum_bond_order
 _atom_site_pbe_magmom
Ag  Ag0  1  0.53407789  0.28365332  0.14812228  1  0  0.654737  0  1.292903  0  0  0.538923  0  1.71437  0  0  0.566241  0  1.665395  0  0  0.478735  0.519858  0  1.748472  0
Ag  Ag1  1  0.03410061  0.21633636  0.35186952  1  0  0.654708  0  1.293188  0  0  0.538945  0  1.714656  0  0  0.566254  0  1.665679  0  0  0.478745  0.519888  0  1.748753  0
Ag  Ag2  1  0.46595703  0.71632671  0.85187381  1  0  0.6547  0  1.292796  0  0  0.53889  0  1.714244  0  0  0.56621  0  1.665275  0  0  0.478726  0.519824  0  1.748345  0
Ag  Ag3  1  0.96593643  0.78367697  0.64812497  1  0  0.654685  0  1.293085  0  0  0.538911  0  1.714561  0  0  0.566226  0  1.665589  0  0  0.478767  0.519847  0  1.74866  0
H  H4  1  0.18003557  0.25522335  0.89840472  1  0  0.131969  0  0.933745  0  0  0.155988  0  0.983844  0  0  0.157628  0  0.983606  0  0  0.101851  0.154686  0  0.984136  0
H  H5  1  0.68011883  0.24478699  0.60160467  1  0  0.131927  0  0.933631  0  0  0.155824  0  0.983889  0  0  0.157467  0  0.983649  0  0  0.101751  0.154529  0  0.984181  0
H  H6  1  0.81987216  0.74476401  0.10160956  1  0  0.131958  0  0.933542  0  0  0.155894  0  0.983749  0  0  0.157534  0  0.983508  0  0  0.101831  0.154604  0  0.984034  0
H  H7  1  0.31991397  0.75522557  0.39839609  1  0  0.13189  0  0.93368  0  0  0.155889  0  0.983826  0  0  0.15753  0  0.983587  0  0  0.101776  0.154591  0  0.984118  0
H  H8  1  0.03628578  0.27184233  0.00325486  1  0  0.13359  0  0.955521  0  0  0.148124  0  1.028891  0  0  0.149859  0  1.027842  0  0  0.098462  0.14674  0  1.029744  0
H  H9  1  0.53632309  0.22817662  0.49675658  1  0  0.133356  0  0.955584  0  0  0.1479  0  1.028996  0  0  0.149643  0  1.02794  0  0  0.0983  0.14651  0  1.029851  0
H  H10  1  0.96365374  0.72815574  0.99676961  1  0  0.133445  0  0.955493  0  0  0.147941  0  1.02895  0  0  0.149677  0  1.027895  0  0  0.098414  0.146558  0  1.029806  0
H  H11  1  0.46368215  0.77185005  0.50324891  1  0  0.133364  0  0.955624  0  0  0.147948  0  1.028952  0  0  0.149683  0  1.027906  0  0  0.098348  0.146561  0  1.029803  0
H  H12  1  0.37456535  0.20852643  0.98563863  1  0  0.124015  0  0.953065  0  0  0.145535  0  1.015968  0  0  0.14717  0  1.014716  0  0  0.098394  0.144152  0  1.017056  0
H  H13  1  0.87462705  0.29147373  0.51436305  1  0  0.124027  0  0.953104  0  0  0.145531  0  1.01597  0  0  0.147164  0  1.014725  0  0  0.098375  0.144147  0  1.017062  0
H  H14  1  0.62537417  0.79146618  0.01437472  1  0  0.124041  0  0.953198  0  0  0.145512  0  1.016091  0  0  0.147142  0  1.01485  0  0  0.09836  0.144129  0  1.01718  0
H  H15  1  0.12538667  0.70853441  0.48563616  1  0  0.124112  0  0.953192  0  0  0.145564  0  1.016128  0  0  0.147198  0  1.014882  0  0  0.09838  0.144179  0  1.017217  0
H  H16  1  0.06835452  0.57657295  0.12880435  1  0  0.123075  0  0.938747  0  0  0.146599  0  0.992074  0  0  0.147321  0  0.993498  0  0  0.096323  0.146039  0  0.991092  0
H  H17  1  0.56836757  0.92341547  0.37119102  1  0  0.123105  0  0.93878  0  0  0.146571  0  0.992165  0  0  0.147295  0  0.993589  0  0  0.096291  0.146012  0  0.991182  0
H  H18  1  0.93161681  0.42340454  0.87119726  1  0  0.123056  0  0.938804  0  0  0.146513  0  0.992207  0  0  0.147234  0  0.993637  0  0  0.096257  0.145956  0  0.99122  0
H  H19  1  0.43163767  0.07660238  0.62881135  1  0  0.123035  0  0.93853  0  0  0.14649  0  0.991961  0  0  0.147215  0  0.993378  0  0  0.096231  0.145931  0  0.990979  0
H  H20  1  0.93628549  0.44333889  0.16260480  1  0  0.124808  0  0.964937  0  0  0.137041  0  1.045145  0  0  0.140509  0  1.040697  0  0  0.094126  0.134337  0  1.048538  0
H  H21  1  0.43628418  0.05666928  0.33739188  1  0  0.124815  0  0.964856  0  0  0.137032  0  1.045069  0  0  0.140504  0  1.040618  0  0  0.094091  0.134315  0  1.048495  0
H  H22  1  0.06368159  0.55665701  0.83739612  1  0  0.124898  0  0.96471  0  0  0.137124  0  1.044925  0  0  0.140595  0  1.040472  0  0  0.094193  0.134417  0  1.048323  0
H  H23  1  0.56371470  0.94335660  0.66261861  1  0  0.125019  0  0.964613  0  0  0.137225  0  1.044822  0  0  0.140693  0  1.040372  0  0  0.094214  0.134517  0  1.048219  0
H  H24  1  0.77089263  0.57771609  0.19791973  1  0  0.137158  0  0.92937  0  0  0.160358  0  0.98309  0  0  0.161616  0  0.982977  0  0  0.103926  0.159271  0  0.98336  0
H  H25  1  0.27086769  0.92227713  0.30207463  1  0  0.137085  0  0.929607  0  0  0.160341  0  0.983238  0  0  0.161602  0  0.983124  0  0  0.103921  0.159252  0  0.98351  0
H  H26  1  0.22911049  0.42227452  0.80207958  1  0  0.137039  0  0.929355  0  0  0.160311  0  0.983016  0  0  0.161579  0  0.982891  0  0  0.10392  0.159221  0  0.983289  0
H  H27  1  0.72915238  0.07774502  0.69792234  1  0  0.137083  0  0.929475  0  0  0.160331  0  0.983152  0  0  0.161598  0  0.983028  0  0  0.1039  0.159236  0  0.983427  0
H  H28  1  0.15370701  0.91230135  0.06082141  1  0  0.164173  0  0.952526  0  0  0.184108  0  1.00477  0  0  0.186412  0  1.004837  0  0  0.104444  0.182469  0  1.004747  0
H  H29  1  0.65372451  0.58767168  0.43917825  1  0  0.16417  0  0.952677  0  0  0.184139  0  1.004875  0  0  0.186441  0  1.004949  0  0  0.104411  0.182497  0  1.004856  0
H  H30  1  0.84630883  0.08768225  0.93917807  1  0  0.164178  0  0.952575  0  0  0.184142  0  1.004817  0  0  0.186444  0  1.004887  0  0  0.104419  0.182502  0  1.004799  0
H  H31  1  0.34625105  0.41234423  0.56081325  1  0  0.164258  0  0.952586  0  0  0.184216  0  1.004788  0  0  0.186518  0  1.004859  0  0  0.104434  0.182578  0  1.004761  0
H  H32  1  0.40353674  0.93615608  0.14898401  1  0  0.165554  0  0.937991  0  0  0.183652  0  0.991458  0  0  0.186607  0  0.990449  0  0  0.106463  0.181565  0  0.992171  0
H  H33  1  0.90354383  0.56383540  0.35101062  1  0  0.165576  0  0.937954  0  0  0.18369  0  0.991419  0  0  0.186648  0  0.990405  0  0  0.106387  0.181601  0  0.992138  0
H  H34  1  0.59650242  0.06383536  0.85101219  1  0  0.165543  0  0.937917  0  0  0.183694  0  0.991352  0  0  0.186651  0  0.990338  0  0  0.106434  0.181605  0  0.992073  0
H  H35  1  0.09646777  0.43617698  0.64897939  1  0  0.165556  0  0.937955  0  0  0.183651  0  0.991432  0  0  0.186608  0  0.99042  0  0  0.106419  0.181564  0  0.992154  0
H  H36  1  0.41045271  0.02853774  0.06532016  1  0  0.159681  0  0.960415  0  0  0.174957  0  1.022227  0  0  0.178071  0  1.020659  0  0  0.102764  0.17267  0  1.023482  0
H  H37  1  0.91047869  0.47143897  0.43467311  1  0  0.159789  0  0.960174  0  0  0.175074  0  1.022028  0  0  0.178161  0  1.02049  0  0  0.102777  0.172788  0  1.023277  0
H  H38  1  0.58956313  0.97145101  0.93467271  1  0  0.159732  0  0.960313  0  0  0.175028  0  1.022146  0  0  0.178121  0  1.020601  0  0  0.102797  0.172745  0  1.023394  0
H  H39  1  0.08952231  0.52857710  0.56532788  1  0  0.159706  0  0.960334  0  0  0.174995  0  1.022159  0  0  0.178108  0  1.020586  0  0  0.102759  0.172715  0  1.023397  0
C  C40  1  0.36914568  0.39410804  0.98306748  1  0  0.215622  0  3.697995  0  0  0.217256  0  3.94788  0  0  0.221304  0  3.969472  0  0  0.120191  0.214066  0  3.933599  0
C  C41  1  0.86918276  0.10589302  0.51693362  1  0  0.215404  0  3.698094  0  0  0.21714  0  3.947813  0  0  0.221189  0  3.969405  0  0  0.120152  0.213946  0  3.93353  0
C  C42  1  0.63081717  0.60589322  0.01693886  1  0  0.215323  0  3.698002  0  0  0.217097  0  3.94774  0  0  0.221155  0  3.969323  0  0  0.120154  0.213901  0  3.933464  0
C  C43  1  0.13080976  0.89410632  0.48306374  1  0  0.215274  0  3.697549  0  0  0.217158  0  3.947213  0  0  0.221215  0  3.968801  0  0  0.120153  0.213963  0  3.932927  0
C  C44  1  0.67848340  0.51481753  0.06856120  1  0  0.219606  0  3.694826  0  0  0.219597  0  3.946742  0  0  0.22395  0  3.968423  0  0  0.1221  0.216285  0  3.932322  0
C  C45  1  0.17842208  0.98517442  0.43142586  1  0  0.21951  0  3.694904  0  0  0.219496  0  3.946806  0  0  0.223847  0  3.968495  0  0  0.122101  0.216185  0  3.932373  0
C  C46  1  0.32151336  0.48515899  0.93143465  1  0  0.219571  0  3.695095  0  0  0.219629  0  3.947055  0  0  0.223982  0  3.968748  0  0  0.122056  0.216314  0  3.932635  0
C  C47  1  0.82153017  0.01484763  0.56856541  1  0  0.219505  0  3.695291  0  0  0.219555  0  3.947208  0  0  0.223905  0  3.968898  0  0  0.121995  0.21624  0  3.93278  0
C  C48  1  0.23203701  0.27646160  0.96579532  1  0  -0.376507  0  3.710537  0  0  -0.458167  0  3.947049  0  0  -0.461016  0  3.95521  0  0  -0.240483  -0.455754  0  3.941646  0
C  C49  1  0.73208499  0.22354836  0.53421166  1  0  -0.376178  0  3.710484  0  0  -0.457753  0  3.946967  0  0  -0.460606  0  3.955136  0  0  -0.240254  -0.455345  0  3.941564  0
C  C50  1  0.76790888  0.72354595  0.03422028  1  0  -0.37618  0  3.710418  0  0  -0.457706  0  3.94695  0  0  -0.460547  0  3.955107  0  0  -0.240363  -0.45531  0  3.941555  0
C  C51  1  0.26793933  0.77645105  0.46578887  1  0  -0.376111  0  3.710538  0  0  -0.457794  0  3.947  0  0  -0.460645  0  3.955158  0  0  -0.240264  -0.455383  0  3.941594  0
C  C52  1  0.87528636  0.52892835  0.14290047  1  0  -0.367746  0  3.713412  0  0  -0.450767  0  3.953723  0  0  -0.453997  0  3.962762  0  0  -0.240208  -0.44808  0  3.947573  0
C  C53  1  0.37530373  0.97106411  0.35708972  1  0  -0.367663  0  3.713269  0  0  -0.450655  0  3.953497  0  0  -0.453875  0  3.96251  0  0  -0.240133  -0.447975  0  3.947346  0
C  C54  1  0.12470617  0.47106061  0.85710442  1  0  -0.367675  0  3.713442  0  0  -0.450697  0  3.953722  0  0  -0.453913  0  3.962718  0  0  -0.240144  -0.448006  0  3.947579  0
C  C55  1  0.62474815  0.02894735  0.64289833  1  0  -0.367885  0  3.713425  0  0  -0.450839  0  3.953618  0  0  -0.454072  0  3.962664  0  0  -0.240155  -0.448146  0  3.947478  0
C  C56  1  0.27309346  0.97654772  0.10267740  1  0  -0.50362  0  3.571494  0  0  -0.575544  0  3.805799  0  0  -0.583045  0  3.807497  0  0  -0.242528  -0.570185  0  3.804576  0
C  C57  1  0.77310360  0.52343314  0.39731363  1  0  -0.50385  0  3.571382  0  0  -0.575917  0  3.805857  0  0  -0.583396  0  3.807569  0  0  -0.242501  -0.570562  0  3.804646  0
C  C58  1  0.72693722  0.02344282  0.89731812  1  0  -0.503742  0  3.571425  0  0  -0.575833  0  3.80587  0  0  -0.583319  0  3.807583  0  0  -0.242534  -0.570477  0  3.804657  0
C  C59  1  0.22687832  0.47657576  0.60267867  1  0  -0.503815  0  3.571422  0  0  -0.575844  0  3.805945  0  0  -0.583339  0  3.80763  0  0  -0.242515  -0.570489  0  3.804731  0
S  S60  1  0.02775783  0.07214565  0.15948671  1  0  1.378626  0  5.580299  0  0  1.293639  0  6.08632  0  0  1.339943  0  6.067077  0  0  0.492358  1.261582  0  6.098411  0
S  S61  1  0.52775912  0.42784051  0.34050167  1  0  1.379021  0  5.579935  0  0  1.293919  0  6.086047  0  0  1.340226  0  6.066793  0  0  0.492507  1.261867  0  6.098146  0
S  S62  1  0.97226013  0.92784241  0.84051686  1  0  1.379047  0  5.580475  0  0  1.294003  0  6.086547  0  0  1.340312  0  6.067291  0  0  0.492582  1.261947  0  6.09865  0
S  S63  1  0.47223764  0.57215431  0.65948780  1  0  1.379024  0  5.580437  0  0  1.293957  0  6.086491  0  0  1.340262  0  6.067236  0  0  0.492457  1.261905  0  6.098598  0
N  N64  1  0.54335435  0.41121315  0.05092245  1  0  -0.367787  0  3.264615  0  0  -0.302598  0  3.544725  0  0  -0.31786  0  3.559312  0  0  -0.32427  -0.292087  0  3.534909  0
N  N65  1  0.04337662  0.08879495  0.44907249  1  0  -0.367601  0  3.264734  0  0  -0.302484  0  3.544857  0  0  -0.317743  0  3.559445  0  0  -0.324183  -0.291973  0  3.535032  0
N  N66  1  0.45661273  0.58877669  0.94908314  1  0  -0.36761  0  3.26439  0  0  -0.302526  0  3.544481  0  0  -0.317796  0  3.559076  0  0  -0.324122  -0.29201  0  3.534661  0
N  N67  1  0.95660107  0.91121670  0.55092632  1  0  -0.367467  0  3.264018  0  0  -0.302462  0  3.54415  0  0  -0.317722  0  3.558735  0  0  -0.324185  -0.291952  0  3.53433  0
O  O68  1  0.85525278  0.12285362  0.09430364  1  0  -0.714368  0  2.02346  0  0  -0.647705  0  2.298821  0  0  -0.671975  0  2.283351  0  0  -0.354894  -0.630529  0  2.308908  0
O  O69  1  0.35525624  0.37713225  0.40569134  1  0  -0.71438  0  2.02302  0  0  -0.647745  0  2.298453  0  0  -0.672015  0  2.282975  0  0  -0.354873  -0.630569  0  2.308534  0
O  O70  1  0.14475670  0.87713172  0.90569532  1  0  -0.714419  0  2.023704  0  0  -0.647777  0  2.299106  0  0  -0.672053  0  2.283634  0  0  -0.354916  -0.630602  0  2.309191  0
O  O71  1  0.64476384  0.62287062  0.59430688  1  0  -0.714444  0  2.02308  0  0  -0.647805  0  2.298478  0  0  -0.672086  0  2.283017  0  0  -0.3549  -0.63063  0  2.308559  0
O  O72  1  0.20347748  0.16509177  0.20884350  1  0  -0.728587  0  2.120659  0  0  -0.649268  0  2.431474  0  0  -0.675006  0  2.40955  0  0  -0.367333  -0.631066  0  2.446065  0
O  O73  1  0.70349770  0.33488635  0.29115307  1  0  -0.728749  0  2.120613  0  0  -0.649323  0  2.431359  0  0  -0.675064  0  2.409439  0  0  -0.36728  -0.631123  0  2.44595  0
O  O74  1  0.79656168  0.83489797  0.79115639  1  0  -0.728658  0  2.120494  0  0  -0.649303  0  2.431288  0  0  -0.675037  0  2.409356  0  0  -0.367315  -0.631104  0  2.445885  0
O  O75  1  0.29654994  0.66511032  0.70884158  1  0  -0.72867  0  2.12058  0  0  -0.649271  0  2.431334  0  0  -0.675005  0  2.409407  0  0  -0.36727  -0.631074  0  2.445929  0
O  O76  1  0.86768117  0.00340693  0.21601544  1  0  -0.673923  0  1.890208  0  0  -0.621763  0  2.1283  0  0  -0.64378  0  2.116084  0  0  -0.350467  -0.60605  0  2.136035  0
O  O77  1  0.36768884  0.49657283  0.28398613  1  0  -0.674128  0  1.890759  0  0  -0.621768  0  2.128739  0  0  -0.643773  0  2.116499  0  0  -0.350573  -0.606045  0  2.13645  0
O  O78  1  0.13235587  0.99656706  0.78398657  1  0  -0.674232  0  1.890401  0  0  -0.621912  0  2.12838  0  0  -0.643927  0  2.116152  0  0  -0.350676  -0.606182  0  2.136084  0
O  O79  1  0.63230368  0.50342903  0.71600444  1  0  -0.674153  0  1.890986  0  0  -0.621821  0  2.128952  0  0  -0.643856  0  2.116757  0  0  -0.350581  -0.606097  0  2.136664  0
