# generated using pymatgen
data_Zn3H18C28S4(N2O)6
_symmetry_space_group_name_H-M   'P 1'
_cell_length_a   8.94040421
_cell_length_b   12.76265325
_cell_length_c   17.39046270
_cell_angle_alpha   111.99778782
_cell_angle_beta   89.98489005
_cell_angle_gamma   110.49192879
_symmetry_Int_Tables_number   1
_chemical_formula_structural   Zn3H18C28S4(N2O)6
_chemical_formula_sum   'Zn6 H36 C56 S8 N24 O12'
_cell_volume   1703.74955703
_cell_formula_units_Z   2
loop_
 _symmetry_equiv_pos_site_id
 _symmetry_equiv_pos_as_xyz
  1  'x, y, z'
loop_
 _atom_site_type_symbol
 _atom_site_label
 _atom_site_symmetry_multiplicity
 _atom_site_fract_x
 _atom_site_fract_y
 _atom_site_fract_z
 _atom_site_occupancy
 _atom_site_hle17_bader_spin_density
 _atom_site_hle17_ddec_charge
 _atom_site_hle17_ddec_spin_density
 _atom_site_hle17_ddec_sum_bond_order
 _atom_site_hle17_magmom
 _atom_site_hse06_10hf_bader_spin_density
 _atom_site_hse06_10hf_ddec_charge
 _atom_site_hse06_10hf_ddec_spin_density
 _atom_site_hse06_10hf_ddec_sum_bond_order
 _atom_site_hse06_10hf_magmom
 _atom_site_hse06_bader_spin_density
 _atom_site_hse06_ddec_charge
 _atom_site_hse06_ddec_spin_density
 _atom_site_hse06_ddec_sum_bond_order
 _atom_site_hse06_magmom
 _atom_site_pbe_bader_spin_density
 _atom_site_pbe_cm5_charge
 _atom_site_pbe_ddec_charge
 _atom_site_pbe_ddec_spin_density
 _atom_site_pbe_ddec_sum_bond_order
 _atom_site_pbe_magmom
Zn  Zn0  1  0.16577492  0.99996704  0.74998871  1  0  1.064848  0  1.891899  0  0  0.884684  0  2.373241  0  0  0.926755  0  2.317454  0  0  0.687834  0.855343  0  2.411737  0
Zn  Zn1  1  0.83422347  0.00003123  0.25001178  1  0  1.064858  0  1.891873  0  0  0.884702  0  2.373224  0  0  0.926771  0  2.317435  0  0  0.687834  0.855359  0  2.411698  0
Zn  Zn2  1  0.96212005  0.75672848  0.58424784  1  0  0.888827  0  2.052594  0  0  0.711458  0  2.530547  0  0  0.75086  0  2.485365  0  0  0.627814  0.68411  0  2.561507  0
Zn  Zn3  1  0.20555171  0.24319755  0.91585659  1  0  0.888967  0  2.053757  0  0  0.711357  0  2.53192  0  0  0.750754  0  2.486737  0  0  0.628043  0.684011  0  2.562903  0
Zn  Zn4  1  0.03787881  0.24327073  0.41575463  1  0  0.888863  0  2.05253  0  0  0.711486  0  2.530471  0  0  0.750885  0  2.485295  0  0  0.627836  0.684139  0  2.561426  0
Zn  Zn5  1  0.79444646  0.75680252  0.08414265  1  0  0.88899  0  2.053741  0  0  0.711372  0  2.531911  0  0  0.750765  0  2.486736  0  0  0.628033  0.684026  0  2.56287  0
H  H6  1  0.96480371  0.03851479  0.84074482  1  0  0.401553  0  0.897018  0  0  0.366919  0  0.974297  0  0  0.376611  0  0.960185  0  0  0.280781  0.359943  0  0.984452  0
H  H7  1  0.92613089  0.96157286  0.65947485  1  0  0.40126  0  0.896944  0  0  0.36638  0  0.975229  0  0  0.376083  0  0.961114  0  0  0.280112  0.359395  0  0.985382  0
H  H8  1  0.03519493  0.96148621  0.15925641  1  0  0.401575  0  0.896992  0  0  0.366944  0  0.974263  0  0  0.376639  0  0.960147  0  0  0.280794  0.35997  0  0.984414  0
H  H9  1  0.07386886  0.03842813  0.34052522  1  0  0.401283  0  0.896913  0  0  0.366407  0  0.975191  0  0  0.376111  0  0.961074  0  0  0.28012  0.359421  0  0.985346  0
H  H10  1  0.55509978  0.27157475  0.41133043  1  0  0.110021  0  0.949941  0  0  0.120703  0  1.010338  0  0  0.123653  0  1.010167  0  0  0.105762  0.118576  0  1.010641  0
H  H11  1  0.28356589  0.72794939  0.08866903  1  0  0.110459  0  0.949884  0  0  0.121297  0  1.009996  0  0  0.12417  0  1.009919  0  0  0.105871  0.119219  0  1.010237  0
H  H12  1  0.44489281  0.72842535  0.58867055  1  0  0.110043  0  0.949878  0  0  0.120699  0  1.010314  0  0  0.123647  0  1.010144  0  0  0.105763  0.11857  0  1.010614  0
H  H13  1  0.71644458  0.27205068  0.91133022  1  0  0.110489  0  0.949912  0  0  0.121313  0  1.010032  0  0  0.124186  0  1.009954  0  0  0.105848  0.119221  0  1.010281  0
H  H14  1  0.36094169  0.06797009  0.31426090  1  0  0.07129  0  0.968709  0  0  0.074759  0  1.042296  0  0  0.078185  0  1.038517  0  0  0.108541  0.072253  0  1.045094  0
H  H15  1  0.29301093  0.93172195  0.18561402  1  0  0.070959  0  0.968517  0  0  0.074626  0  1.042026  0  0  0.07801  0  1.038285  0  0  0.108411  0.072175  0  1.044768  0
H  H16  1  0.63905070  0.93203184  0.68574115  1  0  0.071281  0  0.968761  0  0  0.074765  0  1.04231  0  0  0.078191  0  1.038534  0  0  0.108543  0.072262  0  1.045113  0
H  H17  1  0.70699440  0.06827901  0.81438432  1  0  0.070999  0  0.968535  0  0  0.07467  0  1.042034  0  0  0.078053  0  1.038293  0  0  0.108433  0.072222  0  1.044784  0
H  H18  1  0.18845452  0.21636764  0.17607534  1  0  0.069085  0  0.963637  0  0  0.073896  0  1.034235  0  0  0.076612  0  1.03315  0  0  0.097302  0.071827  0  1.035147  0
H  H19  1  0.97230020  0.78383818  0.32408292  1  0  0.07054  0  0.96272  0  0  0.07473  0  1.03365  0  0  0.07751  0  1.032501  0  0  0.097818  0.072656  0  1.034586  0
H  H20  1  0.81154680  0.78363424  0.82392382  1  0  0.06907  0  0.963657  0  0  0.073871  0  1.034276  0  0  0.076593  0  1.033175  0  0  0.09729  0.071799  0  1.035193  0
H  H21  1  0.02770242  0.21616185  0.67591402  1  0  0.070549  0  0.962761  0  0  0.074756  0  1.033672  0  0  0.077535  0  1.032521  0  0  0.097825  0.072682  0  1.03461  0
H  H22  1  0.37973431  0.42676322  0.26556414  1  0  0.118044  0  0.937435  0  0  0.126492  0  0.996827  0  0  0.130965  0  0.993905  0  0  0.108362  0.123267  0  0.99909  0
H  H23  1  0.95340023  0.57333872  0.23481145  1  0  0.118359  0  0.936633  0  0  0.126315  0  0.996593  0  0  0.130877  0  0.993567  0  0  0.10836  0.123027  0  0.998908  0
H  H24  1  0.62026478  0.57323868  0.73443617  1  0  0.118064  0  0.937437  0  0  0.126509  0  0.996827  0  0  0.13098  0  0.993908  0  0  0.108377  0.12328  0  0.999092  0
H  H25  1  0.04660577  0.42666133  0.76518722  1  0  0.118466  0  0.936582  0  0  0.126401  0  0.996553  0  0  0.13097  0  0.993517  0  0  0.108383  0.123115  0  0.998863  0
H  H26  1  0.62705252  0.98142463  0.93422328  1  0  0.119381  0  0.940181  0  0  0.126491  0  1.004626  0  0  0.130024  0  1.003314  0  0  0.111068  0.123964  0  1.005695  0
H  H27  1  0.64615612  0.01838767  0.56557424  1  0  0.119618  0  0.93929  0  0  0.126496  0  1.004238  0  0  0.130027  0  1.002918  0  0  0.110719  0.123965  0  1.005312  0
H  H28  1  0.37294966  0.01857450  0.06577456  1  0  0.119368  0  0.940201  0  0  0.126465  0  1.004669  0  0  0.129997  0  1.003358  0  0  0.111062  0.123937  0  1.005734  0
H  H29  1  0.35384363  0.98161333  0.43442641  1  0  0.119622  0  0.93928  0  0  0.126495  0  1.004227  0  0  0.130024  0  1.002909  0  0  0.110722  0.123967  0  1.005297  0
H  H30  1  0.78984626  0.95212101  0.03656331  1  0  0.098657  0  0.966951  0  0  0.107839  0  1.029519  0  0  0.111163  0  1.025927  0  0  0.109823  0.105322  0  1.032225  0
H  H31  1  0.83809615  0.04782653  0.46314105  1  0  0.097421  0  0.96754  0  0  0.106593  0  1.030015  0  0  0.109934  0  1.026357  0  0  0.109476  0.104072  0  1.032773  0
H  H32  1  0.21015551  0.04788178  0.96343610  1  0  0.098656  0  0.966927  0  0  0.107845  0  1.029494  0  0  0.111173  0  1.025904  0  0  0.109806  0.105327  0  1.032204  0
H  H33  1  0.16190382  0.95217267  0.53686084  1  0  0.097496  0  0.967597  0  0  0.106735  0  1.029966  0  0  0.110077  0  1.026307  0  0  0.109493  0.104216  0  1.032726  0
H  H34  1  0.45853602  0.60308347  0.98265379  1  0  0.076904  0  0.96285  0  0  0.078795  0  1.041333  0  0  0.081919  0  1.037937  0  0  0.106607  0.076459  0  1.04385  0
H  H35  1  0.85529099  0.39686866  0.51726018  1  0  0.076803  0  0.963584  0  0  0.078619  0  1.042102  0  0  0.081842  0  1.038597  0  0  0.106552  0.076246  0  1.044675  0
H  H36  1  0.54146598  0.39691754  0.01734744  1  0  0.076948  0  0.962868  0  0  0.078837  0  1.041334  0  0  0.081963  0  1.037939  0  0  0.106631  0.076506  0  1.043843  0
H  H37  1  0.14470449  0.60313052  0.48273998  1  0  0.076805  0  0.963625  0  0  0.078653  0  1.042092  0  0  0.081875  0  1.03859  0  0  0.106568  0.07628  0  1.044659  0
H  H38  1  0.28396068  0.61427840  0.87632699  1  0  0.123486  0  0.945788  0  0  0.128173  0  1.013085  0  0  0.132143  0  1.010755  0  0  0.110919  0.125277  0  1.01498  0
H  H39  1  0.66968050  0.38552903  0.62367225  1  0  0.122852  0  0.945958  0  0  0.12686  0  1.014174  0  0  0.1309  0  1.011815  0  0  0.110457  0.12392  0  1.016095  0
H  H40  1  0.71604197  0.38572169  0.12367399  1  0  0.123466  0  0.945812  0  0  0.128156  0  1.013107  0  0  0.132127  0  1.010775  0  0  0.110905  0.125264  0  1.014999  0
H  H41  1  0.33031385  0.61447012  0.37632618  1  0  0.122849  0  0.945959  0  0  0.126841  0  1.014185  0  0  0.130881  0  1.011827  0  0  0.11045  0.123904  0  1.016097  0
C  C42  1  0.59500341  0.48718517  0.40067775  1  0  0.338014  0  3.71968  0  0  0.305731  0  4.002175  0  0  0.322031  0  4.008336  0  0  0.209698  0.294911  0  3.997809  0
C  C43  1  0.10810090  0.51263373  0.09960916  1  0  0.336637  0  3.722037  0  0  0.303806  0  4.004601  0  0  0.320214  0  4.010768  0  0  0.208813  0.292915  0  4.000229  0
C  C44  1  0.40499273  0.51281308  0.59932159  1  0  0.33796  0  3.719784  0  0  0.305712  0  4.002315  0  0  0.322017  0  4.008472  0  0  0.209684  0.294879  0  3.997959  0
C  C45  1  0.89190556  0.48736726  0.90039091  1  0  0.336626  0  3.722236  0  0  0.30385  0  4.004681  0  0  0.320255  0  4.01085  0  0  0.208808  0.292953  0  4.000311  0
C  C46  1  0.71784945  0.68604385  0.44472253  1  0  0.38602  0  3.852424  0  0  0.34926  0  4.154547  0  0  0.37636  0  4.159479  0  0  0.188531  0.331189  0  4.150333  0
C  C47  1  0.03207087  0.31376923  0.05554466  1  0  0.388525  0  3.850796  0  0  0.351735  0  4.15294  0  0  0.378971  0  4.157733  0  0  0.189235  0.333606  0  4.148794  0
C  C48  1  0.28214827  0.31395533  0.55527821  1  0  0.385953  0  3.852607  0  0  0.349201  0  4.154751  0  0  0.376301  0  4.159685  0  0  0.188518  0.331129  0  4.150542  0
C  C49  1  0.96793358  0.68622997  0.94445724  1  0  0.388514  0  3.850722  0  0  0.351709  0  4.152893  0  0  0.378943  0  4.157692  0  0  0.189186  0.333588  0  4.148728  0
C  C50  1  0.48398003  0.36651293  0.34606763  1  0  0.031393  0  3.815464  0  0  0.041986  0  4.057967  0  0  0.043463  0  4.077796  0  0  0.000811  0.040943  0  4.044598  0
C  C51  1  0.11773745  0.63332623  0.15416093  1  0  0.032506  0  3.816244  0  0  0.043702  0  4.057864  0  0  0.045177  0  4.077685  0  0  0.000571  0.042663  0  4.044492  0
C  C52  1  0.51601637  0.63348807  0.65393302  1  0  0.031456  0  3.815471  0  0  0.041958  0  4.058101  0  0  0.043434  0  4.077929  0  0  0.000831  0.040915  0  4.044728  0
C  C53  1  0.88227236  0.36667473  0.84583798  1  0  0.032383  0  3.816496  0  0  0.043627  0  4.057998  0  0  0.045102  0  4.07782  0  0  0.000565  0.04259  0  4.044621  0
C  C54  1  0.47706280  0.26312763  0.35950435  1  0  -0.132696  0  3.69477  0  0  -0.15614  0  3.943305  0  0  -0.161504  0  3.963995  0  0  -0.087049  -0.152709  0  3.929566  0
C  C55  1  0.21403793  0.73659116  0.14054946  1  0  -0.134075  0  3.696072  0  0  -0.157681  0  3.944506  0  0  -0.163018  0  3.965226  0  0  -0.08693  -0.154256  0  3.930727  0
C  C56  1  0.52293452  0.73687521  0.64049794  1  0  -0.132755  0  3.69485  0  0  -0.156148  0  3.943432  0  0  -0.161512  0  3.964123  0  0  -0.087055  -0.152707  0  3.929681  0
C  C57  1  0.78597009  0.26341073  0.85944970  1  0  -0.134  0  3.696286  0  0  -0.157607  0  3.944661  0  0  -0.162943  0  3.965381  0  0  -0.086886  -0.154159  0  3.930888  0
C  C58  1  0.36829000  0.14962272  0.30512924  1  0  0.104369  0  3.749654  0  0  0.082034  0  4.008775  0  0  0.087299  0  4.024816  0  0  0.03424  0.078569  0  3.998  0
C  C59  1  0.21870627  0.85015511  0.19482220  1  0  0.104836  0  3.750158  0  0  0.082086  0  4.009832  0  0  0.087393  0  4.02585  0  0  0.034217  0.078573  0  3.999033  0
C  C60  1  0.63170594  0.85037737  0.69487116  1  0  0.104389  0  3.74972  0  0  0.082052  0  4.008852  0  0  0.087316  0  4.024894  0  0  0.034236  0.078581  0  3.998081  0
C  C61  1  0.78130129  0.14984585  0.80517614  1  0  0.104785  0  3.750485  0  0  0.082028  0  4.010153  0  0  0.087335  0  4.026171  0  0  0.034207  0.078504  0  3.999371  0
C  C62  1  0.27307758  0.23163332  0.22824771  1  0  0.113316  0  3.762286  0  0  0.093925  0  4.016252  0  0  0.099153  0  4.033336  0  0  0.036616  0.090535  0  4.004719  0
C  C63  1  0.04160553  0.76841987  0.27187515  1  0  0.110704  0  3.765486  0  0  0.091833  0  4.019268  0  0  0.096984  0  4.036363  0  0  0.036132  0.088465  0  4.007691  0
C  C64  1  0.72692014  0.76836583  0.77175129  1  0  0.113415  0  3.762246  0  0  0.094032  0  4.016205  0  0  0.099261  0  4.033292  0  0  0.036688  0.090652  0  4.004664  0
C  C65  1  0.95839888  0.23157926  0.72812212  1  0  0.110772  0  3.765507  0  0  0.091886  0  4.019291  0  0  0.097039  0  4.036386  0  0  0.036162  0.088523  0  4.007717  0
C  C66  1  0.37932930  0.34954651  0.27852674  1  0  -0.149708  0  3.704525  0  0  -0.174334  0  3.957606  0  0  -0.179295  0  3.976043  0  0  -0.090597  -0.171123  0  3.945298  0
C  C67  1  0.03006889  0.65047119  0.22172789  1  0  -0.148732  0  3.704298  0  0  -0.173048  0  3.956533  0  0  -0.178052  0  3.974965  0  0  -0.089751  -0.169788  0  3.94422  0
C  C68  1  0.62066776  0.65045356  0.72147251  1  0  -0.149782  0  3.704604  0  0  -0.174376  0  3.95772  0  0  -0.179338  0  3.976156  0  0  -0.090653  -0.171163  0  3.945407  0
C  C69  1  0.96994092  0.34952979  0.77827218  1  0  -0.148859  0  3.704391  0  0  -0.173189  0  3.956635  0  0  -0.178199  0  3.975061  0  0  -0.089795  -0.169935  0  3.944326  0
C  C70  1  0.34723524  0.80914284  0.83436752  1  0  0.340206  0  3.739236  0  0  0.304901  0  4.025633  0  0  0.320604  0  4.033661  0  0  0.217855  0.294437  0  4.020111  0
C  C71  1  0.53816377  0.19061696  0.66547236  1  0  0.33892  0  3.738016  0  0  0.303086  0  4.02553  0  0  0.318908  0  4.03338  0  0  0.217677  0.292561  0  4.020087  0
C  C72  1  0.65276695  0.19085633  0.16563206  1  0  0.34035  0  3.739166  0  0  0.305019  0  4.02559  0  0  0.320716  0  4.033621  0  0  0.217933  0.29456  0  4.020064  0
C  C73  1  0.46183283  0.80938221  0.33452780  1  0  0.338842  0  3.737963  0  0  0.303108  0  4.025479  0  0  0.318932  0  4.033329  0  0  0.217696  0.29257  0  4.020041  0
C  C74  1  0.15639269  0.74693482  0.73172301  1  0  0.409662  0  3.784674  0  0  0.366993  0  4.096887  0  0  0.393067  0  4.101612  0  0  0.209333  0.349493  0  4.093203  0
C  C75  1  0.40938486  0.25285070  0.76812152  1  0  0.412376  0  3.783331  0  0  0.368879  0  4.096574  0  0  0.394979  0  4.101245  0  0  0.209928  0.351402  0  4.092912  0
C  C76  1  0.84360594  0.25306616  0.26827707  1  0  0.409491  0  3.784708  0  0  0.366847  0  4.096918  0  0  0.392922  0  4.101639  0  0  0.209279  0.349349  0  4.093229  0
C  C77  1  0.59061511  0.74714849  0.23187979  1  0  0.412261  0  3.783346  0  0  0.368803  0  4.09656  0  0  0.394904  0  4.101232  0  0  0.209978  0.351315  0  4.092902  0
C  C78  1  0.44286001  0.79890290  0.89631075  1  0  0.038825  0  3.80137  0  0  0.052057  0  4.036796  0  0  0.05381  0  4.057798  0  0  0.014089  0.050819  0  4.022776  0
C  C79  1  0.64421286  0.20090743  0.60358985  1  0  0.038361  0  3.801433  0  0  0.051359  0  4.037535  0  0  0.053085  0  4.058505  0  0  0.014404  0.050236  0  4.023404  0
C  C80  1  0.55714084  0.20109805  0.10368701  1  0  0.038709  0  3.801323  0  0  0.05198  0  4.036726  0  0  0.053746  0  4.057708  0  0  0.014016  0.050725  0  4.022728  0
C  C81  1  0.35578263  0.79909175  0.39641089  1  0  0.038478  0  3.801254  0  0  0.051287  0  4.037569  0  0  0.053009  0  4.058547  0  0  0.014394  0.050167  0  4.023435  0
C  C82  1  0.58519607  0.89644764  0.94322487  1  0  -0.118444  0  3.673389  0  0  -0.140004  0  3.92231  0  0  -0.1463  0  3.942317  0  0  -0.071122  -0.136002  0  3.909141  0
C  C83  1  0.68919854  0.10343027  0.55665346  1  0  -0.119034  0  3.671579  0  0  -0.140311  0  3.920577  0  0  -0.146623  0  3.940564  0  0  -0.071091  -0.136333  0  3.907409  0
C  C84  1  0.41480678  0.10355062  0.05677505  1  0  -0.118413  0  3.673207  0  0  -0.139954  0  3.922106  0  0  -0.146253  0  3.942109  0  0  -0.07111  -0.135938  0  3.908927  0
C  C85  1  0.31079964  0.89656981  0.44334694  1  0  -0.118983  0  3.671486  0  0  -0.140193  0  3.920518  0  0  -0.146502  0  3.940506  0  0  -0.07105  -0.136213  0  3.907349  0
C  C86  1  0.67613983  0.88125767  0.99984576  1  0  0.138061  0  3.673622  0  0  0.104408  0  3.923081  0  0  0.112261  0  3.938396  0  0  0.049465  0.099173  0  3.91294  0
C  C87  1  0.79523274  0.11867224  0.49997037  1  0  0.139863  0  3.671969  0  0  0.106918  0  3.921526  0  0  0.114809  0  3.936733  0  0  0.049729  0.101634  0  3.911489  0
C  C88  1  0.32385878  0.11874328  0.00015200  1  0  0.138066  0  3.673403  0  0  0.104379  0  3.922905  0  0  0.112225  0  3.938227  0  0  0.04946  0.099147  0  3.912766  0
C  C89  1  0.20476320  0.88132784  0.50003003  1  0  0.139655  0  3.672059  0  0  0.106705  0  3.921584  0  0  0.114596  0  3.936792  0  0  0.049665  0.101418  0  3.911558  0
C  C90  1  0.49207290  0.68432571  0.96895914  1  0  0.124877  0  3.714133  0  0  0.094636  0  3.965718  0  0  0.101637  0  3.982649  0  0  0.044523  0.090046  0  3.954403  0
C  C91  1  0.80778510  0.31560435  0.53093203  1  0  0.125032  0  3.7148  0  0  0.09533  0  3.966196  0  0  0.102285  0  3.983048  0  0  0.045014  0.090732  0  3.954948  0
C  C92  1  0.50792573  0.31567528  0.03104093  1  0  0.124916  0  3.714029  0  0  0.094682  0  3.9656  0  0  0.101681  0  3.982536  0  0  0.04459  0.090099  0  3.954274  0
C  C93  1  0.19220544  0.68439389  0.46906673  1  0  0.125084  0  3.714816  0  0  0.095378  0  3.966266  0  0  0.102331  0  3.98312  0  0  0.045024  0.09078  0  3.955012  0
C  C94  1  0.39515476  0.69108264  0.91020442  1  0  -0.128996  0  3.676897  0  0  -0.157897  0  3.934572  0  0  -0.163669  0  3.953604  0  0  -0.080367  -0.154267  0  3.922054  0
C  C95  1  0.70417921  0.30877229  0.58975045  1  0  -0.127461  0  3.676136  0  0  -0.155827  0  3.934237  0  0  -0.16166  0  3.953184  0  0  -0.079938  -0.152186  0  3.921746  0
C  C96  1  0.60484745  0.30891655  0.08979689  1  0  -0.129046  0  3.676851  0  0  -0.157966  0  3.934535  0  0  -0.163742  0  3.953564  0  0  -0.080405  -0.154342  0  3.922033  0
C  C97  1  0.29581357  0.69122595  0.41024831  1  0  -0.127528  0  3.676071  0  0  -0.155811  0  3.934246  0  0  -0.16164  0  3.953192  0  0  -0.079943  -0.152184  0  3.921773  0
S  S98  1  0.77548340  0.82635103  0.44892836  1  0  -0.420776  0  1.909164  0  0  -0.41858  0  2.215291  0  0  -0.43861  0  2.212824  0  0  -0.202121  -0.40382  0  2.2163  0
S  S99  1  0.94959713  0.17354855  0.05147471  1  0  -0.421214  0  1.91018  0  0  -0.419134  0  2.216199  0  0  -0.43907  0  2.213662  0  0  -0.202397  -0.404464  0  2.217235  0
S  S100  1  0.22451366  0.17364907  0.55107320  1  0  -0.420758  0  1.909259  0  0  -0.418565  0  2.215396  0  0  -0.438588  0  2.212924  0  0  -0.202112  -0.403801  0  2.216407  0
S  S101  1  0.05040869  0.82645341  0.94852965  1  0  -0.421205  0  1.910125  0  0  -0.419109  0  2.216119  0  0  -0.439046  0  2.213586  0  0  -0.202387  -0.40445  0  2.217154  0
S  S102  1  0.99940575  0.64406301  0.65582586  1  0  -0.37076  0  2.098877  0  0  -0.352488  0  2.463969  0  0  -0.37199  0  2.451759  0  0  -0.154298  -0.338524  0  2.471859  0
S  S103  1  0.35523987  0.35570449  0.84408804  1  0  -0.372337  0  2.099449  0  0  -0.353661  0  2.46464  0  0  -0.373174  0  2.452411  0  0  -0.154698  -0.339714  0  2.472576  0
S  S104  1  0.00059309  0.35593617  0.34417488  1  0  -0.370776  0  2.09885  0  0  -0.352512  0  2.463928  0  0  -0.372016  0  2.451724  0  0  -0.154323  -0.338547  0  2.471814  0
S  S105  1  0.64476168  0.64429562  0.15591410  1  0  -0.372302  0  2.099403  0  0  -0.353627  0  2.464568  0  0  -0.373137  0  2.452339  0  0  -0.154703  -0.339682  0  2.472504  0
N  N106  1  0.77000929  0.64550109  0.49663344  1  0  -0.357962  0  3.266973  0  0  -0.27862  0  3.568671  0  0  -0.301751  0  3.580723  0  0  -0.275414  -0.262914  0  3.560156  0
N  N107  1  0.12446804  0.35424212  0.00351191  1  0  -0.358296  0  3.268252  0  0  -0.279425  0  3.570793  0  0  -0.302529  0  3.582735  0  0  -0.276009  -0.263749  0  3.562362  0
N  N108  1  0.22999067  0.35449808  0.50336672  1  0  -0.357954  0  3.266984  0  0  -0.278612  0  3.568689  0  0  -0.301744  0  3.580741  0  0  -0.275429  -0.262909  0  3.560174  0
N  N109  1  0.87553258  0.64575614  0.99648800  1  0  -0.35834  0  3.268238  0  0  -0.279455  0  3.570768  0  0  -0.302558  0  3.582708  0  0  -0.275993  -0.26378  0  3.56232  0
N  N110  1  0.69379068  0.52072953  0.46850487  1  0  -0.253065  0  2.922804  0  0  -0.240898  0  3.19679  0  0  -0.24743  0  3.210634  0  0  -0.226172  -0.236443  0  3.187315  0
N  N111  1  0.17304907  0.47903134  0.03165574  1  0  -0.252414  0  2.923894  0  0  -0.240218  0  3.198126  0  0  -0.246696  0  3.211912  0  0  -0.225753  -0.235796  0  3.188688  0
N  N112  1  0.30621153  0.47926966  0.53149644  1  0  -0.253059  0  2.922839  0  0  -0.240893  0  3.196829  0  0  -0.247427  0  3.210672  0  0  -0.226189  -0.236431  0  3.187346  0
N  N113  1  0.82695378  0.52096690  0.96834302  1  0  -0.252352  0  2.924005  0  0  -0.240173  0  3.198179  0  0  -0.24665  0  3.211966  0  0  -0.225731  -0.235752  0  3.188734  0
N  N114  1  0.26680742  0.13222900  0.24013353  1  0  -0.330451  0  3.109533  0  0  -0.282741  0  3.370836  0  0  -0.293445  0  3.384384  0  0  -0.319669  -0.275339  0  3.36166  0
N  N115  1  0.13466140  0.86771210  0.25985724  1  0  -0.329442  0  3.111035  0  0  -0.281382  0  3.37157  0  0  -0.292089  0  3.385198  0  0  -0.319634  -0.273986  0  3.36235  0
N  N116  1  0.73319121  0.86777199  0.75986654  1  0  -0.330506  0  3.109418  0  0  -0.282784  0  3.3707  0  0  -0.293488  0  3.384248  0  0  -0.319686  -0.275386  0  3.361535  0
N  N117  1  0.86534078  0.13228705  0.74014119  1  0  -0.329473  0  3.111265  0  0  -0.281419  0  3.371812  0  0  -0.292127  0  3.385439  0  0  -0.31967  -0.274026  0  3.362605  0
N  N118  1  0.23224226  0.86812394  0.75943761  1  0  -0.355803  0  3.192555  0  0  -0.285636  0  3.503028  0  0  -0.30577  0  3.511654  0  0  -0.255023  -0.272064  0  3.497091  0
N  N119  1  0.36408359  0.13164906  0.74039743  1  0  -0.35748  0  3.192321  0  0  -0.287104  0  3.503167  0  0  -0.307282  0  3.511806  0  0  -0.255433  -0.273503  0  3.497215  0
N  N120  1  0.76775592  0.13187614  0.24056279  1  0  -0.355722  0  3.192502  0  0  -0.285577  0  3.502979  0  0  -0.305709  0  3.511605  0  0  -0.255027  -0.272002  0  3.497026  0
N  N121  1  0.63591460  0.86835104  0.25960413  1  0  -0.35741  0  3.19221  0  0  -0.287029  0  3.503022  0  0  -0.307206  0  3.511661  0  0  -0.25542  -0.273423  0  3.497057  0
N  N122  1  0.35455443  0.90683596  0.82408169  1  0  -0.237318  0  2.910419  0  0  -0.226073  0  3.187941  0  0  -0.23306  0  3.201201  0  0  -0.216208  -0.22132  0  3.178933  0
N  N123  1  0.44778032  0.09292426  0.67575422  1  0  -0.236022  0  2.91004  0  0  -0.224719  0  3.188077  0  0  -0.231742  0  3.2013  0  0  -0.215943  -0.219943  0  3.179088  0
N  N124  1  0.64544643  0.09316502  0.17591781  1  0  -0.237374  0  2.910528  0  0  -0.226111  0  3.188059  0  0  -0.233097  0  3.201321  0  0  -0.216214  -0.221357  0  3.179039  0
N  N125  1  0.55221629  0.90707492  0.32424652  1  0  -0.23607  0  2.910055  0  0  -0.224768  0  3.18807  0  0  -0.231791  0  3.201291  0  0  -0.215993  -0.219994  0  3.17908  0
N  N126  1  0.63097801  0.77709747  0.01226206  1  0  -0.321382  0  3.308646  0  0  -0.234252  0  3.572447  0  0  -0.252228  0  3.588167  0  0  -0.332783  -0.222179  0  3.561778  0
N  N127  1  0.85403485  0.22286624  0.48757375  1  0  -0.32238  0  3.309662  0  0  -0.236723  0  3.574962  0  0  -0.254682  0  3.59064  0  0  -0.33384  -0.224662  0  3.564357  0
N  N128  1  0.36902286  0.22290351  0.98773801  1  0  -0.32138  0  3.308688  0  0  -0.234229  0  3.57248  0  0  -0.252205  0  3.588205  0  0  -0.332772  -0.22217  0  3.56183  0
N  N129  1  0.14595951  0.77713292  0.51242584  1  0  -0.322362  0  3.309642  0  0  -0.236796  0  3.575058  0  0  -0.254755  0  3.590736  0  0  -0.333869  -0.224736  0  3.564458  0
O  O130  1  0.60246545  0.58433855  0.38199254  1  0  -0.269346  0  2.279081  0  0  -0.195228  0  2.498528  0  0  -0.212459  0  2.496424  0  0  -0.114288  -0.183522  0  2.499586  0
O  O131  1  0.01854129  0.41552167  0.11835825  1  0  -0.271339  0  2.278483  0  0  -0.196768  0  2.497681  0  0  -0.2143  0  2.49571  0  0  -0.114802  -0.184898  0  2.498686  0
O  O132  1  0.39753274  0.41566155  0.61800902  1  0  -0.269264  0  2.279127  0  0  -0.19519  0  2.498609  0  0  -0.21242  0  2.496497  0  0  -0.114246  -0.18348  0  2.499671  0
O  O133  1  0.98146406  0.58447933  0.88164240  1  0  -0.271355  0  2.278412  0  0  -0.196806  0  2.497596  0  0  -0.214338  0  2.495629  0  0  -0.114816  -0.18494  0  2.498601  0
O  O134  1  0.22844844  0.70561427  0.77770521  1  0  -0.257402  0  2.313027  0  0  -0.185305  0  2.537  0  0  -0.203021  0  2.536977  0  0  -0.102159  -0.173528  0  2.536967  0
O  O135  1  0.52278236  0.29415939  0.72213493  1  0  -0.257367  0  2.31196  0  0  -0.184644  0  2.536013  0  0  -0.202349  0  2.53589  0  0  -0.102218  -0.172964  0  2.536077  0
O  O136  1  0.77155084  0.29438580  0.22229404  1  0  -0.257353  0  2.312965  0  0  -0.185271  0  2.536966  0  0  -0.202986  0  2.536944  0  0  -0.10216  -0.1735  0  2.536936  0
O  O137  1  0.47721470  0.70584069  0.27786548  1  0  -0.257252  0  2.311952  0  0  -0.184594  0  2.536017  0  0  -0.202302  0  2.535898  0  0  -0.102231  -0.172895  0  2.536074  0
O  O138  1  0.08287362  0.07141454  0.85136118  1  0  -0.929789  0  1.950101  0  0  -0.824509  0  2.25424  0  0  -0.85367  0  2.216295  0  0  -0.588073  -0.803836  0  2.280265  0
O  O139  1  0.01122733  0.92857265  0.64876248  1  0  -0.930349  0  1.94914  0  0  -0.824806  0  2.253851  0  0  -0.854031  0  2.215836  0  0  -0.587706  -0.804089  0  2.279936  0
O  O140  1  0.91712365  0.92858373  0.14863931  1  0  -0.92981  0  1.950088  0  0  -0.824539  0  2.254247  0  0  -0.853701  0  2.216294  0  0  -0.588085  -0.803876  0  2.280265  0
O  O141  1  0.98877242  0.07142833  0.35123759  1  0  -0.930396  0  1.949177  0  0  -0.824855  0  2.253888  0  0  -0.854079  0  2.215867  0  0  -0.587712  -0.80414  0  2.279973  0
