# generated using pymatgen
data_Zr3H14C36(Br3O8)2
_symmetry_space_group_name_H-M   'P 1'
_cell_length_a   17.01959207
_cell_length_b   17.01958958
_cell_length_c   17.01959494
_cell_angle_alpha   59.99990984
_cell_angle_beta   59.99999626
_cell_angle_gamma   59.99994791
_symmetry_Int_Tables_number   1
_chemical_formula_structural   Zr3H14C36(Br3O8)2
_chemical_formula_sum   'Zr6 H28 C72 Br12 O32'
_cell_volume   3486.03684085
_cell_formula_units_Z   2
loop_
 _symmetry_equiv_pos_site_id
 _symmetry_equiv_pos_as_xyz
  1  'x, y, z'
loop_
 _atom_site_type_symbol
 _atom_site_label
 _atom_site_symmetry_multiplicity
 _atom_site_fract_x
 _atom_site_fract_y
 _atom_site_fract_z
 _atom_site_occupancy
 _atom_site_pbe_bader_charge
 _atom_site_pbe_bader_spin_density
 _atom_site_pbe_cm5_charge
 _atom_site_pbe_ddec_charge
 _atom_site_pbe_ddec_spin_density
 _atom_site_pbe_ddec_sum_bond_order
 _atom_site_pbe_magmom
Zr  Zr0  1  0.89622214  0.39621975  0.60377853  1  2.631954  0  1.628095  2.371622  0  2.769115  0
Zr  Zr1  1  0.10377509  0.60377537  0.39622826  1  2.632583  0  1.628058  2.371528  0  2.76925  0
Zr  Zr2  1  0.10377605  0.39621508  0.60378183  1  2.632723  0  1.628086  2.371593  0  2.769122  0
Zr  Zr3  1  0.89621921  0.60377925  0.39622053  1  2.632094  0  1.628078  2.371575  0  2.769143  0
Zr  Zr4  1  0.89621645  0.60377153  0.60378048  1  2.632716  0  1.628016  2.371516  0  2.769325  0
Zr  Zr5  1  0.10377560  0.39622428  0.39622000  1  2.631982  0  1.628075  2.371582  0  2.769139  0
H  H6  1  0.91812481  0.41812695  0.74561614  1  0.594584  0  0.332007  0.423701  0  0.85721  0
H  H7  1  0.91812433  0.74561332  0.41813026  1  0.594948  0  0.332007  0.423728  0  0.857212  0
H  H8  1  0.24561232  0.41812734  0.41812918  1  0.594642  0  0.332  0.423765  0  0.85719  0
H  H9  1  0.91812652  0.41812672  0.41813020  1  0.602741  0  0.331945  0.423694  0  0.857011  0
H  H10  1  0.62378491  0.39458675  0.87360301  1  0.142954  0  0.10097  0.113512  0  1.034772  0
H  H11  1  0.65421703  0.64551091  0.84232437  1  0.099523  0  0.11289  0.135574  0  0.991727  0
H  H12  1  0.37359820  0.60802235  0.12379031  1  0.119671  0  0.100983  0.113473  0  1.034813  0
H  H13  1  0.34232011  0.35794438  0.15422031  1  0.099303  0  0.112888  0.135653  0  0.991697  0
H  H14  1  0.89458420  0.12378773  0.60802338  1  0.100945  0  0.100975  0.11351  0  1.034814  0
H  H15  1  0.14551119  0.15421723  0.35794629  1  0.074183  0  0.112886  0.135613  0  0.991721  0
H  H16  1  0.10802160  0.87359844  0.39458951  1  0.119192  0  0.100987  0.11349  0  1.034817  0
H  H17  1  0.85794367  0.84231994  0.64551639  1  0.101423  0  0.112882  0.135627  0  0.991722  0
H  H18  1  0.62378573  0.87359986  0.60802425  1  0.119711  0  0.100971  0.113528  0  1.034744  0
H  H19  1  0.65421607  0.84232040  0.35794733  1  0.099357  0  0.112878  0.135679  0  0.991678  0
H  H20  1  0.37359802  0.12378647  0.39458905  1  0.143034  0  0.10096  0.11351  0  1.034699  0
H  H21  1  0.34232077  0.15422019  0.64551308  1  0.099138  0  0.11288  0.135645  0  0.991729  0
H  H22  1  0.10802130  0.39458532  0.12378958  1  0.100973  0  0.100956  0.113459  0  1.034822  0
H  H23  1  0.85794431  0.64551251  0.15421913  1  0.074167  0  0.112891  0.135623  0  0.99171  0
H  H24  1  0.89458548  0.60802404  0.87360128  1  0.119149  0  0.100975  0.11349  0  1.034785  0
H  H25  1  0.14551076  0.35794515  0.84232356  1  0.101516  0  0.112891  0.135601  0  0.99177  0
H  H26  1  0.10802103  0.12378653  0.87360179  1  0.119783  0  0.100962  0.113487  0  1.034805  0
H  H27  1  0.85794200  0.15421740  0.84232372  1  0.099313  0  0.112866  0.135577  0  0.991718  0
H  H28  1  0.89458520  0.87359888  0.12378921  1  0.142994  0  0.100956  0.113473  0  1.03474  0
H  H29  1  0.14551081  0.84232125  0.15422048  1  0.099152  0  0.112887  0.135586  0  0.991773  0
H  H30  1  0.62378581  0.60802130  0.39458813  1  0.100945  0  0.100973  0.113504  0  1.034823  0
H  H31  1  0.65421680  0.35794323  0.64551443  1  0.074214  0  0.112879  0.135601  0  0.991722  0
H  H32  1  0.37359744  0.39458674  0.60802543  1  0.11913  0  0.100956  0.113473  0  1.034793  0
H  H33  1  0.34231906  0.64551313  0.35794732  1  0.101501  0  0.112896  0.135648  0  0.991743  0
C  C34  1  0.73283688  0.51008911  0.76222944  1  1.550696  0  0.238128  0.643419  0  4.094748  0
C  C35  1  0.99483893  0.76222526  0.51009358  1  1.559408  0  0.238227  0.6435  0  4.09478  0
C  C36  1  0.26222471  0.49484018  0.23284086  1  1.546697  0  0.238233  0.64352  0  4.094821  0
C  C37  1  0.01008735  0.23283848  0.49484272  1  1.575924  0  0.238131  0.643482  0  4.094683  0
C  C38  1  0.99484087  0.23283647  0.76222894  1  1.546909  0  0.238165  0.643409  0  4.094831  0
C  C39  1  0.73283647  0.49484069  0.51009192  1  1.57613  0  0.238118  0.643445  0  4.09478  0
C  C40  1  0.01008899  0.76222735  0.23284074  1  1.550886  0  0.238151  0.643435  0  4.094821  0
C  C41  1  0.26222584  0.51009166  0.49484261  1  1.56007  0  0.238234  0.643546  0  4.094718  0
C  C42  1  0.01008843  0.49484108  0.76222983  1  1.56009  0  0.238134  0.64346  0  4.09485  0
C  C43  1  0.26222555  0.23283884  0.51009275  1  1.55062  0  0.238238  0.643548  0  4.094738  0
C  C44  1  0.99483915  0.51008909  0.23284018  1  1.575756  0  0.238172  0.643491  0  4.094712  0
C  C45  1  0.73283613  0.76222660  0.49484276  1  1.546969  0  0.238201  0.643425  0  4.094797  0
C  C46  1  0.59800727  0.45317545  0.89926733  1  -0.084635  0  -0.080505  -0.128058  0  3.93183  0
C  C47  1  0.61462290  0.59535124  0.88225391  1  0.056303  0  -0.088821  -0.148473  0  3.96123  0
C  C48  1  0.53538952  0.60473569  0.96308044  1  -0.115178  0  -0.008716  0.076027  0  3.934812  0
C  C49  1  0.48212372  0.53995490  0.01599417  1  0.008467  0  -0.003019  0.045887  0  3.963024  0
C  C50  1  0.39926381  0.54954723  0.09801074  1  -0.058763  0  -0.080497  -0.12794  0  3.931773  0
C  C51  1  0.38224933  0.40776932  0.11462576  1  0.055296  0  -0.08879  -0.148504  0  3.961088  0
C  C52  1  0.46307624  0.39679265  0.03539256  1  -0.150941  0  -0.008727  0.07598  0  3.934789  0
C  C53  1  0.51599147  0.46192560  0.98212751  1  0.030205  0  -0.003012  0.045905  0  3.963006  0
C  C54  1  0.64600357  0.51879977  0.84995382  1  0.052702  0  -0.013614  -0.018066  0  3.97283  0
C  C55  1  0.34994869  0.48523989  0.14600849  1  0.053722  0  -0.013602  -0.018115  0  3.972759  0
C  C56  1  0.95317340  0.09800946  0.54954691  1  0.022424  0  -0.080499  -0.128041  0  3.931839  0
C  C57  1  0.09535007  0.11462387  0.40777040  1  0.079315  0  -0.08881  -0.148538  0  3.961221  0
C  C58  1  0.10473443  0.03539028  0.39679393  1  -0.131675  0  -0.008779  0.07596  0  3.934915  0
C  C59  1  0.03995336  0.98212439  0.46192770  1  0.050584  0  -0.003024  0.045908  0  3.962958  0
C  C60  1  0.04954625  0.89926375  0.45317735  1  0.004258  0  -0.080475  -0.127959  0  3.931686  0
C  C61  1  0.90776838  0.88225023  0.59535570  1  0.074701  0  -0.08877  -0.148475  0  3.961146  0
C  C62  1  0.89679307  0.96307626  0.60473819  1  -0.115693  0  -0.008724  0.076047  0  3.934742  0
C  C63  1  0.96192444  0.01599209  0.53995463  1  -0.02356  0  -0.003001  0.04588  0  3.963023  0
C  C64  1  0.01879788  0.14600610  0.48524069  1  -0.023367  0  -0.013593  -0.01806  0  3.972667  0
C  C65  1  0.98523912  0.84994984  0.51880252  1  -0.022775  0  -0.013604  -0.018097  0  3.972739  0
C  C66  1  0.59800666  0.89926397  0.54955083  1  -0.058838  0  -0.080489  -0.128047  0  3.931694  0
C  C67  1  0.61462119  0.88225035  0.40777255  1  0.055644  0  -0.088829  -0.148655  0  3.961187  0
C  C68  1  0.53538799  0.96307753  0.39679486  1  -0.151324  0  -0.00874  0.075966  0  3.93486  0
C  C69  1  0.48212303  0.01599111  0.46192863  1  0.030371  0  -0.003017  0.045946  0  3.962914  0
C  C70  1  0.39926310  0.09800837  0.45317746  1  -0.084735  0  -0.080451  -0.127982  0  3.931602  0
C  C71  1  0.38225040  0.11462382  0.59535340  1  0.057275  0  -0.088797  -0.148578  0  3.961146  0
C  C72  1  0.46307773  0.03538958  0.60473725  1  -0.115112  0  -0.008733  0.076013  0  3.934622  0
C  C73  1  0.51599015  0.98212466  0.53995476  1  0.008327  0  -0.002981  0.045946  0  3.96289  0
C  C74  1  0.64600278  0.84994988  0.48524411  1  0.053789  0  -0.013615  -0.01802  0  3.972738  0
C  C75  1  0.34994927  0.14600592  0.51880082  1  0.052056  0  -0.013651  -0.018135  0  3.972845  0
C  C76  1  0.04954524  0.45317449  0.09801018  1  0.022254  0  -0.08046  -0.127958  0  3.931791  0
C  C77  1  0.90776857  0.59535196  0.11462508  1  0.07925  0  -0.088825  -0.148554  0  3.961136  0
C  C78  1  0.89679260  0.60473734  0.03538997  1  -0.131546  0  -0.008728  0.076029  0  3.934734  0
C  C79  1  0.96192454  0.53995538  0.98212539  1  0.050393  0  -0.003023  0.045884  0  3.963085  0
C  C80  1  0.95317378  0.54954830  0.89926656  1  0.004221  0  -0.080506  -0.127995  0  3.931796  0
C  C81  1  0.09535093  0.40777013  0.88225269  1  0.074315  0  -0.088767  -0.148452  0  3.9612  0
C  C82  1  0.10473522  0.39679306  0.96307942  1  -0.115705  0  -0.008732  0.076016  0  3.934786  0
C  C83  1  0.03995158  0.46192685  0.01599288  1  -0.023203  0  -0.003007  0.045898  0  3.963055  0
C  C84  1  0.98523867  0.51879939  0.14600720  1  -0.023167  0  -0.01359  -0.018064  0  3.972734  0
C  C85  1  0.01879864  0.48524050  0.84995247  1  -0.022619  0  -0.013602  -0.018107  0  3.972752  0
C  C86  1  0.04954610  0.09800685  0.89926731  1  -0.058863  0  -0.080475  -0.128007  0  3.931798  0
C  C87  1  0.90776777  0.11462258  0.88225310  1  0.055387  0  -0.088806  -0.148405  0  3.961064  0
C  C88  1  0.89679166  0.03538967  0.96308058  1  -0.151089  0  -0.00875  0.075858  0  3.934888  0
C  C89  1  0.96192508  0.98212444  0.01599229  1  0.03042  0  -0.003018  0.045926  0  3.963039  0
C  C90  1  0.95317470  0.89926399  0.09801073  1  -0.084737  0  -0.08048  -0.127949  0  3.931696  0
C  C91  1  0.09535114  0.88225082  0.11462633  1  0.056773  0  -0.088784  -0.148435  0  3.961255  0
C  C92  1  0.10473493  0.96307716  0.03539310  1  -0.115334  0  -0.008715  0.076029  0  3.934755  0
C  C93  1  0.03995360  0.01599058  0.98212636  1  0.008515  0  -0.003023  0.045865  0  3.963048  0
C  C94  1  0.98523794  0.14600470  0.84995350  1  0.05383  0  -0.013585  -0.018058  0  3.972752  0
C  C95  1  0.01879899  0.84995000  0.14600766  1  0.052534  0  -0.013631  -0.018145  0  3.972817  0
C  C96  1  0.59800611  0.54954623  0.45317661  1  0.02234  0  -0.080478  -0.128015  0  3.931914  0
C  C97  1  0.61462117  0.40776821  0.59535472  1  0.079232  0  -0.088848  -0.148527  0  3.961198  0
C  C98  1  0.53538790  0.39679278  0.60473698  1  -0.131667  0  -0.008757  0.075996  0  3.934862  0
C  C99  1  0.48212246  0.46192754  0.53995698  1  0.050432  0  -0.00302  0.04586  0  3.963043  0
C  C100  1  0.39926257  0.45317523  0.54955036  1  0.004306  0  -0.080453  -0.127904  0  3.931658  0
C  C101  1  0.38224851  0.59535332  0.40777272  1  0.074544  0  -0.088794  -0.14857  0  3.961317  0
C  C102  1  0.46307476  0.60473717  0.39679442  1  -0.115656  0  -0.008718  0.076056  0  3.934802  0
C  C103  1  0.51598996  0.53995488  0.46192766  1  -0.023687  0  -0.003013  0.045901  0  3.963084  0
C  C104  1  0.64600385  0.48523793  0.51880124  1  -0.02317  0  -0.013553  -0.018052  0  3.972796  0
C  C105  1  0.34994929  0.51880024  0.48524216  1  -0.022575  0  -0.013619  -0.018099  0  3.97275  0
Br  Br106  1  0.50427969  0.29046481  0.99725134  1  -0.060868  0  0.02139  -0.077629  0  1.377841  0
Br  Br107  1  0.49724910  0.70800304  0.00428106  1  -0.061367  0  0.0214  -0.077624  0  1.377823  0
Br  Br108  1  0.79046525  0.00427929  0.70800545  1  -0.060942  0  0.021379  -0.077668  0  1.377817  0
Br  Br109  1  0.20800367  0.99724753  0.29046735  1  -0.067065  0  0.021396  -0.077623  0  1.377809  0
Br  Br110  1  0.50427986  0.99724915  0.70800383  1  -0.061377  0  0.021399  -0.07762  0  1.377807  0
Br  Br111  1  0.49724785  0.00428116  0.29046647  1  -0.060797  0  0.021414  -0.077592  0  1.377873  0
Br  Br112  1  0.20800219  0.29046611  0.00428119  1  -0.060888  0  0.021403  -0.077623  0  1.377822  0
Br  Br113  1  0.79046559  0.70800425  0.99724849  1  -0.067093  0  0.021392  -0.077638  0  1.377829  0
Br  Br114  1  0.20800267  0.00427843  0.99725059  1  -0.061323  0  0.021386  -0.077639  0  1.377791  0
Br  Br115  1  0.79046425  0.99724637  0.00428241  1  -0.060872  0  0.021419  -0.077578  0  1.377831  0
Br  Br116  1  0.50427893  0.70800296  0.29046803  1  -0.060868  0  0.021374  -0.07766  0  1.377811  0
Br  Br117  1  0.49724625  0.29046480  0.70800541  1  -0.06708  0  0.021406  -0.077631  0  1.37781  0
O  O118  1  0.76355522  0.44143016  0.73238224  1  -1.171828  0  -0.332584  -0.596777  0  2.229085  0
O  O119  1  0.06262690  0.73237870  0.44143438  1  -1.175561  0  -0.332645  -0.596846  0  2.229027  0
O  O120  1  0.23237783  0.56262789  0.26355931  1  -1.170993  0  -0.332646  -0.596838  0  2.229008  0
O  O121  1  0.94142908  0.26355744  0.56262980  1  -1.180508  0  -0.332616  -0.596858  0  2.229116  0
O  O122  1  0.06262771  0.26355664  0.73238064  1  -1.171089  0  -0.332657  -0.596825  0  2.228978  0
O  O123  1  0.76355445  0.56262784  0.44143184  1  -1.180572  0  -0.332576  -0.596773  0  2.22894  0
O  O124  1  0.94143100  0.73237990  0.26355891  1  -1.172237  0  -0.332643  -0.59684  0  2.229147  0
O  O125  1  0.23237998  0.44143393  0.56262826  1  -1.175594  0  -0.332635  -0.596855  0  2.22904  0
O  O126  1  0.94142949  0.56262739  0.73238295  1  -1.175644  0  -0.332624  -0.596839  0  2.229029  0
O  O127  1  0.23237863  0.26355637  0.44143357  1  -1.172208  0  -0.33264  -0.596853  0  2.229021  0
O  O128  1  0.06262560  0.44142911  0.26356033  1  -1.180408  0  -0.332661  -0.596864  0  2.228977  0
O  O129  1  0.76355499  0.73237866  0.56263043  1  -1.171065  0  -0.332629  -0.596783  0  2.229051  0
O  O130  1  0.22379894  0.27129537  0.57509167  1  -1.17793  0  -0.375049  -0.631198  0  2.320365  0
O  O131  1  0.92980955  0.57508852  0.27129742  1  -1.19363  0  -0.374972  -0.631142  0  2.320293  0
O  O132  1  0.77129433  0.72380165  0.42981233  1  -1.178222  0  -0.375038  -0.631187  0  2.320311  0
O  O133  1  0.07508702  0.42980947  0.72380410  1  -1.182049  0  -0.374966  -0.631134  0  2.32027  0
O  O134  1  0.92981121  0.27129590  0.72380195  1  -1.178146  0  -0.374983  -0.63112  0  2.320372  0
O  O135  1  0.22380051  0.57508849  0.42981163  1  -1.182097  0  -0.375037  -0.631193  0  2.320307  0
O  O136  1  0.07508753  0.72380143  0.27129843  1  -1.178155  0  -0.374967  -0.631066  0  2.320197  0
O  O137  1  0.77129360  0.42981102  0.57509084  1  -1.193753  0  -0.374993  -0.631187  0  2.32029  0
O  O138  1  0.07508728  0.27129614  0.42981296  1  -1.193681  0  -0.374996  -0.631158  0  2.320159  0
O  O139  1  0.77129434  0.57508783  0.72380214  1  -1.178115  0  -0.375026  -0.631181  0  2.32028  0
O  O140  1  0.92980711  0.72380153  0.57509179  1  -1.181364  0  -0.374966  -0.63112  0  2.320264  0
O  O141  1  0.22379911  0.42981104  0.27129839  1  -1.177987  0  -0.375059  -0.631186  0  2.320405  0
O  O142  1  0.94138227  0.44138244  0.44138693  1  -1.232946  0  -0.695088  -1.071607  0  2.363921  0
O  O143  1  0.17584365  0.44138445  0.44138442  1  -1.226903  0  -0.695201  -1.071641  0  2.364115  0
O  O144  1  0.94138168  0.67584481  0.44138584  1  -1.227271  0  -0.695206  -1.071592  0  2.364154  0
O  O145  1  0.94138131  0.44138354  0.67584747  1  -1.226946  0  -0.695194  -1.071563  0  2.364257  0
O  O146  1  0.04316466  0.54316474  0.54316668  1  -1.196653  0  -0.792384  -1.152381  0  2.133823  0
O  O147  1  0.87049820  0.54316529  0.54316811  1  -1.194319  0  -0.792371  -1.1523  0  2.133739  0
O  O148  1  0.04316357  0.54316503  0.37050245  1  -1.194301  0  -0.792401  -1.152343  0  2.133703  0
O  O149  1  0.04316328  0.37049983  0.54316866  1  -1.194251  0  -0.792395  -1.152285  0  2.133576  0
