# generated using pymatgen
data_TlH3C7(NO3)2
_symmetry_space_group_name_H-M   'P 1'
_cell_length_a   4.94257595
_cell_length_b   10.51705283
_cell_length_c   17.86517557
_cell_angle_alpha   90.00036873
_cell_angle_beta   94.17000225
_cell_angle_gamma   89.99990534
_symmetry_Int_Tables_number   1
_chemical_formula_structural   TlH3C7(NO3)2
_chemical_formula_sum   'Tl4 H12 C28 N8 O24'
_cell_volume   926.19718662
_cell_formula_units_Z   4
loop_
 _symmetry_equiv_pos_site_id
 _symmetry_equiv_pos_as_xyz
  1  'x, y, z'
loop_
 _atom_site_type_symbol
 _atom_site_label
 _atom_site_symmetry_multiplicity
 _atom_site_fract_x
 _atom_site_fract_y
 _atom_site_fract_z
 _atom_site_occupancy
 _atom_site_hle17_bader_spin_density
 _atom_site_hle17_ddec_charge
 _atom_site_hle17_ddec_spin_density
 _atom_site_hle17_ddec_sum_bond_order
 _atom_site_hle17_magmom
 _atom_site_hse06_10hf_bader_spin_density
 _atom_site_hse06_10hf_ddec_charge
 _atom_site_hse06_10hf_ddec_spin_density
 _atom_site_hse06_10hf_ddec_sum_bond_order
 _atom_site_hse06_10hf_magmom
 _atom_site_hse06_bader_spin_density
 _atom_site_hse06_ddec_charge
 _atom_site_hse06_ddec_spin_density
 _atom_site_hse06_ddec_sum_bond_order
 _atom_site_hse06_magmom
 _atom_site_pbe_bader_spin_density
 _atom_site_pbe_cm5_charge
 _atom_site_pbe_ddec_charge
 _atom_site_pbe_ddec_spin_density
 _atom_site_pbe_ddec_sum_bond_order
 _atom_site_pbe_magmom
Tl  Tl0  1  0.96059641  0.17801374  0.93540047  1  0  0.824414  0  0.820333  0  0  0.709833  0  1.12543  0  0  0.742847  0  1.096376  0  0  0.386805  0.684259  0  1.148128  0
Tl  Tl1  1  0.53940694  0.67801697  0.56459867  1  0  0.824396  0  0.820338  0  0  0.709814  0  1.125431  0  0  0.742826  0  1.096388  0  0  0.386797  0.684241  0  1.148127  0
Tl  Tl2  1  0.03940797  0.82198157  0.06459832  1  0  0.824382  0  0.820367  0  0  0.709804  0  1.125456  0  0  0.742809  0  1.096419  0  0  0.386788  0.684224  0  1.14815  0
Tl  Tl3  1  0.46059136  0.32198594  0.43540056  1  0  0.824408  0  0.820354  0  0  0.709824  0  1.125466  0  0  0.74284  0  1.096413  0  0  0.386795  0.684248  0  1.148161  0
H  H4  1  0.07394143  0.91673457  0.80367805  1  0  0.141516  0  0.934475  0  0  0.143895  0  1.004111  0  0  0.148675  0  0.998946  0  0  0.123478  0.140475  0  1.007866  0
H  H5  1  0.42606129  0.41673541  0.69632304  1  0  0.141521  0  0.93448  0  0  0.1439  0  1.004113  0  0  0.148679  0  0.998949  0  0  0.123479  0.140483  0  1.007868  0
H  H6  1  0.92606296  0.08326644  0.19632130  1  0  0.141591  0  0.934461  0  0  0.143968  0  1.004071  0  0  0.148746  0  0.998906  0  0  0.1235  0.140547  0  1.007825  0
H  H7  1  0.57393904  0.58326655  0.30367791  1  0  0.141505  0  0.934498  0  0  0.143885  0  1.004127  0  0  0.148664  0  0.998964  0  0  0.123467  0.140465  0  1.007884  0
H  H8  1  0.05121679  0.50501184  0.80748130  1  0  0.152685  0  0.934774  0  0  0.154029  0  1.004722  0  0  0.159004  0  0.999479  0  0  0.128264  0.150439  0  1.008628  0
H  H9  1  0.44877886  0.00501262  0.69251641  1  0  0.152633  0  0.934841  0  0  0.154006  0  1.004764  0  0  0.158983  0  0.999517  0  0  0.128242  0.150417  0  1.008671  0
H  H10  1  0.94877948  0.49498917  0.19251733  1  0  0.152674  0  0.934755  0  0  0.153997  0  1.004729  0  0  0.158972  0  0.999487  0  0  0.128239  0.15041  0  1.008637  0
H  H11  1  0.55121336  0.99498839  0.30748325  1  0  0.152669  0  0.934758  0  0  0.15401  0  1.004718  0  0  0.158986  0  0.999475  0  0  0.128262  0.150423  0  1.008625  0
H  H12  1  0.66949377  0.70873196  0.94220724  1  0  0.108983  0  0.979328  0  0  0.112101  0  1.055183  0  0  0.11637  0  1.051149  0  0  0.113329  0.109076  0  1.058055  0
H  H13  1  0.83050545  0.20873326  0.55779306  1  0  0.109046  0  0.979277  0  0  0.112171  0  1.055123  0  0  0.11644  0  1.051088  0  0  0.113371  0.109147  0  1.057995  0
H  H14  1  0.33050453  0.29126525  0.05779255  1  0  0.108971  0  0.979313  0  0  0.112105  0  1.055167  0  0  0.116373  0  1.051134  0  0  0.113352  0.10908  0  1.058044  0
H  H15  1  0.16949488  0.79126870  0.44220677  1  0  0.109051  0  0.979279  0  0  0.112165  0  1.055136  0  0  0.116435  0  1.051101  0  0  0.113346  0.10914  0  1.058011  0
C  C16  1  0.52639082  0.94985827  0.90005391  1  0  0.645227  0  3.949562  0  0  0.59756  0  4.235536  0  0  0.632039  0  4.231019  0  0  0.202031  0.574268  0  4.236739  0
C  C17  1  0.97362198  0.44986087  0.59994588  1  0  0.645264  0  3.949362  0  0  0.59758  0  4.235381  0  0  0.632057  0  4.230868  0  0  0.202013  0.57429  0  4.236579  0
C  C18  1  0.47362371  0.05013893  0.09994507  1  0  0.645226  0  3.949392  0  0  0.597563  0  4.2354  0  0  0.632041  0  4.230885  0  0  0.202012  0.57427  0  4.236606  0
C  C19  1  0.02638241  0.55014299  0.40005459  1  0  0.645358  0  3.949328  0  0  0.597696  0  4.235299  0  0  0.632173  0  4.230785  0  0  0.202125  0.574404  0  4.236503  0
C  C20  1  0.38552724  0.82643579  0.87619917  1  0  -0.037905  0  3.693886  0  0  -0.010721  0  3.927712  0  0  -0.02136  0  3.951087  0  0  -0.002164  -0.004591  0  3.912896  0
C  C21  1  0.11447368  0.32643512  0.62380098  1  0  -0.037932  0  3.693901  0  0  -0.010757  0  3.927762  0  0  -0.021396  0  3.951137  0  0  -0.002168  -0.004633  0  3.912961  0
C  C22  1  0.61447715  0.17356237  0.12380130  1  0  -0.037994  0  3.69389  0  0  -0.010866  0  3.927821  0  0  -0.02151  0  3.9512  0  0  -0.002196  -0.004723  0  3.912989  0
C  C23  1  0.88552260  0.67356494  0.37620045  1  0  -0.038009  0  3.69396  0  0  -0.010834  0  3.927805  0  0  -0.021474  0  3.951181  0  0  -0.002192  -0.004698  0  3.912979  0
C  C24  1  0.15801914  0.82706885  0.82493084  1  0  -0.037944  0  3.600795  0  0  -0.083145  0  3.861647  0  0  -0.075987  0  3.873543  0  0  -0.046198  -0.087133  0  3.852585  0
C  C25  1  0.34198177  0.32706952  0.67506875  1  0  -0.037999  0  3.600828  0  0  -0.083191  0  3.861682  0  0  -0.076031  0  3.873573  0  0  -0.04624  -0.087182  0  3.852622  0
C  C26  1  0.84198728  0.17292931  0.17506967  1  0  -0.03803  0  3.600742  0  0  -0.083176  0  3.861571  0  0  -0.076008  0  3.873453  0  0  -0.046202  -0.087166  0  3.852515  0
C  C27  1  0.65801856  0.67293054  0.32493163  1  0  -0.037955  0  3.600766  0  0  -0.083137  0  3.861636  0  0  -0.075976  0  3.873523  0  0  -0.046218  -0.08713  0  3.852582  0
C  C28  1  0.04317132  0.71130630  0.80137561  1  0  0.090382  0  3.667606  0  0  0.078823  0  3.920966  0  0  0.078582  0  3.944802  0  0  0.088187  0.081911  0  3.906985  0
C  C29  1  0.45682786  0.21130619  0.69862407  1  0  0.090433  0  3.667633  0  0  0.078912  0  3.920978  0  0  0.078645  0  3.9448  0  0  0.088231  0.081999  0  3.907001  0
C  C30  1  0.95682698  0.28869471  0.19862362  1  0  0.090364  0  3.667675  0  0  0.078855  0  3.921047  0  0  0.078617  0  3.94488  0  0  0.088197  0.081941  0  3.907073  0
C  C31  1  0.54317045  0.78869387  0.30137628  1  0  0.090479  0  3.667489  0  0  0.078895  0  3.920896  0  0  0.078652  0  3.944732  0  0  0.088226  0.08198  0  3.906918  0
C  C32  1  0.14288260  0.59404446  0.82715061  1  0  -0.086805  0  3.626381  0  0  -0.129281  0  3.889668  0  0  -0.123334  0  3.901325  0  0  -0.053433  -0.132544  0  3.880781  0
C  C33  1  0.35711485  0.09404510  0.67284860  1  0  -0.086743  0  3.626508  0  0  -0.129293  0  3.889762  0  0  -0.123348  0  3.901417  0  0  -0.053406  -0.132559  0  3.880877  0
C  C34  1  0.85711571  0.40595465  0.17284918  1  0  -0.08676  0  3.626368  0  0  -0.129252  0  3.889661  0  0  -0.123304  0  3.901315  0  0  -0.053426  -0.13252  0  3.880779  0
C  C35  1  0.64288143  0.90595496  0.32715283  1  0  -0.086777  0  3.626496  0  0  -0.129302  0  3.889775  0  0  -0.123351  0  3.901416  0  0  -0.053458  -0.13257  0  3.880893  0
C  C36  1  0.36901641  0.59706261  0.87821047  1  0  0.075222  0  3.695593  0  0  0.073755  0  3.950671  0  0  0.068394  0  3.972518  0  0  0.081209  0.076999  0  3.935961  0
C  C37  1  0.13098104  0.09706191  0.62178931  1  0  0.075135  0  3.695688  0  0  0.073775  0  3.950654  0  0  0.068424  0  3.972482  0  0  0.081157  0.077021  0  3.935942  0
C  C38  1  0.63097784  0.40293555  0.12178980  1  0  0.075218  0  3.695501  0  0  0.073826  0  3.95052  0  0  0.068467  0  3.972364  0  0  0.081242  0.077069  0  3.935814  0
C  C39  1  0.86901321  0.90293815  0.37821152  1  0  0.075031  0  3.695888  0  0  0.073722  0  3.950769  0  0  0.068371  0  3.972599  0  0  0.081198  0.076966  0  3.936059  0
C  C40  1  0.49093106  0.71047470  0.90294291  1  0  -0.088781  0  3.697504  0  0  -0.131317  0  3.955126  0  0  -0.128061  0  3.974506  0  0  -0.061374  -0.132496  0  3.941658  0
C  C41  1  0.00906609  0.21047572  0.59705617  1  0  -0.088801  0  3.697478  0  0  -0.131374  0  3.955103  0  0  -0.128123  0  3.974484  0  0  -0.061402  -0.132552  0  3.941635  0
C  C42  1  0.50906724  0.28952156  0.09705688  1  0  -0.088745  0  3.697421  0  0  -0.131321  0  3.955096  0  0  -0.128067  0  3.974483  0  0  -0.061422  -0.132504  0  3.941637  0
C  C43  1  0.99093019  0.78952529  0.40294469  1  0  -0.088769  0  3.697543  0  0  -0.131352  0  3.955143  0  0  -0.128101  0  3.974522  0  0  -0.061374  -0.132533  0  3.94168  0
N  N44  1  0.80531646  0.71269868  0.74732779  1  0  0.46796  0  3.947647  0  0  0.529866  0  4.191225  0  0  0.53238  0  4.231369  0  0  0.062547  0.515497  0  4.184433  0
N  N45  1  0.69468274  0.21269841  0.75267196  1  0  0.467935  0  3.947775  0  0  0.529809  0  4.191384  0  0  0.532414  0  4.231407  0  0  0.062469  0.51544  0  4.184592  0
N  N46  1  0.19468184  0.28730042  0.25267144  1  0  0.468065  0  3.947675  0  0  0.529802  0  4.191428  0  0  0.532302  0  4.231607  0  0  0.06245  0.515434  0  4.184637  0
N  N47  1  0.30531354  0.78730069  0.24732834  1  0  0.467969  0  3.947711  0  0  0.529853  0  4.191314  0  0  0.532376  0  4.231461  0  0  0.062516  0.515485  0  4.184522  0
N  N48  1  0.49037100  0.47678377  0.90523702  1  0  0.514409  0  3.887461  0  0  0.540899  0  4.181579  0  0  0.563121  0  4.189516  0  0  0.060826  0.525861  0  4.176617  0
N  N49  1  0.00962344  0.97678545  0.59476190  1  0  0.514365  0  3.887614  0  0  0.540816  0  4.181742  0  0  0.563035  0  4.189675  0  0  0.060772  0.525777  0  4.176776  0
N  N50  1  0.50962325  0.52321439  0.09476269  1  0  0.514303  0  3.887638  0  0  0.540772  0  4.181765  0  0  0.562993  0  4.189701  0  0  0.06076  0.525733  0  4.1768  0
N  N51  1  0.99037080  0.02321556  0.40523781  1  0  0.51451  0  3.887493  0  0  0.540956  0  4.181603  0  0  0.563174  0  4.189539  0  0  0.060827  0.525916  0  4.176642  0
O  O52  1  0.75833202  0.93778465  0.93553690  1  0  -0.67292  0  1.991879  0  0  -0.600258  0  2.229007  0  0  -0.632517  0  2.224694  0  0  -0.312045  -0.575953  0  2.230459  0
O  O53  1  0.74168485  0.43778989  0.56446069  1  0  -0.672994  0  1.9917  0  0  -0.600351  0  2.228898  0  0  -0.632614  0  2.224593  0  0  -0.312077  -0.576044  0  2.230345  0
O  O54  1  0.24168453  0.06220875  0.06446045  1  0  -0.672973  0  1.991719  0  0  -0.600332  0  2.228904  0  0  -0.632595  0  2.224599  0  0  -0.312073  -0.576029  0  2.230358  0
O  O55  1  0.25832358  0.56221397  0.43553762  1  0  -0.67299  0  1.991744  0  0  -0.600335  0  2.228886  0  0  -0.632596  0  2.224576  0  0  -0.31208  -0.57603  0  2.230338  0
O  O56  1  0.41131605  0.05339319  0.88114312  1  0  -0.654324  0  1.946966  0  0  -0.597514  0  2.182156  0  0  -0.626384  0  2.175904  0  0  -0.320038  -0.576416  0  2.186712  0
O  O57  1  0.08869572  0.55339412  0.61885901  1  0  -0.65425  0  1.946883  0  0  -0.597436  0  2.182096  0  0  -0.626305  0  2.175845  0  0  -0.319978  -0.576336  0  2.186651  0
O  O58  1  0.58870052  0.94660592  0.11885759  1  0  -0.654233  0  1.946877  0  0  -0.597419  0  2.182078  0  0  -0.626286  0  2.175825  0  0  -0.319987  -0.576321  0  2.186634  0
O  O59  1  0.91131072  0.44660689  0.38114486  1  0  -0.654347  0  1.946892  0  0  -0.597545  0  2.1821  0  0  -0.626415  0  2.175849  0  0  -0.320103  -0.576449  0  2.186656  0
O  O60  1  0.73558235  0.81590237  0.71823496  1  0  -0.349875  0  1.811249  0  0  -0.343228  0  2.017799  0  0  -0.351226  0  2.025372  0  0  -0.112994  -0.33333  0  2.01956  0
O  O61  1  0.76441660  0.31590046  0.78176573  1  0  -0.349872  0  1.811294  0  0  -0.343224  0  2.017858  0  0  -0.351253  0  2.025387  0  0  -0.112992  -0.333327  0  2.01962  0
O  O62  1  0.26441596  0.18410149  0.28176538  1  0  -0.349836  0  1.811288  0  0  -0.343133  0  2.017897  0  0  -0.351125  0  2.025482  0  0  -0.112924  -0.333236  0  2.019658  0
O  O63  1  0.23558374  0.68409769  0.21823466  1  0  -0.349884  0  1.811321  0  0  -0.343217  0  2.017863  0  0  -0.351218  0  2.025436  0  0  -0.11298  -0.333324  0  2.019624  0
O  O64  1  0.68494096  0.61079463  0.73371101  1  0  -0.343848  0  1.819628  0  0  -0.332521  0  2.02398  0  0  -0.340538  0  2.031589  0  0  -0.107096  -0.322725  0  2.025468  0
O  O65  1  0.81505648  0.11079442  0.76628944  1  0  -0.343819  0  1.819684  0  0  -0.332488  0  2.024069  0  0  -0.340548  0  2.031658  0  0  -0.107022  -0.322684  0  2.025536  0
O  O66  1  0.31505937  0.38920828  0.26628938  1  0  -0.343956  0  1.819633  0  0  -0.332561  0  2.024036  0  0  -0.340581  0  2.031661  0  0  -0.107065  -0.322756  0  2.025504  0
O  O67  1  0.18493980  0.88920564  0.23371086  1  0  -0.343836  0  1.819617  0  0  -0.33251  0  2.023994  0  0  -0.340544  0  2.03163  0  0  -0.10706  -0.322708  0  2.025463  0
O  O68  1  0.36804751  0.37679468  0.88828265  1  0  -0.375296  0  1.815629  0  0  -0.357605  0  2.045348  0  0  -0.371966  0  2.043022  0  0  -0.108741  -0.348534  0  2.048942  0
O  O69  1  0.13195123  0.87679550  0.61171542  1  0  -0.375261  0  1.815502  0  0  -0.35757  0  2.045227  0  0  -0.37194  0  2.042929  0  0  -0.108716  -0.348504  0  2.048831  0
O  O70  1  0.63194876  0.62320537  0.11171654  1  0  -0.375271  0  1.815508  0  0  -0.357582  0  2.045236  0  0  -0.371939  0  2.04291  0  0  -0.108742  -0.348507  0  2.04882  0
O  O71  1  0.86804301  0.12320646  0.38828317  1  0  -0.375357  0  1.815457  0  0  -0.357677  0  2.04519  0  0  -0.372046  0  2.042891  0  0  -0.108788  -0.34861  0  2.048793  0
O  O72  1  0.71101918  0.48160749  0.94334409  1  0  -0.373088  0  1.767399  0  0  -0.355149  0  1.984416  0  0  -0.369998  0  1.984078  0  0  -0.12258  -0.34504  0  1.984548  0
O  O73  1  0.78897730  0.98160853  0.55665550  1  0  -0.373051  0  1.767658  0  0  -0.355095  0  1.984686  0  0  -0.369949  0  1.984369  0  0  -0.122517  -0.344984  0  1.984818  0
O  O74  1  0.28897709  0.51839067  0.05665622  1  0  -0.373008  0  1.767671  0  0  -0.355063  0  1.9847  0  0  -0.369924  0  1.98439  0  0  -0.122507  -0.344955  0  1.984832  0
O  O75  1  0.21101897  0.01839248  0.44334425  1  0  -0.373063  0  1.767522  0  0  -0.35511  0  1.984546  0  0  -0.369964  0  1.984226  0  0  -0.122529  -0.345002  0  1.98468  0
