# generated using pymatgen
data_ZnH10C6O7
_symmetry_space_group_name_H-M   'P 1'
_cell_length_a   7.41622781
_cell_length_b   9.78952987
_cell_length_c   13.68025428
_cell_angle_alpha   89.99971082
_cell_angle_beta   89.99980030
_cell_angle_gamma   107.99291883
_symmetry_Int_Tables_number   1
_chemical_formula_structural   ZnH10C6O7
_chemical_formula_sum   'Zn4 H40 C24 O28'
_cell_volume   944.63238214
_cell_formula_units_Z   4
loop_
 _symmetry_equiv_pos_site_id
 _symmetry_equiv_pos_as_xyz
  1  'x, y, z'
loop_
 _atom_site_type_symbol
 _atom_site_label
 _atom_site_symmetry_multiplicity
 _atom_site_fract_x
 _atom_site_fract_y
 _atom_site_fract_z
 _atom_site_occupancy
 _atom_site_hle17_bader_spin_density
 _atom_site_hle17_ddec_charge
 _atom_site_hle17_ddec_spin_density
 _atom_site_hle17_ddec_sum_bond_order
 _atom_site_hle17_magmom
 _atom_site_hse06_10hf_bader_spin_density
 _atom_site_hse06_10hf_ddec_charge
 _atom_site_hse06_10hf_ddec_spin_density
 _atom_site_hse06_10hf_ddec_sum_bond_order
 _atom_site_hse06_10hf_magmom
 _atom_site_hse06_bader_spin_density
 _atom_site_hse06_ddec_charge
 _atom_site_hse06_ddec_spin_density
 _atom_site_hse06_ddec_sum_bond_order
 _atom_site_hse06_magmom
 _atom_site_pbe_bader_spin_density
 _atom_site_pbe_cm5_charge
 _atom_site_pbe_ddec_charge
 _atom_site_pbe_ddec_spin_density
 _atom_site_pbe_ddec_sum_bond_order
 _atom_site_pbe_magmom
Zn  Zn0  1  0.07893179  0.27742443  0.81508226  1  0  1.181866  0  1.715957  0  0  1.023241  0  2.165846  0  0  1.069886  0  2.10612  0  0  0.67419  0.990175  0  2.206966  0
Zn  Zn1  1  0.92106485  0.22257466  0.31508137  1  0  1.18178  0  1.716104  0  0  1.023196  0  2.166001  0  0  1.069845  0  2.106274  0  0  0.674153  0.990133  0  2.207127  0
Zn  Zn2  1  0.92106860  0.72257407  0.18491847  1  0  1.181902  0  1.715991  0  0  1.0233  0  2.165893  0  0  1.069945  0  2.106162  0  0  0.674177  0.990234  0  2.207019  0
Zn  Zn3  1  0.07893192  0.77742490  0.68491937  1  0  1.181858  0  1.716043  0  0  1.023273  0  2.165944  0  0  1.06992  0  2.106217  0  0  0.674145  0.990208  0  2.207068  0
H  H4  1  0.61335038  0.73537390  0.89118996  1  0  0.088523  0  0.954598  0  0  0.099233  0  1.024535  0  0  0.102201  0  1.021222  0  0  0.088743  0.096873  0  1.02736  0
H  H5  1  0.38664297  0.76462406  0.39118626  1  0  0.088475  0  0.954586  0  0  0.099171  0  1.024547  0  0  0.102138  0  1.021235  0  0  0.088746  0.096825  0  1.027361  0
H  H6  1  0.38664861  0.26462782  0.10880931  1  0  0.088498  0  0.954599  0  0  0.099208  0  1.024538  0  0  0.102177  0  1.021224  0  0  0.088726  0.096846  0  1.027362  0
H  H7  1  0.61335428  0.23537335  0.60881155  1  0  0.088459  0  0.954607  0  0  0.099167  0  1.024549  0  0  0.102136  0  1.021237  0  0  0.088726  0.096811  0  1.02737  0
H  H8  1  0.50180494  0.84622346  0.95843570  1  0  0.095542  0  0.952074  0  0  0.10949  0  1.017222  0  0  0.111335  0  1.01654  0  0  0.096856  0.108077  0  1.017803  0
H  H9  1  0.49818819  0.65377168  0.45843144  1  0  0.095398  0  0.952145  0  0  0.10938  0  1.017277  0  0  0.111222  0  1.016593  0  0  0.096841  0.107969  0  1.017864  0
H  H10  1  0.49819410  0.15377503  0.04156576  1  0  0.095525  0  0.952118  0  0  0.109488  0  1.017247  0  0  0.11133  0  1.016567  0  0  0.096866  0.108074  0  1.017826  0
H  H11  1  0.50181220  0.34622682  0.54156564  1  0  0.095469  0  0.952145  0  0  0.109425  0  1.01729  0  0  0.111268  0  1.01661  0  0  0.096842  0.108013  0  1.017875  0
H  H12  1  0.34441229  0.30545742  0.95084772  1  0  0.414652  0  0.832367  0  0  0.399976  0  0.883437  0  0  0.407684  0  0.874919  0  0  0.318642  0.394409  0  0.889722  0
H  H13  1  0.65558879  0.19453818  0.45084814  1  0  0.414667  0  0.83237  0  0  0.399957  0  0.883499  0  0  0.407667  0  0.874981  0  0  0.318617  0.39439  0  0.889785  0
H  H14  1  0.65559128  0.69453894  0.04914863  1  0  0.414635  0  0.832297  0  0  0.399942  0  0.883407  0  0  0.407651  0  0.874891  0  0  0.318602  0.394375  0  0.889691  0
H  H15  1  0.34441512  0.80546569  0.54915113  1  0  0.414662  0  0.832358  0  0  0.399956  0  0.883481  0  0  0.407666  0  0.874965  0  0  0.318624  0.39439  0  0.889766  0
H  H16  1  0.26905268  0.13791150  0.92850931  1  0  0.42501  0  0.885818  0  0  0.388492  0  0.959086  0  0  0.399974  0  0.942672  0  0  0.289483  0.380351  0  0.970711  0
H  H17  1  0.73093967  0.36208216  0.42850683  1  0  0.425012  0  0.885799  0  0  0.388478  0  0.959067  0  0  0.399954  0  0.942666  0  0  0.289498  0.380344  0  0.970681  0
H  H18  1  0.73094370  0.86208377  0.07149216  1  0  0.424994  0  0.885858  0  0  0.388453  0  0.959132  0  0  0.399931  0  0.942728  0  0  0.289473  0.38032  0  0.970744  0
H  H19  1  0.26906289  0.63792171  0.57149171  1  0  0.425018  0  0.885792  0  0  0.388462  0  0.959092  0  0  0.399939  0  0.942689  0  0  0.289471  0.380326  0  0.970709  0
H  H20  1  0.49688601  0.80866071  0.73598961  1  0  0.048195  0  0.939192  0  0  0.061447  0  0.995052  0  0  0.061407  0  0.99552  0  0  0.10684  0.06134  0  0.994969  0
H  H21  1  0.50311483  0.69133989  0.23598521  1  0  0.048134  0  0.939192  0  0  0.061379  0  0.99507  0  0  0.061338  0  0.995538  0  0  0.106814  0.061268  0  0.994988  0
H  H22  1  0.50311698  0.19134423  0.26401112  1  0  0.048093  0  0.939246  0  0  0.061355  0  0.995098  0  0  0.061313  0  0.995569  0  0  0.106822  0.061249  0  0.995014  0
H  H23  1  0.49688242  0.30865753  0.76401187  1  0  0.048144  0  0.939202  0  0  0.061404  0  0.995057  0  0  0.061361  0  0.995528  0  0  0.106823  0.061296  0  0.994969  0
H  H24  1  0.14022322  0.51028141  0.93469289  1  0  0.418826  0  0.821703  0  0  0.40527  0  0.870963  0  0  0.413761  0  0.861178  0  0  0.322212  0.399028  0  0.878373  0
H  H25  1  0.85978303  0.98972581  0.43468975  1  0  0.418873  0  0.821579  0  0  0.405305  0  0.870872  0  0  0.413798  0  0.86108  0  0  0.322238  0.399062  0  0.878287  0
H  H26  1  0.85978382  0.48972354  0.06530564  1  0  0.418799  0  0.821753  0  0  0.405245  0  0.871013  0  0  0.413734  0  0.861233  0  0  0.322229  0.399002  0  0.878423  0
H  H27  1  0.14021558  0.01027161  0.56530952  1  0  0.418858  0  0.821594  0  0  0.405293  0  0.870884  0  0  0.413786  0  0.861093  0  0  0.322242  0.399049  0  0.8783  0
H  H28  1  0.14398861  0.54171543  0.82146102  1  0  0.430902  0  0.87426  0  0  0.395649  0  0.944513  0  0  0.407931  0  0.926628  0  0  0.293095  0.386987  0  0.957099  0
H  H29  1  0.85601137  0.95828110  0.32145945  1  0  0.430845  0  0.874327  0  0  0.395591  0  0.944583  0  0  0.407871  0  0.926702  0  0  0.293078  0.386931  0  0.957166  0
H  H30  1  0.85601000  0.45828199  0.17853678  1  0  0.43093  0  0.874214  0  0  0.395634  0  0.944517  0  0  0.407911  0  0.926641  0  0  0.293095  0.386978  0  0.957092  0
H  H31  1  0.14398675  0.04171847  0.67854055  1  0  0.430851  0  0.874317  0  0  0.395595  0  0.944574  0  0  0.407874  0  0.926694  0  0  0.29308  0.386936  0  0.957155  0
H  H32  1  0.52229358  0.08922068  0.84502240  1  0  0.109655  0  0.939798  0  0  0.124742  0  1.001772  0  0  0.127096  0  1.000717  0  0  0.100091  0.122919  0  1.002927  0
H  H33  1  0.47770544  0.41077812  0.34501877  1  0  0.109675  0  0.939797  0  0  0.124761  0  1.001783  0  0  0.127114  0  1.00073  0  0  0.100107  0.122938  0  1.00294  0
H  H34  1  0.47771167  0.91078320  0.15497979  1  0  0.109711  0  0.93973  0  0  0.124766  0  1.001746  0  0  0.127121  0  1.00069  0  0  0.100129  0.122944  0  1.002903  0
H  H35  1  0.52229316  0.58921930  0.65497831  1  0  0.10974  0  0.939731  0  0  0.124793  0  1.001758  0  0  0.127148  0  1.000703  0  0  0.100125  0.122969  0  1.002917  0
H  H36  1  0.64108546  0.07698545  0.73337746  1  0  0.105618  0  0.944632  0  0  0.118556  0  1.007426  0  0  0.121025  0  1.006005  0  0  0.09418  0.116598  0  1.008818  0
H  H37  1  0.35891746  0.42301448  0.23337254  1  0  0.105587  0  0.944617  0  0  0.11855  0  1.0074  0  0  0.121019  0  1.005979  0  0  0.094194  0.116593  0  1.008791  0
H  H38  1  0.35892072  0.92301736  0.26662620  1  0  0.105576  0  0.944642  0  0  0.11851  0  1.007451  0  0  0.120979  0  1.00603  0  0  0.094147  0.116553  0  1.008845  0
H  H39  1  0.64108023  0.57698401  0.76662527  1  0  0.105546  0  0.944684  0  0  0.118519  0  1.007459  0  0  0.120988  0  1.006037  0  0  0.094151  0.116562  0  1.008849  0
H  H40  1  0.23006650  0.87494977  0.86592301  1  0  0.390228  0  0.899698  0  0  0.359698  0  0.977243  0  0  0.370995  0  0.964833  0  0  0.297815  0.3517  0  0.986011  0
H  H41  1  0.76992756  0.62504952  0.36592053  1  0  0.39027  0  0.899652  0  0  0.359752  0  0.977179  0  0  0.37105  0  0.964766  0  0  0.297858  0.351754  0  0.985948  0
H  H42  1  0.76992984  0.12504872  0.13407919  1  0  0.390235  0  0.899728  0  0  0.359712  0  0.977256  0  0  0.37101  0  0.964844  0  0  0.297834  0.351714  0  0.986024  0
H  H43  1  0.23006921  0.37495004  0.63407874  1  0  0.390269  0  0.899669  0  0  0.359743  0  0.977203  0  0  0.37104  0  0.964794  0  0  0.297838  0.351746  0  0.985971  0
C  C44  1  0.89008508  0.95462078  0.80119539  1  0  0.692901  0  3.791618  0  0  0.63286  0  4.09323  0  0  0.66778  0  4.086269  0  0  0.229048  0.609067  0  4.097155  0
C  C45  1  0.10991676  0.54538669  0.30119148  1  0  0.692966  0  3.791686  0  0  0.632923  0  4.093322  0  0  0.667845  0  4.086359  0  0  0.229076  0.609129  0  4.097247  0
C  C46  1  0.10992110  0.04538203  0.19880680  1  0  0.692917  0  3.79154  0  0  0.632898  0  4.093168  0  0  0.667823  0  4.086201  0  0  0.229072  0.609104  0  4.097098  0
C  C47  1  0.89007780  0.45461072  0.69880340  1  0  0.693006  0  3.791411  0  0  0.632984  0  4.093025  0  0  0.667911  0  4.086057  0  0  0.229132  0.609188  0  4.096953  0
C  C48  1  0.81699067  0.07876600  0.95283081  1  0  0.6906  0  3.807809  0  0  0.628542  0  4.121434  0  0  0.663299  0  4.113074  0  0  0.220538  0.604837  0  4.126465  0
C  C49  1  0.18300354  0.42123600  0.45282842  1  0  0.690728  0  3.807687  0  0  0.628621  0  4.121408  0  0  0.66338  0  4.113048  0  0  0.22058  0.604914  0  4.126441  0
C  C50  1  0.18302292  0.92125184  0.04716480  1  0  0.690876  0  3.807519  0  0  0.628757  0  4.121256  0  0  0.663518  0  4.112891  0  0  0.22067  0.60505  0  4.12629  0
C  C51  1  0.81698355  0.57874959  0.54716207  1  0  0.690696  0  3.80771  0  0  0.628617  0  4.121398  0  0  0.663378  0  4.113035  0  0  0.220572  0.604909  0  4.126433  0
C  C52  1  0.73542708  0.97626593  0.86771181  1  0  -0.149218  0  3.557105  0  0  -0.114023  0  3.785394  0  0  -0.125056  0  3.799769  0  0  -0.017841  -0.106596  0  3.775481  0
C  C53  1  0.26457057  0.52373228  0.36770987  1  0  -0.149259  0  3.557041  0  0  -0.114099  0  3.785472  0  0  -0.125145  0  3.79987  0  0  -0.017803  -0.106672  0  3.775565  0
C  C54  1  0.26457504  0.02373686  0.13229112  1  0  -0.149152  0  3.557073  0  0  -0.11396  0  3.78542  0  0  -0.125002  0  3.799812  0  0  -0.017774  -0.106531  0  3.775501  0
C  C55  1  0.73542938  0.47626515  0.63228866  1  0  -0.149129  0  3.557037  0  0  -0.113954  0  3.785402  0  0  -0.124993  0  3.799786  0  0  -0.017784  -0.106521  0  3.775486  0
C  C56  1  0.57547951  0.83513116  0.89082872  1  0  -0.221096  0  3.613871  0  0  -0.280268  0  3.872196  0  0  -0.280768  0  3.881067  0  0  -0.174899  -0.279539  0  3.866018  0
C  C57  1  0.42451250  0.66486680  0.39082456  1  0  -0.220882  0  3.613737  0  0  -0.280053  0  3.872105  0  0  -0.28055  0  3.880983  0  0  -0.174916  -0.279338  0  3.865917  0
C  C58  1  0.42451904  0.16486948  0.10917055  1  0  -0.22113  0  3.613909  0  0  -0.280292  0  3.872221  0  0  -0.28079  0  3.881093  0  0  -0.174901  -0.279558  0  3.866033  0
C  C59  1  0.57548384  0.33513169  0.60917252  1  0  -0.221002  0  3.613882  0  0  -0.280145  0  3.872185  0  0  -0.28064  0  3.881051  0  0  -0.174894  -0.279416  0  3.865992  0
C  C60  1  0.46743841  0.86343363  0.80086334  1  0  0.271326  0  3.56314  0  0  0.251874  0  3.814821  0  0  0.259034  0  3.825226  0  0  -0.007144  0.24697  0  3.807509  0
C  C61  1  0.53255774  0.63656309  0.30085907  1  0  0.271374  0  3.563251  0  0  0.251949  0  3.814905  0  0  0.259115  0  3.825306  0  0  -0.007108  0.247049  0  3.807606  0
C  C62  1  0.53256279  0.13657023  0.19913812  1  0  0.27149  0  3.563007  0  0  0.252029  0  3.814692  0  0  0.259195  0  3.825095  0  0  -0.007105  0.247118  0  3.807399  0
C  C63  1  0.46743995  0.36343540  0.69913874  1  0  0.271385  0  3.563167  0  0  0.251929  0  3.81486  0  0  0.259094  0  3.825263  0  0  -0.007111  0.247029  0  3.807546  0
C  C64  1  0.58895359  0.02287186  0.80249546  1  0  -0.203965  0  3.505828  0  0  -0.257285  0  3.754362  0  0  -0.258939  0  3.763994  0  0  -0.161077  -0.255792  0  3.747827  0
C  C65  1  0.41105080  0.47712952  0.30249027  1  0  -0.203957  0  3.505821  0  0  -0.257286  0  3.754402  0  0  -0.25894  0  3.76404  0  0  -0.161097  -0.255795  0  3.747871  0
C  C66  1  0.41105075  0.97713309  0.19750819  1  0  -0.204012  0  3.505816  0  0  -0.257269  0  3.754321  0  0  -0.258926  0  3.763962  0  0  -0.161081  -0.255776  0  3.747792  0
C  C67  1  0.58894510  0.52286789  0.69750754  1  0  -0.203945  0  3.505778  0  0  -0.257266  0  3.754326  0  0  -0.258922  0  3.763961  0  0  -0.16105  -0.255773  0  3.747792  0
O  O68  1  0.90132765  0.21056313  0.93557645  1  0  -0.66308  0  2.009266  0  0  -0.608608  0  2.273843  0  0  -0.633905  0  2.257289  0  0  -0.336094  -0.591174  0  2.284995  0
O  O69  1  0.09865464  0.28943579  0.43557904  1  0  -0.663152  0  2.009076  0  0  -0.608648  0  2.273668  0  0  -0.633946  0  2.257116  0  0  -0.336125  -0.591215  0  2.284822  0
O  O70  1  0.09867423  0.78942571  0.06443013  1  0  -0.663536  0  2.008635  0  0  -0.609036  0  2.27325  0  0  -0.634341  0  2.256691  0  0  -0.336313  -0.591596  0  2.284405  0
O  O71  1  0.90134193  0.71057664  0.56442534  1  0  -0.663438  0  2.008685  0  0  -0.608946  0  2.273262  0  0  -0.634253  0  2.256709  0  0  -0.336233  -0.591503  0  2.284415  0
O  O72  1  0.78861838  0.02770508  0.03930551  1  0  -0.62566  0  2.036287  0  0  -0.55772  0  2.259901  0  0  -0.58475  0  2.251016  0  0  -0.303006  -0.538756  0  2.265589  0
O  O73  1  0.21138751  0.47229572  0.53930331  1  0  -0.625689  0  2.036267  0  0  -0.557734  0  2.259922  0  0  -0.584757  0  2.251029  0  0  -0.303018  -0.538766  0  2.265613  0
O  O74  1  0.21137617  0.97229233  0.96070472  1  0  -0.62547  0  2.036766  0  0  -0.55752  0  2.260439  0  0  -0.584547  0  2.251548  0  0  -0.302904  -0.538554  0  2.266132  0
O  O75  1  0.78861996  0.52771031  0.46070254  1  0  -0.625442  0  2.036746  0  0  -0.557505  0  2.260392  0  0  -0.584525  0  2.2515  0  0  -0.302922  -0.538545  0  2.266086  0
O  O76  1  0.01575398  0.06696515  0.76838398  1  0  -0.665505  0  2.136587  0  0  -0.586434  0  2.388808  0  0  -0.616378  0  2.37559  0  0  -0.309946  -0.565471  0  2.397178  0
O  O77  1  0.98423694  0.43302903  0.26838299  1  0  -0.665625  0  2.136263  0  0  -0.586585  0  2.388566  0  0  -0.616541  0  2.375367  0  0  -0.310078  -0.565623  0  2.396938  0
O  O78  1  0.98424375  0.93303013  0.23161602  1  0  -0.665535  0  2.136422  0  0  -0.586513  0  2.38869  0  0  -0.616457  0  2.375464  0  0  -0.310025  -0.565552  0  2.397067  0
O  O79  1  0.01576162  0.56697161  0.73161701  1  0  -0.665636  0  2.136008  0  0  -0.586663  0  2.388341  0  0  -0.616627  0  2.375143  0  0  -0.310116  -0.565695  0  2.396716  0
O  O80  1  0.88292517  0.82841335  0.77737807  1  0  -0.61449  0  2.037005  0  0  -0.550557  0  2.298098  0  0  -0.57739  0  2.285346  0  0  -0.297317  -0.531901  0  2.306378  0
O  O81  1  0.11707123  0.67158360  0.27737518  1  0  -0.614458  0  2.037429  0  0  -0.550487  0  2.298517  0  0  -0.577314  0  2.285759  0  0  -0.297246  -0.53183  0  2.306794  0
O  O82  1  0.11708370  0.17158946  0.22263070  1  0  -0.614466  0  2.036991  0  0  -0.550597  0  2.298144  0  0  -0.57743  0  2.285386  0  0  -0.297322  -0.531934  0  2.306413  0
O  O83  1  0.88293051  0.32841490  0.72262262  1  0  -0.614502  0  2.037334  0  0  -0.550535  0  2.298412  0  0  -0.577365  0  2.285651  0  0  -0.297289  -0.531888  0  2.30671  0
O  O84  1  0.30550131  0.23680615  0.89773044  1  0  -0.814811  0  1.926395  0  0  -0.763187  0  2.132323  0  0  -0.784347  0  2.103873  0  0  -0.564921  -0.748217  0  2.152189  0
O  O85  1  0.69448911  0.26318888  0.39772909  1  0  -0.814807  0  1.926405  0  0  -0.763136  0  2.132424  0  0  -0.784297  0  2.103977  0  0  -0.564881  -0.748159  0  2.152268  0
O  O86  1  0.69450130  0.76319450  0.10226956  1  0  -0.814796  0  1.926383  0  0  -0.763116  0  2.132375  0  0  -0.784278  0  2.103927  0  0  -0.564894  -0.748142  0  2.152223  0
O  O87  1  0.30550588  0.73680960  0.60227018  1  0  -0.814829  0  1.926396  0  0  -0.76312  0  2.132399  0  0  -0.784282  0  2.103951  0  0  -0.5649  -0.748149  0  2.152258  0
O  O88  1  0.19706128  0.49197856  0.87396228  1  0  -0.809209  0  1.848967  0  0  -0.753736  0  2.036316  0  0  -0.774104  0  2.005021  0  0  -0.566806  -0.739286  0  2.058235  0
O  O89  1  0.80293787  0.00802102  0.37396013  1  0  -0.809208  0  1.848948  0  0  -0.753721  0  2.036268  0  0  -0.77409  0  2.004977  0  0  -0.566807  -0.739274  0  2.058187  0
O  O90  1  0.80294090  0.50802102  0.12603407  1  0  -0.809199  0  1.848933  0  0  -0.753689  0  2.036353  0  0  -0.774056  0  2.005066  0  0  -0.566826  -0.739246  0  2.058266  0
O  O91  1  0.19705981  0.99197747  0.62603987  1  0  -0.809189  0  1.848955  0  0  -0.753713  0  2.036282  0  0  -0.774082  0  2.004993  0  0  -0.566814  -0.739266  0  2.058201  0
O  O92  1  0.26664170  0.82795415  0.80677722  1  0  -0.596801  0  2.171989  0  0  -0.527261  0  2.417779  0  0  -0.547769  0  2.402864  0  0  -0.392664  -0.512619  0  2.42777  0
O  O93  1  0.73335347  0.67204358  0.30677465  1  0  -0.596836  0  2.172023  0  0  -0.527308  0  2.417795  0  0  -0.547821  0  2.402883  0  0  -0.392682  -0.512669  0  2.42779  0
O  O94  1  0.73336182  0.17204543  0.19322278  1  0  -0.596804  0  2.171902  0  0  -0.527268  0  2.417694  0  0  -0.54778  0  2.402778  0  0  -0.392715  -0.512627  0  2.427691  0
O  O95  1  0.26664239  0.32795705  0.69322243  1  0  -0.596847  0  2.171914  0  0  -0.527298  0  2.417693  0  0  -0.547809  0  2.402778  0  0  -0.392695  -0.512658  0  2.427684  0
