# generated using pymatgen
data_InH20C9SNO
_symmetry_space_group_name_H-M   'P 1'
_cell_length_a   7.85289550
_cell_length_b   8.32688647
_cell_length_c   18.15390000
_cell_angle_alpha   95.38246414
_cell_angle_beta   90.00000000
_cell_angle_gamma   90.00000000
_symmetry_Int_Tables_number   1
_chemical_formula_structural   InH20C9SNO
_chemical_formula_sum   'In4 H80 C36 S4 N4 O4'
_cell_volume   1181.85239751
_cell_formula_units_Z   4
loop_
 _symmetry_equiv_pos_site_id
 _symmetry_equiv_pos_as_xyz
  1  'x, y, z'
loop_
 _atom_site_type_symbol
 _atom_site_label
 _atom_site_symmetry_multiplicity
 _atom_site_fract_x
 _atom_site_fract_y
 _atom_site_fract_z
 _atom_site_occupancy
 _atom_site_hle17_bader_spin_density
 _atom_site_hle17_ddec_charge
 _atom_site_hle17_ddec_spin_density
 _atom_site_hle17_ddec_sum_bond_order
 _atom_site_hle17_magmom
 _atom_site_hse06_10hf_bader_spin_density
 _atom_site_hse06_10hf_ddec_charge
 _atom_site_hse06_10hf_ddec_spin_density
 _atom_site_hse06_10hf_ddec_sum_bond_order
 _atom_site_hse06_10hf_magmom
 _atom_site_hse06_bader_spin_density
 _atom_site_hse06_ddec_charge
 _atom_site_hse06_ddec_spin_density
 _atom_site_hse06_ddec_sum_bond_order
 _atom_site_hse06_magmom
 _atom_site_pbe_bader_charge
 _atom_site_pbe_bader_spin_density
 _atom_site_pbe_cm5_charge
 _atom_site_pbe_ddec_charge
 _atom_site_pbe_ddec_spin_density
 _atom_site_pbe_ddec_sum_bond_order
 _atom_site_pbe_magmom
In  In0  1  0.07248919  0.94974037  0.78381530  1  0  1.069415  0  2.206531  0  0  0.922154  0  2.63813  0  0  0.963158  0  2.616166  0  1.25084  0  0.429334  0.894431  0  2.653305  0
In  In1  1  0.42751365  0.94973796  0.28381795  1  0  1.069398  0  2.206443  0  0  0.922115  0  2.638071  0  0  0.963125  0  2.616076  0  1.250794  0  0.429341  0.894388  0  2.653257  0
In  In2  1  0.92750757  0.05025590  0.21618410  1  0  1.069406  0  2.20644  0  0  0.922092  0  2.638101  0  0  0.963117  0  2.616104  0  1.250615  0  0.429354  0.894359  0  2.653297  0
In  In3  1  0.57248438  0.05026073  0.71618265  1  0  1.069439  0  2.206555  0  0  0.922176  0  2.638144  0  0  0.963173  0  2.616172  0  1.250796  0  0.429373  0.894433  0  2.653358  0
H  H4  1  0.97144932  0.65457155  0.81961125  1  0  0.088681  0  1.022063  0  0  0.106073  0  1.083908  0  0  0.107439  0  1.086912  0  -0.002466  0  0.074983  0.105909  0  1.080658  0
H  H5  1  0.52855027  0.65457517  0.31961471  1  0  0.088692  0  1.021993  0  0  0.106064  0  1.083852  0  0  0.107436  0  1.086843  0  -0.002524  0  0.074978  0.105894  0  1.080616  0
H  H6  1  0.02852706  0.34541507  0.18038388  1  0  0.08861  0  1.022066  0  0  0.106082  0  1.083823  0  0  0.107471  0  1.086799  0  -0.002675  0  0.074989  0.105904  0  1.080611  0
H  H7  1  0.47144776  0.34542472  0.68038650  1  0  0.088685  0  1.022041  0  0  0.106063  0  1.083892  0  0  0.107434  0  1.086885  0  -0.002518  0  0.074987  0.105899  0  1.080645  0
H  H8  1  0.83644816  0.72189224  0.75153902  1  0  0.093721  0  1.026375  0  0  0.108513  0  1.08978  0  0  0.109501  0  1.093839  0  0.015969  0  0.075727  0.107522  0  1.088434  0
H  H9  1  0.66354888  0.72189344  0.25153907  1  0  0.093728  0  1.026378  0  0  0.108516  0  1.089785  0  0  0.1095  0  1.09385  0  0.016002  0  0.075724  0.107527  0  1.088436  0
H  H10  1  0.16354859  0.27810524  0.24845602  1  0  0.093656  0  1.02639  0  0  0.108462  0  1.089797  0  0  0.109447  0  1.093862  0  0.016687  0  0.075708  0.107476  0  1.088445  0
H  H11  1  0.33644533  0.27810766  0.74846274  1  0  0.093688  0  1.026348  0  0  0.108474  0  1.08977  0  0  0.10946  0  1.093832  0  0.015977  0  0.075689  0.107483  0  1.088422  0
H  H12  1  0.00455628  0.47817711  0.69731464  1  0  0.085198  0  0.964367  0  0  0.107894  0  1.027301  0  0  0.108111  0  1.028467  0  -0.013793  0  0.079941  0.107938  0  1.025891  0
H  H13  1  0.49543636  0.47817470  0.19731840  1  0  0.085169  0  0.964393  0  0  0.107853  0  1.027364  0  0  0.10807  0  1.028532  0  -0.013659  0  0.079953  0.107904  0  1.025944  0
H  H14  1  0.99543665  0.52182640  0.30268231  1  0  0.085162  0  0.964325  0  0  0.107837  0  1.027315  0  0  0.108054  0  1.028482  0  -0.013706  0  0.07993  0.107885  0  1.025898  0
H  H15  1  0.50456676  0.52182640  0.80268341  1  0  0.085168  0  0.964396  0  0  0.107832  0  1.027392  0  0  0.10805  0  1.028558  0  -0.013645  0  0.079935  0.107883  0  1.025972  0
H  H16  1  0.19769905  0.57848627  0.72182842  1  0  0.087946  0  0.960509  0  0  0.113081  0  1.019326  0  0  0.113765  0  1.020082  0  0.004843  0  0.083837  0.112233  0  1.019354  0
H  H17  1  0.30229359  0.57848385  0.22183383  1  0  0.087866  0  0.960521  0  0  0.113068  0  1.01928  0  0  0.113754  0  1.020033  0  0.004701  0  0.083843  0.112221  0  1.019308  0
H  H18  1  0.80228879  0.42151725  0.27816688  1  0  0.087855  0  0.960606  0  0  0.113068  0  1.019352  0  0  0.113758  0  1.020102  0  0.004685  0  0.083847  0.112222  0  1.019378  0
H  H19  1  0.69770953  0.42151363  0.77816617  1  0  0.087906  0  0.960537  0  0  0.113092  0  1.019312  0  0  0.11378  0  1.020063  0  0.00468  0  0.083844  0.112245  0  1.01934  0
H  H20  1  0.06546757  0.65188162  0.65381761  1  0  0.070772  0  0.981839  0  0  0.089772  0  1.053928  0  0  0.09045  0  1.054454  0  0.011712  0  0.072964  0.088674  0  1.054363  0
H  H21  1  0.43452253  0.65187800  0.15382186  1  0  0.070822  0  0.981836  0  0  0.089842  0  1.053889  0  0  0.090523  0  1.054417  0  0.011851  0  0.07302  0.088744  0  1.054326  0
H  H22  1  0.93451517  0.34811707  0.34618189  1  0  0.070809  0  0.981769  0  0  0.089795  0  1.053883  0  0  0.09047  0  1.054416  0  0.011768  0  0.072979  0.088696  0  1.05432  0
H  H23  1  0.56548059  0.34811707  0.84617914  1  0  0.070864  0  0.98178  0  0  0.089853  0  1.053872  0  0  0.090534  0  1.054401  0  0.011819  0  0.073001  0.088754  0  1.054308  0
H  H24  1  0.06851740  0.11445964  0.91917459  1  0  0.085382  0  1.018705  0  0  0.103728  0  1.078469  0  0  0.105103  0  1.081367  0  -0.002659  0  0.073175  0.10277  0  1.07654  0
H  H25  1  0.43148161  0.11445844  0.41917233  1  0  0.085296  0  1.018742  0  0  0.10365  0  1.0785  0  0  0.105015  0  1.081408  0  -0.002613  0  0.073114  0.102692  0  1.07657  0
H  H26  1  0.93148699  0.88554749  0.08083134  1  0  0.085297  0  1.018728  0  0  0.103632  0  1.078509  0  0  0.104996  0  1.081418  0  -0.002575  0  0.073114  0.102679  0  1.076576  0
H  H27  1  0.56850877  0.88554145  0.58082667  1  0  0.085282  0  1.018812  0  0  0.10364  0  1.07855  0  0  0.105006  0  1.081458  0  -0.002672  0  0.073144  0.102685  0  1.076618  0
H  H28  1  0.25534531  0.16277952  0.87129189  1  0  0.099285  0  0.998161  0  0  0.117349  0  1.054175  0  0  0.118821  0  1.057319  0  0.009396  0  0.078566  0.116346  0  1.052295  0
H  H29  1  0.24465243  0.16277831  0.37129073  1  0  0.09934  0  0.998243  0  0  0.117402  0  1.054229  0  0  0.118872  0  1.057372  0  0.009369  0  0.078616  0.116399  0  1.05235  0
H  H30  1  0.74465654  0.83721314  0.12870901  1  0  0.099215  0  0.998196  0  0  0.117297  0  1.054204  0  0  0.118766  0  1.05735  0  0.009417  0  0.078555  0.116292  0  1.052329  0
H  H31  1  0.75533668  0.83721676  0.62870806  1  0  0.099223  0  0.998166  0  0  0.117282  0  1.054206  0  0  0.118754  0  1.05735  0  0.009509  0  0.078556  0.11628  0  1.052325  0
H  H32  1  0.06115069  0.40867071  0.89545108  1  0  0.067339  0  0.973453  0  0  0.091984  0  1.037747  0  0  0.092202  0  1.038505  0  0.00983  0  0.073316  0.091722  0  1.035761  0
H  H33  1  0.43884450  0.40867071  0.39544943  1  0  0.06739  0  0.973424  0  0  0.092033  0  1.037726  0  0  0.092253  0  1.038483  0  0.009876  0  0.073325  0.091772  0  1.035739  0
H  H34  1  0.93885752  0.59132798  0.10454732  1  0  0.067374  0  0.973357  0  0  0.092007  0  1.037686  0  0  0.09223  0  1.038439  0  0.009792  0  0.073331  0.091743  0  1.035702  0
H  H35  1  0.56114461  0.59132677  0.60454616  1  0  0.067293  0  0.973458  0  0  0.091972  0  1.037736  0  0  0.092197  0  1.038483  0  0.009787  0  0.073308  0.091707  0  1.035753  0
H  H36  1  0.89677495  0.30312644  0.84489722  1  0  0.087011  0  0.973596  0  0  0.110772  0  1.036156  0  0  0.111144  0  1.037377  0  0.031191  0  0.081592  0.110483  0  1.035213  0
H  H37  1  0.60322081  0.30312885  0.34489512  1  0  0.087072  0  0.973563  0  0  0.110837  0  1.036114  0  0  0.11121  0  1.03734  0  0.031244  0  0.081594  0.110539  0  1.035197  0
H  H38  1  0.10323199  0.69687345  0.15510233  1  0  0.086926  0  0.973697  0  0  0.110719  0  1.036224  0  0  0.11109  0  1.037453  0  0.031121  0  0.081601  0.110428  0  1.035287  0
H  H39  1  0.39676448  0.69686742  0.65510318  1  0  0.086937  0  0.973663  0  0  0.11073  0  1.036207  0  0  0.111099  0  1.037434  0  0.031081  0  0.081598  0.110438  0  1.035272  0
H  H40  1  0.08447075  0.35458256  0.79931484  1  0  0.088985  0  0.97231  0  0  0.114019  0  1.03149  0  0  0.11447  0  1.032858  0  0.041114  0  0.083943  0.114087  0  1.030116  0
H  H41  1  0.41552317  0.35458135  0.29931368  1  0  0.088948  0  0.972299  0  0  0.114031  0  1.031422  0  0  0.114481  0  1.032794  0  0.041074  0  0.083976  0.1141  0  1.030049  0
H  H42  1  0.91553873  0.64541010  0.20068275  1  0  0.088976  0  0.972399  0  0  0.11403  0  1.031561  0  0  0.114475  0  1.032939  0  0.041131  0  0.083937  0.114108  0  1.030175  0
H  H43  1  0.58446595  0.64541251  0.70068286  1  0  0.088974  0  0.972327  0  0  0.114021  0  1.031502  0  0  0.114452  0  1.032894  0  0.041156  0  0.083939  0.114101  0  1.030115  0
H  H44  1  0.99757472  0.21462404  0.47801636  1  0  0.055467  0  0.945748  0  0  0.069954  0  1.016047  0  0  0.070685  0  1.015547  0  0.068323  0  0.098989  0.069052  0  1.01734  0
H  H45  1  0.50242232  0.21460957  0.97801463  1  0  0.055522  0  0.945709  0  0  0.069935  0  1.016126  0  0  0.0707  0  1.015592  0  0.068478  0  0.098967  0.068995  0  1.017454  0
H  H46  1  0.00243095  0.78538550  0.52198747  1  0  0.055467  0  0.94569  0  0  0.069928  0  1.016057  0  0  0.070668  0  1.015549  0  0.068351  0  0.098982  0.068987  0  1.017376  0
H  H47  1  0.49757188  0.78538550  0.02198692  1  0  0.055556  0  0.945708  0  0  0.070027  0  1.016067  0  0  0.070759  0  1.015563  0  0.068363  0  0.099023  0.069091  0  1.017391  0
H  H48  1  0.14468039  0.09598234  0.52249219  1  0  0.071851  0  0.946782  0  0  0.089684  0  1.007425  0  0  0.090015  0  1.008086  0  0.082825  0  0.102426  0.089043  0  1.00759  0
H  H49  1  0.35531862  0.09597631  0.02249469  1  0  0.071741  0  0.946893  0  0  0.089628  0  1.007482  0  0  0.089946  0  1.008166  0  0.082854  0  0.102414  0.089024  0  1.007598  0
H  H50  1  0.85532400  0.90401996  0.47751022  1  0  0.071818  0  0.946768  0  0  0.089632  0  1.007476  0  0  0.089983  0  1.008113  0  0.082726  0  0.102363  0.088958  0  1.007674  0
H  H51  1  0.64468068  0.90402358  0.97751368  1  0  0.071724  0  0.946793  0  0  0.089606  0  1.007447  0  0  0.089931  0  1.008117  0  0.082724  0  0.102378  0.08898  0  1.007592  0
H  H52  1  0.27865900  0.35466579  0.49303822  1  0  0.10266  0  0.975283  0  0  0.126661  0  1.034253  0  0  0.127451  0  1.035182  0  0.018798  0  0.090181  0.126176  0  1.03338  0
H  H53  1  0.22134511  0.35465976  0.99303686  1  0  0.102624  0  0.975325  0  0  0.126673  0  1.034234  0  0  0.127467  0  1.035157  0  0.018812  0  0.090182  0.126188  0  1.033362  0
H  H54  1  0.72134921  0.64533410  0.50696574  1  0  0.102644  0  0.975233  0  0  0.126671  0  1.034183  0  0  0.127465  0  1.035104  0  0.018783  0  0.090183  0.126186  0  1.033308  0
H  H55  1  0.77865547  0.64533652  0.00696694  1  0  0.102594  0  0.975327  0  0  0.126652  0  1.034242  0  0  0.127445  0  1.035166  0  0.018709  0  0.090164  0.126166  0  1.033369  0
H  H56  1  0.27112802  0.34341753  0.59056019  1  0  0.107364  0  0.962438  0  0  0.127742  0  1.025952  0  0  0.128887  0  1.02675  0  0.050838  0  0.09058  0.127107  0  1.025058  0
H  H57  1  0.22887354  0.34341270  0.09055999  1  0  0.107401  0  0.962398  0  0  0.127747  0  1.025962  0  0  0.128891  0  1.026762  0  0.050922  0  0.090579  0.127112  0  1.025067  0
H  H58  1  0.72888147  0.65658116  0.40944206  1  0  0.107419  0  0.962348  0  0  0.127791  0  1.025874  0  0  0.128931  0  1.026678  0  0.051006  0  0.090626  0.127155  0  1.024981  0
H  H59  1  0.77112321  0.65658598  0.90944503  1  0  0.107399  0  0.962387  0  0  0.127766  0  1.025941  0  0  0.128911  0  1.026739  0  0.051014  0  0.090583  0.12713  0  1.025049  0
H  H60  1  0.12457189  0.46762003  0.54770514  1  0  0.094852  0  0.966617  0  0  0.117781  0  1.027546  0  0  0.118823  0  1.028042  0  0.02318  0  0.086849  0.116895  0  1.027816  0
H  H61  1  0.37543477  0.46761400  0.04770377  1  0  0.094813  0  0.966632  0  0  0.117739  0  1.027559  0  0  0.11878  0  1.028055  0  0.023293  0  0.086831  0.116857  0  1.027827  0
H  H62  1  0.87544269  0.53238227  0.45229838  1  0  0.09487  0  0.966602  0  0  0.117791  0  1.027551  0  0  0.118832  0  1.028046  0  0.023267  0  0.086852  0.116903  0  1.027823  0
H  H63  1  0.62456326  0.53238468  0.95230013  1  0  0.094804  0  0.966662  0  0  0.11777  0  1.027541  0  0  0.118812  0  1.028037  0  0.023377  0  0.086851  0.116885  0  1.027812  0
H  H64  1  0.84783250  0.42554129  0.57562215  1  0  0.056357  0  0.939446  0  0  0.075592  0  1.001528  0  0  0.075478  0  1.002446  0  0.056031  0  0.10481  0.075535  0  1.001048  0
H  H65  1  0.65216836  0.42553405  0.07561853  1  0  0.056244  0  0.939511  0  0  0.075545  0  1.001528  0  0  0.075431  0  1.002448  0  0.056302  0  0.104819  0.075487  0  1.001049  0
H  H66  1  0.15216935  0.57445860  0.42437741  1  0  0.056349  0  0.93935  0  0  0.075603  0  1.001414  0  0  0.075492  0  1.002335  0  0.056105  0  0.104809  0.075546  0  1.000934  0
H  H67  1  0.34783476  0.57446584  0.92437662  1  0  0.056302  0  0.939501  0  0  0.075576  0  1.001551  0  0  0.075461  0  1.00247  0  0.056104  0  0.104818  0.075519  0  1.001071  0
H  H68  1  0.75367360  0.32415616  0.64624988  1  0  0.069242  0  0.963256  0  0  0.084974  0  1.028556  0  0  0.085692  0  1.028496  0  0.079964  0  0.111784  0.084494  0  1.028198  0
H  H69  1  0.74632344  0.32415375  0.14624868  1  0  0.069216  0  0.963174  0  0  0.08495  0  1.028491  0  0  0.085665  0  1.028441  0  0.07996  0  0.111757  0.08448  0  1.028112  0
H  H70  1  0.24631806  0.67585096  0.35374723  1  0  0.069284  0  0.963244  0  0  0.085004  0  1.028532  0  0  0.085724  0  1.028479  0  0.079836  0  0.111809  0.084531  0  1.02816  0
H  H71  1  0.25368604  0.67585338  0.85374788  1  0  0.069182  0  0.96319  0  0  0.084918  0  1.028521  0  0  0.085637  0  1.028461  0  0.079895  0  0.111763  0.084438  0  1.028165  0
H  H72  1  0.56245114  0.33026219  0.53485285  1  0  0.099272  0  0.969904  0  0  0.121647  0  1.032398  0  0  0.122659  0  1.032982  0  0.048149  0  0.090168  0.121067  0  1.031532  0
H  H73  1  0.93755100  0.33025254  0.03485133  1  0  0.099159  0  0.970001  0  0  0.121645  0  1.032393  0  0  0.122656  0  1.032977  0  0.04821  0  0.090157  0.121065  0  1.031529  0
H  H74  1  0.43755835  0.66974253  0.46514085  1  0  0.09917  0  0.969911  0  0  0.121639  0  1.032334  0  0  0.122652  0  1.032914  0  0.048326  0  0.090155  0.121059  0  1.031472  0
H  H75  1  0.06245212  0.66973891  0.96514345  1  0  0.099258  0  0.969898  0  0  0.121669  0  1.032362  0  0  0.122681  0  1.032944  0  0.048146  0  0.090156  0.121088  0  1.0315  0
H  H76  1  0.61259952  0.12871267  0.55116457  1  0  0.09398  0  0.972467  0  0  0.115241  0  1.038054  0  0  0.116189  0  1.038466  0  0.043859  0  0.088522  0.114405  0  1.037992  0
H  H77  1  0.88740007  0.12870784  0.05116546  1  0  0.09397  0  0.972462  0  0  0.11528  0  1.038006  0  0  0.116228  0  1.038417  0  0.043749  0  0.08852  0.114444  0  1.037948  0
H  H78  1  0.38740997  0.87128964  0.44882738  1  0  0.093911  0  0.97247  0  0  0.115223  0  1.038025  0  0  0.116171  0  1.038429  0  0.043641  0  0.088529  0.114383  0  1.037979  0
H  H79  1  0.11259414  0.87128723  0.94883223  1  0  0.094013  0  0.972442  0  0  0.115308  0  1.03799  0  0  0.11626  0  1.038393  0  0.043763  0  0.088537  0.114467  0  1.037943  0
H  H80  1  0.71576274  0.22033080  0.47874333  1  0  0.102366  0  0.973915  0  0  0.120635  0  1.041793  0  0  0.122238  0  1.041698  0  0.016762  0  0.083883  0.119377  0  1.042491  0
H  H81  1  0.78424067  0.22031995  0.97874452  1  0  0.102387  0  0.973919  0  0  0.120678  0  1.041788  0  0  0.122268  0  1.041707  0  0.016804  0  0.083901  0.11943  0  1.042477  0
H  H82  1  0.28425311  0.77967753  0.52125052  1  0  0.102401  0  0.973941  0  0  0.12069  0  1.041793  0  0  0.122276  0  1.041716  0  0.01694  0  0.083973  0.119455  0  1.042472  0
H  H83  1  0.21575481  0.77967271  0.02125362  1  0  0.102372  0  0.973939  0  0  0.120649  0  1.041805  0  0  0.122235  0  1.041729  0  0.016814  0  0.083916  0.119408  0  1.042489  0
C  C84  1  0.98529390  0.11615201  0.64864053  1  0  0.499956  0  3.885217  0  0  0.445842  0  4.194403  0  0  0.478305  0  4.193847  0  1.214544  0  0.229199  0.424485  0  4.193195  0
C  C85  1  0.51470824  0.11614718  0.14864033  1  0  0.500034  0  3.885149  0  0  0.445926  0  4.194318  0  0  0.478389  0  4.193759  0  1.214826  0  0.229278  0.424568  0  4.193114  0
C  C86  1  0.01470922  0.88385633  0.35136324  1  0  0.499905  0  3.885016  0  0  0.445774  0  4.194219  0  0  0.478229  0  4.193668  0  1.214867  0  0.229207  0.42442  0  4.193011  0
C  C87  1  0.48530507  0.88385150  0.85136358  1  0  0.500012  0  3.88501  0  0  0.44588  0  4.194219  0  0  0.478338  0  4.193664  0  1.214752  0  0.229161  0.424527  0  4.19301  0
C  C88  1  0.97070947  0.70588653  0.76601019  1  0  -0.487368  0  3.692486  0  0  -0.485432  0  3.956702  0  0  -0.500778  0  3.977507  0  -0.318629  0  -0.274124  -0.476855  0  3.944247  0
C  C89  1  0.52929139  0.70588412  0.26601229  1  0  -0.487377  0  3.69231  0  0  -0.485429  0  3.956572  0  0  -0.500777  0  3.977383  0  -0.318646  0  -0.274123  -0.476855  0  3.944119  0
C  C90  1  0.02927837  0.29410491  0.23398680  1  0  -0.48723  0  3.692287  0  0  -0.485358  0  3.956489  0  0  -0.500727  0  3.97729  0  -0.319031  0  -0.274108  -0.476777  0  3.944005  0
C  C91  1  0.47071427  0.29411215  0.73398766  1  0  -0.487333  0  3.692344  0  0  -0.485369  0  3.956556  0  0  -0.500712  0  3.977358  0  -0.318573  0  -0.274097  -0.476795  0  3.944097  0
C  C92  1  0.06408082  0.59804316  0.70689586  1  0  -0.226095  0  3.809734  0  0  -0.299895  0  4.055475  0  0  -0.299778  0  4.070646  0  -0.011392  0  -0.255882  -0.29964  0  4.045865  0
C  C93  1  0.43591310  0.59803954  0.20689901  1  0  -0.226022  0  3.809647  0  0  -0.299903  0  4.055409  0  0  -0.299794  0  4.070583  0  -0.011482  0  -0.255932  -0.299652  0  4.0458  0
C  C94  1  0.93590702  0.40195673  0.29310094  1  0  -0.226026  0  3.809548  0  0  -0.299871  0  4.055324  0  0  -0.299759  0  4.07051  0  -0.011405  0  -0.255885  -0.299618  0  4.045719  0
C  C95  1  0.56409002  0.40196035  0.79310055  1  0  -0.226123  0  3.8096  0  0  -0.299944  0  4.055367  0  0  -0.299835  0  4.070538  0  -0.011482  0  -0.255901  -0.299693  0  4.045758  0
C  C96  1  0.11605401  0.15296066  0.86663066  1  0  -0.476362  0  3.664591  0  0  -0.473408  0  3.927401  0  0  -0.488779  0  3.947711  0  -0.311596  0  -0.272025  -0.463577  0  3.914011  0
C  C97  1  0.38394246  0.15296066  0.36662956  1  0  -0.476246  0  3.664569  0  0  -0.473293  0  3.927389  0  0  -0.488653  0  3.947709  0  -0.311614  0  -0.271976  -0.463461  0  3.913999  0
C  C98  1  0.88394656  0.84704044  0.13337225  1  0  -0.476089  0  3.664464  0  0  -0.473126  0  3.927264  0  0  -0.488488  0  3.947592  0  -0.311744  0  -0.271916  -0.4633  0  3.913869  0
C  C99  1  0.61604538  0.84704165  0.63337065  1  0  -0.476135  0  3.664494  0  0  -0.473183  0  3.927341  0  0  -0.488539  0  3.947645  0  -0.311753  0  -0.271967  -0.463353  0  3.913945  0
C  C100  1  0.03556777  0.31246762  0.85075196  1  0  -0.220327  0  3.797038  0  0  -0.29499  0  4.038541  0  0  -0.294946  0  4.054406  0  -0.08768  0  -0.255059  -0.294279  0  4.02619  0
C  C101  1  0.46442869  0.31246762  0.35075030  1  0  -0.220474  0  3.796915  0  0  -0.295184  0  4.038451  0  0  -0.295137  0  4.054302  0  -0.087717  0  -0.255131  -0.294477  0  4.026096  0
C  C102  1  0.96443917  0.68753227  0.14924815  1  0  -0.220316  0  3.797062  0  0  -0.295041  0  4.038621  0  0  -0.29499  0  4.054466  0  -0.087527  0  -0.255104  -0.294336  0  4.026266  0
C  C103  1  0.53556042  0.68752865  0.64924744  1  0  -0.220281  0  3.797029  0  0  -0.295016  0  4.038541  0  0  -0.29497  0  4.054426  0  -0.08749  0  -0.255085  -0.294311  0  4.026186  0
C  C104  1  0.07277188  0.20930449  0.52887567  1  0  0.053249  0  3.660268  0  0  -0.005098  0  3.923972  0  0  4e-05  0  3.936094  0  0.265096  0  -0.065683  -0.008523  0  3.916301  0
C  C105  1  0.42722840  0.20929605  0.02887531  1  0  0.053201  0  3.660399  0  0  -0.005165  0  3.924165  0  0  -4.9e-05  0  3.936287  0  0.264776  0  -0.065739  -0.008579  0  3.91649  0
C  C106  1  0.92723506  0.79069902  0.47112734  1  0  0.053296  0  3.660336  0  0  -0.0051  0  3.924118  0  0  2e-05  0  3.936238  0  0.265257  0  -0.065694  -0.008462  0  3.916429  0
C  C107  1  0.57276962  0.79070384  0.97112975  1  0  0.053309  0  3.66005  0  0  -0.005167  0  3.923966  0  0  -2.6e-05  0  3.936086  0  0.264895  0  -0.065709  -0.008572  0  3.916287  0
C  C108  1  0.19358337  0.35252591  0.54085487  1  0  -0.313228  0  3.685821  0  0  -0.390514  0  3.927844  0  0  -0.393397  0  3.938049  0  -0.051009  0  -0.245464  -0.38825  0  3.920756  0
C  C109  1  0.30641946  0.35251987  0.04085406  1  0  -0.31313  0  3.685752  0  0  -0.390414  0  3.927773  0  0  -0.393298  0  3.937985  0  -0.051108  0  -0.245396  -0.388157  0  3.920679  0
C  C110  1  0.80642739  0.64747519  0.45914915  1  0  -0.313265  0  3.685804  0  0  -0.390531  0  3.92781  0  0  -0.393413  0  3.938023  0  -0.051383  0  -0.245469  -0.388264  0  3.920696  0
C  C111  1  0.69357984  0.64747761  0.95915090  1  0  -0.313148  0  3.685784  0  0  -0.390455  0  3.927832  0  0  -0.393336  0  3.938034  0  -0.051161  0  -0.245428  -0.388194  0  3.920733  0
C  C112  1  0.80361569  0.30690803  0.58975996  1  0  0.045222  0  3.669989  0  0  -0.013277  0  3.933153  0  0  -0.00801  0  3.944986  0  0.294455  0  -0.062489  -0.016203  0  3.924365  0
C  C113  1  0.69638645  0.30690320  0.08975755  1  0  0.045388  0  3.669895  0  0  -0.013169  0  3.93315  0  0  -0.007904  0  3.944983  0  0.294199  0  -0.062499  -0.01609  0  3.924362  0
C  C114  1  0.19638998  0.69309910  0.41023880  1  0  0.045113  0  3.670094  0  0  -0.013382  0  3.93328  0  0  -0.008135  0  3.945141  0  0.294563  0  -0.062523  -0.016306  0  3.924497  0
C  C115  1  0.30361795  0.69309669  0.91024035  1  0  0.045418  0  3.669838  0  0  -0.013146  0  3.933105  0  0  -0.007879  0  3.944937  0  0.294546  0  -0.0625  -0.01607  0  3.924318  0
C  C116  1  0.66643826  0.24233759  0.53541266  1  0  -0.315435  0  3.699498  0  0  -0.393139  0  3.945614  0  0  -0.396045  0  3.955843  0  -0.085133  0  -0.245704  -0.391248  0  3.938833  0
C  C117  1  0.83356387  0.24232794  0.03541335  1  0  -0.315399  0  3.699553  0  0  -0.393262  0  3.94569  0  0  -0.396158  0  3.955929  0  -0.085133  0  -0.245699  -0.391383  0  3.938902  0
C  C118  1  0.33357250  0.75766834  0.46458109  1  0  -0.315303  0  3.699502  0  0  -0.393129  0  3.945641  0  0  -0.396016  0  3.955888  0  -0.085357  0  -0.245797  -0.391265  0  3.938843  0
C  C119  1  0.16643542  0.75766472  0.96458314  1  0  -0.315525  0  3.699467  0  0  -0.393261  0  3.94559  0  0  -0.396157  0  3.955831  0  -0.085134  0  -0.245742  -0.391391  0  3.938796  0
S  S120  1  0.17102099  0.00128224  0.64968638  1  0  -0.495467  0  2.020002  0  0  -0.458202  0  2.361131  0  0  -0.474362  0  2.351575  0  -0.359912  0  -0.141054  -0.446107  0  2.367868  0
S  S121  1  0.32898311  0.00127139  0.14968426  1  0  -0.495477  0  2.020004  0  0  -0.45821  0  2.361123  0  0  -0.47437  0  2.351562  0  -0.359923  0  -0.141099  -0.446122  0  2.367867  0
S  S122  1  0.82897958  0.99872730  0.35032075  1  0  -0.495518  0  2.019925  0  0  -0.458217  0  2.361027  0  0  -0.474387  0  2.35148  0  -0.359732  0  -0.141116  -0.446116  0  2.367762  0
S  S123  1  0.67102765  0.99872489  0.85031734  1  0  -0.495491  0  2.020119  0  0  -0.458186  0  2.361198  0  0  -0.474347  0  2.351644  0  -0.359869  0  -0.141074  -0.446094  0  2.367936  0
N  N124  1  0.95288547  0.20132516  0.59027225  1  0  -0.215363  0  3.382984  0  0  -0.121895  0  3.618433  0  0  -0.142813  0  3.640044  0  -1.186326  0  -0.27822  -0.108172  0  3.603529  0
N  N125  1  0.54711794  0.20132154  0.09026769  1  0  -0.215381  0  3.38294  0  0  -0.121909  0  3.618412  0  0  -0.142823  0  3.640026  0  -1.186067  0  -0.278185  -0.10819  0  3.60351  0
N  N126  1  0.04712020  0.79867714  0.40973346  1  0  -0.215298  0  3.382912  0  0  -0.121765  0  3.618302  0  0  -0.142677  0  3.639928  0  -1.186109  0  -0.278103  -0.108045  0  3.603376  0
N  N127  1  0.45288645  0.79868197  0.90973147  1  0  -0.215442  0  3.382871  0  0  -0.121927  0  3.618366  0  0  -0.142841  0  3.639973  0  -1.186355  0  -0.278106  -0.108204  0  3.603455  0
O  O128  1  0.88184034  0.11815076  0.70338201  1  0  -0.625906  0  2.0935  0  0  -0.545253  0  2.342512  0  0  -0.571732  0  2.335821  0  -1.207105  0  -0.289076  -0.526889  0  2.345076  0
O  O129  1  0.61815798  0.11814955  0.20337920  1  0  -0.625911  0  2.093544  0  0  -0.545246  0  2.342553  0  0  -0.571729  0  2.335866  0  -1.207617  0  -0.289109  -0.526885  0  2.345119  0
O  O130  1  0.11815514  0.88185999  0.29662242  1  0  -0.625881  0  2.093596  0  0  -0.545214  0  2.342602  0  0  -0.571677  0  2.3359  0  -1.207632  0  -0.289103  -0.526859  0  2.345171  0
O  O131  1  0.38184769  0.88185154  0.79661985  1  0  -0.62596  0  2.093074  0  0  -0.545302  0  2.342085  0  0  -0.571769  0  2.335387  0  -1.207279  0  -0.289121  -0.526948  0  2.344657  0
