# generated using pymatgen
data_H4PbC10(NO)4
_symmetry_space_group_name_H-M   'P 1'
_cell_length_a   3.96132203
_cell_length_b   9.03883037
_cell_length_c   14.49523845
_cell_angle_alpha   90.00086521
_cell_angle_beta   90.00118884
_cell_angle_gamma   90.00004408
_symmetry_Int_Tables_number   1
_chemical_formula_structural   H4PbC10(NO)4
_chemical_formula_sum   'H8 Pb2 C20 N8 O8'
_cell_volume   519.01241752
_cell_formula_units_Z   2
loop_
 _symmetry_equiv_pos_site_id
 _symmetry_equiv_pos_as_xyz
  1  'x, y, z'
loop_
 _atom_site_type_symbol
 _atom_site_label
 _atom_site_symmetry_multiplicity
 _atom_site_fract_x
 _atom_site_fract_y
 _atom_site_fract_z
 _atom_site_occupancy
 _atom_site_hle17_bader_spin_density
 _atom_site_hle17_ddec_charge
 _atom_site_hle17_ddec_spin_density
 _atom_site_hle17_ddec_sum_bond_order
 _atom_site_hle17_magmom
 _atom_site_hse06_10hf_bader_spin_density
 _atom_site_hse06_10hf_ddec_charge
 _atom_site_hse06_10hf_ddec_spin_density
 _atom_site_hse06_10hf_ddec_sum_bond_order
 _atom_site_hse06_10hf_magmom
 _atom_site_hse06_bader_spin_density
 _atom_site_hse06_ddec_charge
 _atom_site_hse06_ddec_spin_density
 _atom_site_hse06_ddec_sum_bond_order
 _atom_site_hse06_magmom
 _atom_site_pbe_bader_spin_density
 _atom_site_pbe_cm5_charge
 _atom_site_pbe_ddec_charge
 _atom_site_pbe_ddec_spin_density
 _atom_site_pbe_ddec_sum_bond_order
 _atom_site_pbe_magmom
H  H0  1  0.55549729  0.89056924  0.78390595  1  0  0.107611  0  0.944635  0  0  0.105645  0  1.022792  0  0  0.109707  0  1.018286  0  0  0.121955  0.102298  0  1.026833  0
H  H1  1  0.44440724  0.39054504  0.71609423  1  0  0.10764  0  0.944593  0  0  0.105758  0  1.022671  0  0  0.109824  0  1.018169  0  0  0.121978  0.102401  0  1.026722  0
H  H2  1  0.44449362  0.39058656  0.28391921  1  0  0.107774  0  0.944552  0  0  0.10572  0  1.022793  0  0  0.109785  0  1.018288  0  0  0.121924  0.102361  0  1.026849  0
H  H3  1  0.55557151  0.89057886  0.21606983  1  0  0.10773  0  0.944706  0  0  0.105773  0  1.02279  0  0  0.109837  0  1.018293  0  0  0.122024  0.102417  0  1.02684  0
H  H4  1  0.15846125  0.30230852  0.92370200  1  0  0.100629  0  0.941632  0  0  0.106159  0  1.006561  0  0  0.109728  0  1.004463  0  0  0.119567  0.103726  0  1.007785  0
H  H5  1  0.84172756  0.80241125  0.57631022  1  0  0.100673  0  0.941906  0  0  0.1063  0  1.006719  0  0  0.10987  0  1.004623  0  0  0.119602  0.103863  0  1.007953  0
H  H6  1  0.84154317  0.80235724  0.42369735  1  0  0.100773  0  0.941977  0  0  0.106381  0  1.006807  0  0  0.109952  0  1.00471  0  0  0.119699  0.103944  0  1.008038  0
H  H7  1  0.15832407  0.30235393  0.07628097  1  0  0.100697  0  0.941622  0  0  0.106271  0  1.006488  0  0  0.109842  0  1.004391  0  0  0.119613  0.103833  0  1.007719  0
Pb  Pb8  1  0.66985569  0.72223159  0.00000722  1  0  1.281885  0  1.544227  0  0  1.098428  0  1.938475  0  0  1.1592  0  1.896094  0  0  0.636746  1.054354  0  1.967106  0
Pb  Pb9  1  0.33016418  0.22223872  0.49999433  1  0  1.282129  0  1.544059  0  0  1.098756  0  1.938275  0  0  1.159494  0  1.895909  0  0  0.636778  1.054702  0  1.966901  0
C  C10  1  0.68196161  0.98343137  0.81666976  1  0  0.118132  0  3.644271  0  0  0.075652  0  3.909282  0  0  0.082453  0  3.923222  0  0  0.072816  0.070855  0  3.901002  0
C  C11  1  0.31794874  0.48343150  0.68332261  1  0  0.11812  0  3.643213  0  0  0.075465  0  3.908455  0  0  0.082245  0  3.922429  0  0  0.072804  0.070682  0  3.90016  0
C  C12  1  0.31798179  0.48344085  0.31669739  1  0  0.118042  0  3.642653  0  0  0.07573  0  3.907475  0  0  0.082536  0  3.921419  0  0  0.072985  0.070932  0  3.899195  0
C  C13  1  0.68205886  0.98343002  0.18331212  1  0  0.118238  0  3.644299  0  0  0.075746  0  3.909323  0  0  0.082517  0  3.923304  0  0  0.072901  0.070958  0  3.901032  0
C  C14  1  0.79933488  0.10284240  0.76393854  1  0  0.059739  0  3.692375  0  0  0.070243  0  3.943248  0  0  0.066528  0  3.959839  0  0  0.125935  0.071727  0  3.932752  0
C  C15  1  0.20071165  0.60291203  0.73606075  1  0  0.059662  0  3.691672  0  0  0.070201  0  3.942655  0  0  0.066487  0  3.959264  0  0  0.125743  0.07168  0  3.93215  0
C  C16  1  0.20066036  0.60292927  0.26396227  1  0  0.059581  0  3.692422  0  0  0.070056  0  3.943291  0  0  0.066325  0  3.959903  0  0  0.125769  0.071547  0  3.932781  0
C  C17  1  0.79934986  0.10285529  0.23604243  1  0  0.059406  0  3.692826  0  0  0.070007  0  3.943661  0  0  0.066291  0  3.960262  0  0  0.125848  0.071488  0  3.933163  0
C  C18  1  0.87215532  0.09790270  0.94901260  1  0  0.134503  0  3.745579  0  0  0.128573  0  3.997324  0  0  0.133296  0  4.01747  0  0  0.12705  0.125425  0  3.983695  0
C  C19  1  0.12795455  0.59796993  0.55098728  1  0  0.134339  0  3.745584  0  0  0.128215  0  3.997532  0  0  0.132936  0  4.017674  0  0  0.126738  0.125068  0  3.983901  0
C  C20  1  0.12795111  0.59794905  0.44902414  1  0  0.134366  0  3.746306  0  0  0.12841  0  3.998125  0  0  0.133127  0  4.018274  0  0  0.126993  0.125259  0  3.984495  0
C  C21  1  0.87211741  0.09791830  0.05096873  1  0  0.134185  0  3.745713  0  0  0.128035  0  3.997642  0  0  0.132761  0  4.017786  0  0  0.126789  0.124886  0  3.984011  0
C  C22  1  0.01293519  0.21096641  0.89436480  1  0  0.054355  0  3.637066  0  0  0.026048  0  3.898486  0  0  0.025931  0  3.914747  0  0  0.060315  0.025625  0  3.888504  0
C  C23  1  0.98716442  0.71103725  0.60563043  1  0  0.054287  0  3.637159  0  0  0.025889  0  3.898698  0  0  0.025771  0  3.914951  0  0  0.060326  0.025468  0  3.88872  0
C  C24  1  0.98705883  0.71101541  0.39439486  1  0  0.054343  0  3.636568  0  0  0.025893  0  3.898124  0  0  0.025774  0  3.914379  0  0  0.060341  0.025474  0  3.88814  0
C  C25  1  0.01287320  0.21098629  0.10561544  1  0  0.054314  0  3.637081  0  0  0.026068  0  3.898488  0  0  0.025952  0  3.914737  0  0  0.06042  0.025646  0  3.888509  0
C  C26  1  0.71025748  0.11103233  0.66287481  1  0  0.614342  0  3.928249  0  0  0.560765  0  4.221399  0  0  0.59514  0  4.216037  0  0  0.211389  0.537956  0  4.222942  0
C  C27  1  0.28984422  0.61106382  0.83714465  1  0  0.613846  0  3.928752  0  0  0.560228  0  4.221974  0  0  0.594606  0  4.216616  0  0  0.211236  0.537418  0  4.223517  0
C  C28  1  0.28979619  0.61108907  0.16288599  1  0  0.613914  0  3.927678  0  0  0.560272  0  4.220938  0  0  0.59466  0  4.215587  0  0  0.211326  0.537457  0  4.222473  0
C  C29  1  0.71021365  0.11103609  0.33709610  1  0  0.614317  0  3.928299  0  0  0.560658  0  4.221544  0  0  0.595037  0  4.216182  0  0  0.211307  0.537856  0  4.223078  0
N  N30  1  0.71560248  0.98248659  0.90796052  1  0  -0.313101  0  3.175518  0  0  -0.256536  0  3.433892  0  0  -0.27206  0  3.452749  0  0  -0.279987  -0.245899  0  3.421433  0
N  N31  1  0.28429529  0.48247116  0.59201872  1  0  -0.313143  0  3.174886  0  0  -0.256419  0  3.433306  0  0  -0.271931  0  3.452162  0  0  -0.279838  -0.245786  0  3.420843  0
N  N32  1  0.28430927  0.48249132  0.40800519  1  0  -0.313058  0  3.175456  0  0  -0.256502  0  3.433718  0  0  -0.272027  0  3.452575  0  0  -0.280012  -0.245863  0  3.421256  0
N  N33  1  0.71564307  0.98247996  0.09202224  1  0  -0.313011  0  3.175169  0  0  -0.256361  0  3.433568  0  0  -0.271881  0  3.452436  0  0  -0.279913  -0.245721  0  3.421097  0
N  N34  1  0.97465643  0.21334310  0.80277777  1  0  -0.221754  0  3.036084  0  0  -0.199198  0  3.305435  0  0  -0.203631  0  3.320855  0  0  -0.278436  -0.196071  0  3.296421  0
N  N35  1  0.02534462  0.71342555  0.69723061  1  0  -0.221601  0  3.03577  0  0  -0.198989  0  3.305139  0  0  -0.203423  0  3.320559  0  0  -0.278257  -0.195862  0  3.296127  0
N  N36  1  0.02526566  0.71338736  0.30279005  1  0  -0.221712  0  3.036298  0  0  -0.199124  0  3.305747  0  0  -0.203558  0  3.321176  0  0  -0.278512  -0.196  0  3.296726  0
N  N37  1  0.97461577  0.21337933  0.19719891  1  0  -0.221522  0  3.036014  0  0  -0.199044  0  3.305388  0  0  -0.203469  0  3.320804  0  0  -0.278424  -0.19592  0  3.296376  0
O  O38  1  0.52187202  0.01231296  0.62940638  1  0  -0.609111  0  1.914471  0  0  -0.55773  0  2.137613  0  0  -0.584151  0  2.13156  0  0  -0.301534  -0.538301  0  2.140573  0
O  O39  1  0.47816607  0.51230742  0.87056351  1  0  -0.608631  0  1.915266  0  0  -0.557268  0  2.138412  0  0  -0.583689  0  2.132364  0  0  -0.301352  -0.537841  0  2.14137  0
O  O40  1  0.47818899  0.51230069  0.12945601  1  0  -0.608911  0  1.913753  0  0  -0.557505  0  2.136895  0  0  -0.583947  0  2.130858  0  0  -0.301529  -0.538061  0  2.139843  0
O  O41  1  0.52189104  0.01232105  0.37056897  1  0  -0.608889  0  1.914718  0  0  -0.557497  0  2.137864  0  0  -0.583914  0  2.131809  0  0  -0.30142  -0.538075  0  2.140823  0
O  O42  1  0.81508701  0.22494697  0.61755518  1  0  -0.686316  0  2.067673  0  0  -0.608928  0  2.308576  0  0  -0.642618  0  2.304564  0  0  -0.29746  -0.584614  0  2.310193  0
O  O43  1  0.18479738  0.72498286  0.88244722  1  0  -0.686221  0  2.067358  0  0  -0.608663  0  2.308055  0  0  -0.642366  0  2.304051  0  0  -0.297377  -0.584344  0  2.309665  0
O  O44  1  0.18479174  0.72498722  0.11757674  1  0  -0.686074  0  2.067598  0  0  -0.608587  0  2.308439  0  0  -0.642266  0  2.304396  0  0  -0.297359  -0.584273  0  2.31005  0
O  O45  1  0.81510936  0.22495171  0.38243107  1  0  -0.686514  0  2.067296  0  0  -0.608993  0  2.308061  0  0  -0.642679  0  2.304024  0  0  -0.297504  -0.584676  0  2.30967  0
