# generated using pymatgen
data_CoH12C8(N2O)4
_symmetry_space_group_name_H-M   'P 1'
_cell_length_a   6.40412509
_cell_length_b   6.85240221
_cell_length_c   8.71502424
_cell_angle_alpha   116.20776697
_cell_angle_beta   100.24528445
_cell_angle_gamma   98.23469336
_symmetry_Int_Tables_number   1
_chemical_formula_structural   CoH12C8(N2O)4
_chemical_formula_sum   'Co1 H12 C8 N8 O4'
_cell_volume   326.83332241
_cell_formula_units_Z   1
loop_
 _symmetry_equiv_pos_site_id
 _symmetry_equiv_pos_as_xyz
  1  'x, y, z'
loop_
 _atom_site_type_symbol
 _atom_site_label
 _atom_site_symmetry_multiplicity
 _atom_site_fract_x
 _atom_site_fract_y
 _atom_site_fract_z
 _atom_site_occupancy
 _atom_site_hle17_ddec_charge
 _atom_site_hle17_ddec_spin_density
 _atom_site_hle17_ddec_sum_bond_order
 _atom_site_hle17_magmom
 _atom_site_hse06_10hf_ddec_charge
 _atom_site_hse06_10hf_ddec_spin_density
 _atom_site_hse06_10hf_ddec_sum_bond_order
 _atom_site_hse06_10hf_magmom
 _atom_site_hse06_ddec_charge
 _atom_site_hse06_ddec_spin_density
 _atom_site_hse06_ddec_sum_bond_order
 _atom_site_hse06_magmom
 _atom_site_pbe_cm5_charge
 _atom_site_pbe_ddec_charge
 _atom_site_pbe_ddec_spin_density
 _atom_site_pbe_ddec_sum_bond_order
 _atom_site_pbe_magmom
Co  Co0  1  0.99959588  0.47103378  0.48661577  1  0.791976  1.070804  2.566677  0.972  0.777936  1.015541  3.025115  0.929  0.848232  1.021964  2.942013  0.948  0.695826  0.73176  1.003236  3.081933  0.905
H  H1  1  0.84903009  0.16447042  0.05879828  1  0.099896  2.8e-05  0.959943  0.0  0.101469  -8.2e-05  1.030932  0.0  0.103485  -7e-05  1.028396  0.0  0.134257  0.099913  -9.3e-05  1.032915  0.0
H  H2  1  0.16091929  0.78795571  0.91182361  1  0.095851  1.8e-05  0.969403  0.0  0.098535  -9.1e-05  1.039671  0.0  0.100363  -7.6e-05  1.03754  0.0  0.134003  0.097124  -0.000105  1.041324  0.0
H  H3  1  0.44443143  0.63679586  0.39898425  1  0.110289  -2.3e-05  0.950221  0.0  0.117949  -0.000129  1.016645  0.0  0.11968  -0.000111  1.013844  0.0  0.146934  0.116444  -0.000145  1.018961  0.0
H  H4  1  0.54239749  0.34768385  0.58891153  1  0.114514  4e-05  0.96731  0.0  0.122368  -2.7e-05  1.032472  0.0  0.124773  -3.4e-05  1.0294  0.0  0.145541  0.120153  -1.9e-05  1.035105  0.0
H  H5  1  0.56822976  0.29612196  0.99580408  1  0.092479  -3.1e-05  0.96103  0.0  0.101543  -3e-05  1.031938  0.0  0.102392  -2.3e-05  1.031753  0.0  0.115744  0.100873  -3.3e-05  1.032049  0.0
H  H6  1  0.45340066  0.71836527  0.00286934  1  0.089228  -9.8e-05  0.952352  0.0  0.101407  -9.6e-05  1.018738  0.0  0.102131  -7.3e-05  1.018426  0.0  0.115678  0.100751  -0.000117  1.019069  0.0
H  H7  1  0.65909319  0.57346324  0.18117962  1  0.105046  9.7e-05  0.910485  0.0  0.117134  0.000244  0.977336  0.0  0.118135  0.000181  0.976291  0.0  0.124525  0.116221  0.000302  0.978325  0.0
H  H8  1  0.34289068  0.43989548  0.81900351  1  0.11031  -0.000117  0.928293  0.0  0.122348  -8.5e-05  0.994883  0.0  0.123767  -8.6e-05  0.994097  0.0  0.124155  0.121018  -7.9e-05  0.99563  0.0
H  H9  1  0.03859509  0.10727706  0.51915039  1  0.421615  -0.000751  0.881528  -0.001  0.396701  -0.000186  0.93559  0.0  0.406897  -0.000279  0.921114  0.0  0.287236  0.389594  -7.8e-05  0.945537  0.0
H  H10  1  0.99715966  0.87568281  0.60490791  1  0.395716  0.001062  0.902017  0.0  0.362213  0.001645  0.985081  0.0  0.371607  0.001371  0.97078  0.0  0.288949  0.355352  0.001876  0.995577  0.0
H  H11  1  0.18933565  0.12365896  0.39744538  1  0.412413  -0.000607  0.863661  -0.001  0.385809  9.3e-05  0.936899  0.0  0.394885  -2.2e-05  0.923958  0.0  0.299168  0.379625  0.00019  0.945293  0.0
H  H12  1  0.78946364  0.96744839  0.63169136  1  0.415044  -0.000126  0.88256  0.0  0.38394  -6.3e-05  0.946884  0.0  0.393294  -8.3e-05  0.933311  0.0  0.291124  0.37754  -3.4e-05  0.956147  0.0
C  C13  1  0.01338661  0.27085778  0.10755554  1  0.207935  -0.004775  3.669918  -0.003  0.155251  -0.001463  3.96871  -0.001  0.16928  -0.001124  3.980774  -0.001  0.151511  0.14573  -0.001833  3.96083  -0.001
C  C14  1  0.99292094  0.69200941  0.86701039  1  0.196412  -0.005192  3.682305  -0.004  0.144212  -0.001815  3.979516  -0.001  0.157362  -0.001444  3.992523  -0.001  0.146484  0.135285  -0.002142  3.970986  -0.001
C  C15  1  0.31293222  0.51218043  0.28564471  1  0.177719  -0.009377  3.608507  -0.006  0.100149  -0.002796  3.871289  -0.002  0.116207  -0.002062  3.884458  -0.001  0.169686  0.089141  -0.003638  3.863014  -0.002
C  C16  1  0.68156318  0.46737867  0.69753584  1  0.172715  -0.009289  3.60151  -0.006  0.09632  -0.002492  3.863227  -0.002  0.112223  -0.001738  3.876051  -0.001  0.167893  0.085572  -0.003304  3.855286  -0.002
C  C17  1  0.52568804  0.45683355  0.06212845  1  -0.037359  3.7e-05  3.617162  0.0  -0.117646  0.000118  3.881638  0.0  -0.115135  9e-05  3.893123  0.0  -0.044664  -0.11902  0.000151  3.873756  0.0
C  C18  1  0.48318726  0.55151665  0.93380462  1  -0.037245  -0.0001  3.613772  0.0  -0.117793  -7.4e-05  3.87705  0.0  -0.11528  -7.2e-05  3.887828  0.0  -0.044287  -0.119038  -6.4e-05  3.869807  0.0
C  C19  1  0.56023792  0.13198010  0.29094422  1  0.587826  -0.009337  4.070215  -0.007  0.556059  -0.002526  4.364115  -0.002  0.591598  -0.002186  4.365729  -0.001  0.263814  0.531594  -0.002759  4.362378  -0.002
C  C20  1  0.41235622  0.85908399  0.69376948  1  0.603031  -0.010549  4.050878  -0.008  0.566186  -0.002901  4.339053  -0.002  0.603189  -0.002362  4.337398  -0.002  0.27725  0.540532  -0.003231  4.340068  -0.002
N  N21  1  0.33181939  0.41891118  0.11948214  1  0.050798  -0.000573  3.579621  0.0  0.176179  -0.000469  3.759279  0.0  0.16684  -0.000319  3.781563  0.0  -0.131781  0.181638  -0.000574  3.745238  0.0
N  N22  1  0.67157872  0.57171267  0.86617204  1  0.051728  -0.000822  3.578169  0.0  0.175143  -0.00069  3.761334  0.0  0.165485  -0.00048  3.78404  0.0  -0.133008  0.180528  -0.000846  3.747506  -0.001
N  N23  1  0.14278576  0.26487896  0.00344870  1  -0.266081  -0.001093  2.820701  0.0  -0.270262  -0.000802  3.085347  0.0  -0.279981  -0.000551  3.098767  0.0  -0.223028  -0.263553  -0.000909  3.076517  0.0
N  N24  1  0.86805559  0.71464161  0.97639596  1  -0.251429  -0.00112  2.821586  0.0  -0.256254  -0.000706  3.084843  0.0  -0.264726  -0.000453  3.097605  0.0  -0.220082  -0.250313  -0.000837  3.076485  0.0
N  N25  1  0.11124733  0.42151417  0.28358589  1  -0.335654  -0.015774  3.307471  -0.011  -0.292556  -0.010448  3.618984  -0.008  -0.323942  -0.010561  3.631632  -0.009  -0.347396  -0.272429  -0.009288  3.611158  -0.007
N  N26  1  0.88519697  0.54069925  0.69229094  1  -0.343772  -0.017392  3.306286  -0.012  -0.300986  -0.011096  3.617202  -0.009  -0.332512  -0.010898  3.63076  -0.009  -0.347823  -0.280517  -0.010299  3.608345  -0.008
N  N27  1  0.73339557  0.26097310  0.33770411  1  -0.690803  -0.009234  3.1347  -0.005  -0.678615  -0.005967  3.471206  -0.006  -0.7128  -0.006836  3.464986  -0.007  -0.461699  -0.655631  -0.004075  3.475387  -0.004
N  N28  1  0.24201266  0.72127184  0.63136640  1  -0.706767  -0.007129  3.172452  -0.003  -0.678951  -0.006217  3.493687  -0.005  -0.711556  -0.00675  3.48583  -0.006  -0.456792  -0.657411  -0.004921  3.499422  -0.004
O  O29  1  0.37922222  0.00295051  0.23914366  1  -0.518018  -0.002842  2.015707  -0.002  -0.469015  0.00013  2.21682  0.001  -0.490588  -9.6e-05  2.207446  0.0  -0.272118  -0.453861  0.000627  2.222827  0.002
O  O30  1  0.58681193  0.00123668  0.75972988  1  -0.515597  -0.002234  2.055139  -0.001  -0.458368  -0.000288  2.257079  0.0  -0.479495  -0.000327  2.246029  0.0  -0.261288  -0.443681  -7.2e-05  2.264407  0.001
O  O31  1  0.15346423  0.21395345  0.50898837  1  -0.79683  0.032575  1.931295  0.062  -0.761548  0.026929  2.129038  0.048  -0.79156  0.02008  2.099192  0.037  -0.562327  -0.736498  0.034818  2.147717  0.06
O  O32  1  0.87759362  0.91555932  0.54610770  1  -0.802984  0.003924  1.826547  0.005  -0.756857  0.006841  1.991159  0.009  -0.774251  0.00543  1.961176  0.007  -0.573485  -0.744435  0.008298  2.012459  0.01
