# generated using pymatgen
data_CoH14C18N2O5
_symmetry_space_group_name_H-M   'P 1'
_cell_length_a   8.29519283
_cell_length_b   10.93521284
_cell_length_c   11.30557121
_cell_angle_alpha   116.27423100
_cell_angle_beta   90.17332761
_cell_angle_gamma   89.89351276
_symmetry_Int_Tables_number   1
_chemical_formula_structural   CoH14C18N2O5
_chemical_formula_sum   'Co2 H28 C36 N4 O10'
_cell_volume   919.56911817
_cell_formula_units_Z   2
loop_
 _symmetry_equiv_pos_site_id
 _symmetry_equiv_pos_as_xyz
  1  'x, y, z'
loop_
 _atom_site_type_symbol
 _atom_site_label
 _atom_site_symmetry_multiplicity
 _atom_site_fract_x
 _atom_site_fract_y
 _atom_site_fract_z
 _atom_site_occupancy
 _atom_site_pbe_cm5_charge
 _atom_site_pbe_ddec_charge
 _atom_site_pbe_ddec_spin_density
 _atom_site_pbe_ddec_sum_bond_order
 _atom_site_pbe_magmom
Co  Co0  1  0.50742604  0.64344277  0.58757672  1  0.671889  0.915747  -2.861257  2.464133  -2.588
Co  Co1  1  0.00300484  0.35625984  0.41234454  1  0.668374  0.909299  2.860554  2.454806  2.586
H  H2  1  0.64319436  0.04635222  0.53141111  1  0.097951  0.09802  -1e-06  1.033674  0.0
H  H3  1  0.14827362  0.95193526  0.46791150  1  0.098165  0.098499  9e-06  1.030867  0.0
H  H4  1  0.77050603  0.00176924  0.31605621  1  0.101252  0.094746  1.9e-05  1.009415  0.0
H  H5  1  0.27539300  0.99902746  0.68488499  1  0.100737  0.094206  1.6e-05  1.010123  0.0
H  H6  1  0.95675656  0.80671093  0.20789515  1  0.103578  0.108796  1e-06  0.991292  0.0
H  H7  1  0.45782255  0.19658224  0.79387281  1  0.103441  0.108334  -1.7e-05  0.990973  0.0
H  H8  1  0.99970188  0.64627723  0.30791511  1  0.094551  0.089448  -9.8e-05  1.070765  0.0
H  H9  1  0.49997581  0.35516764  0.69207419  1  0.094689  0.089563  0.000107  1.072418  0.0
H  H10  1  0.38455076  0.81589098  0.47057013  1  0.109737  0.066961  -0.000508  1.071638  -0.001
H  H11  1  0.88144456  0.18253036  0.52948565  1  0.1101  0.067202  0.000232  1.072596  0.001
H  H12  1  0.37656568  0.83321809  0.26044453  1  0.108052  0.125329  -0.00028  1.04102  0.0
H  H13  1  0.87743515  0.16593625  0.73966422  1  0.108011  0.1259  0.000206  1.041973  0.0
H  H14  1  0.59967656  0.43281962  0.07925033  1  0.105247  0.108918  -0.000447  1.023019  0.0
H  H15  1  0.09993596  0.56654357  0.91908560  1  0.105239  0.109208  0.00045  1.021988  0.0
H  H16  1  0.59325703  0.43249215  0.29779664  1  0.118671  0.097214  -0.000442  1.015121  -0.001
H  H17  1  0.08815479  0.56665053  0.70051928  1  0.118056  0.095811  0.000504  1.014884  0.001
H  H18  1  0.32226590  0.79264240  0.84801603  1  0.122488  0.096098  -0.000276  0.987579  -0.001
H  H19  1  0.82194822  0.20891916  0.15172502  1  0.122351  0.097566  0.00047  0.98721  0.001
H  H20  1  0.30418807  0.79147343  0.06549905  1  0.111709  0.136154  -0.000269  1.028473  0.0
H  H21  1  0.80536864  0.20882414  0.93351655  1  0.112081  0.135983  0.000263  1.028948  0.0
H  H22  1  0.70806704  0.51042745  0.94690140  1  0.102035  0.105  -0.000422  1.040343  0.0
H  H23  1  0.20895070  0.48984985  0.05408795  1  0.101541  0.10471  0.000373  1.041017  0.0
H  H24  1  0.70868808  0.52656212  0.73427993  1  0.116393  0.090391  -0.000498  1.027694  -0.001
H  H25  1  0.20903311  0.47377971  0.26704983  1  0.117368  0.092476  0.000318  1.025979  0.001
H  H26  1  0.16406347  0.64472966  0.55010127  1  0.296253  0.393487  -0.000522  0.945502  -0.001
H  H27  1  0.66067930  0.35638561  0.44801411  1  0.295858  0.392267  0.000532  0.948558  0.001
H  H28  1  0.24209569  0.78956272  0.63866351  1  0.317977  0.392568  -0.000492  0.898762  -0.001
H  H29  1  0.74061145  0.21102486  0.36925446  1  0.316434  0.390731  0.000261  0.902909  0.0
C  C30  1  0.74451872  0.86880369  0.53880452  1  -0.005096  -0.033265  0.002103  3.914728  0.002
C  C31  1  0.24747092  0.12986287  0.46038969  1  -0.004711  -0.030568  2.6e-05  3.913316  0.001
C  C32  1  0.72139148  0.95801635  0.48130706  1  -0.092861  -0.117572  -0.000648  3.978485  -0.001
C  C33  1  0.22532413  0.04106258  0.51834297  1  -0.092737  -0.118198  8.6e-05  3.978072  0.0
C  C34  1  0.79279015  0.93394532  0.36167334  1  -0.08536  -0.059424  0.00172  4.002533  0.002
C  C35  1  0.29613819  0.06673137  0.63896200  1  -0.086086  -0.05989  -0.000562  4.000666  0.0
C  C36  1  0.89617175  0.82288426  0.29908340  1  -0.09401  -0.085944  -0.00065  4.005329  -0.001
C  C37  1  0.39772651  0.17899483  0.70185856  1  -0.094707  -0.087295  2.7e-05  4.006279  0.0
C  C38  1  0.92155522  0.73461158  0.35572913  1  -0.091466  -0.096523  0.001276  3.989162  0.001
C  C39  1  0.42224587  0.26658670  0.64440313  1  -0.092092  -0.097321  -0.000435  3.991305  0.0
C  C40  1  0.84353509  0.75317757  0.47289582  1  -0.024226  -0.087756  0.000702  3.965372  0.0
C  C41  1  0.34464904  0.24659761  0.52632461  1  -0.024251  -0.088633  -0.001713  3.964483  -0.002
C  C42  1  0.66145532  0.91069790  0.67072592  1  0.205769  0.586141  -0.003835  4.2217  -0.003
C  C43  1  0.16135671  0.08863125  0.32948767  1  0.206584  0.587714  0.003485  4.224972  0.003
C  C44  1  0.86242864  0.64123287  0.51400273  1  0.221397  0.592855  0.003841  4.135341  0.005
C  C45  1  0.36112174  0.35824894  0.48443348  1  0.220614  0.593085  -0.000156  4.134367  0.0
C  C46  1  0.42763573  0.73170009  0.38068910  1  0.040088  0.090995  0.003615  3.974298  0.005
C  C47  1  0.92455523  0.26728045  0.61903346  1  0.041347  0.092695  -0.00476  3.970897  -0.005
C  C48  1  0.42545457  0.74128953  0.26250721  1  -0.079611  -0.16141  -0.001448  3.901848  -0.003
C  C49  1  0.92506662  0.25795140  0.73730727  1  -0.080388  -0.162393  0.001666  3.902044  0.003
C  C50  1  0.49208266  0.63502289  0.14984386  1  0.007975  0.095322  0.006771  3.985514  0.008
C  C51  1  0.99234651  0.36453746  0.84965030  1  0.00769  0.094485  -0.007706  3.985773  -0.009
C  C52  1  0.55084830  0.52106794  0.16327815  1  -0.083849  -0.174671  -0.001547  3.941413  -0.003
C  C53  1  0.04980431  0.47831841  0.83562329  1  -0.083704  -0.173651  0.002097  3.941142  0.004
C  C54  1  0.54708703  0.51945672  0.28541536  1  0.046075  0.100402  0.003574  3.936072  0.004
C  C55  1  0.04295343  0.47984562  0.71345635  1  0.045143  0.098745  -0.003652  3.934758  -0.004
C  C56  1  0.40414959  0.72988726  0.87314240  1  0.053909  0.113177  0.003125  3.927329  0.003
C  C57  1  0.90471520  0.27075449  0.12648578  1  0.053357  0.108984  -0.001508  3.928899  -0.002
C  C58  1  0.39412069  0.72759853  0.99480543  1  -0.079688  -0.177718  -0.000861  3.912224  -0.002
C  C59  1  0.89529308  0.27260823  0.00457760  1  -0.0807  -0.176947  0.000296  3.913501  0.001
C  C60  1  0.50057649  0.64440692  0.02401057  1  0.007413  0.09742  0.005476  3.991451  0.006
C  C61  1  0.00183341  0.35557480  0.97575232  1  0.008369  0.098363  -0.00428  3.989598  -0.004
C  C62  1  0.61718770  0.57211393  0.92869178  1  -0.086497  -0.175825  -0.000937  3.945117  -0.002
C  C63  1  0.11815983  0.42808099  0.07179709  1  -0.085437  -0.175737  0.000328  3.940785  0.001
C  C64  1  0.61901701  0.58064843  0.80974704  1  0.046033  0.09552  0.002729  3.94825  0.003
C  C65  1  0.11976755  0.41972348  0.19090128  1  0.047434  0.09834  -0.002476  3.942618  -0.003
N  N66  1  0.48916406  0.62452983  0.39448656  1  -0.331815  -0.274479  -0.030597  3.605668  -0.046
N  N67  1  0.98346779  0.37479334  0.60480802  1  -0.332224  -0.272756  0.031052  3.600767  0.046
N  N68  1  0.51177829  0.65550973  0.77988323  1  -0.321268  -0.232651  -0.028723  3.526557  -0.043
N  N69  1  0.01238521  0.34500041  0.22020508  1  -0.320578  -0.231675  0.028344  3.521822  0.041
O  O70  1  0.71771625  0.01147087  0.76697924  1  -0.321226  -0.535849  -0.013245  2.099213  -0.022
O  O71  1  0.21401162  0.98804249  0.23140487  1  -0.324465  -0.541217  0.009126  2.100083  0.015
O  O72  1  0.53030204  0.84785375  0.67358675  1  -0.334627  -0.600366  -0.046494  2.375385  -0.073
O  O73  1  0.02962735  0.15362362  0.33259426  1  -0.332874  -0.595874  0.051999  2.388136  0.081
O  O74  1  0.75217688  0.61442292  0.57574580  1  -0.296451  -0.535337  -0.031786  2.409804  -0.05
O  O75  1  0.25058804  0.38420291  0.42184204  1  -0.296485  -0.534243  0.027026  2.394881  0.043
O  O76  1  0.99320243  0.56942550  0.47786355  1  -0.313696  -0.582656  0.025508  2.410535  0.035
O  O77  1  0.49078235  0.43126373  0.52076676  1  -0.314393  -0.582083  -0.026366  2.416493  -0.037
O  O78  1  0.25075285  0.69312248  0.61647839  1  -0.560458  -0.75705  -0.024819  2.175386  -0.036
O  O79  1  0.74666756  0.30499851  0.38234421  1  -0.561388  -0.7579  0.024418  2.172556  0.035
