# generated using pymatgen
data_CdH10C16S2(NO)4
_symmetry_space_group_name_H-M   'P 1'
_cell_length_a   8.43873995
_cell_length_b   9.76850399
_cell_length_c   10.86267760
_cell_angle_alpha   80.18067164
_cell_angle_beta   87.14892242
_cell_angle_gamma   75.44583532
_symmetry_Int_Tables_number   1
_chemical_formula_structural   CdH10C16S2(NO)4
_chemical_formula_sum   'Cd2 H20 C32 S4 N8 O8'
_cell_volume   853.99858840
_cell_formula_units_Z   2
loop_
 _symmetry_equiv_pos_site_id
 _symmetry_equiv_pos_as_xyz
  1  'x, y, z'
loop_
 _atom_site_type_symbol
 _atom_site_label
 _atom_site_symmetry_multiplicity
 _atom_site_fract_x
 _atom_site_fract_y
 _atom_site_fract_z
 _atom_site_occupancy
 _atom_site_hle17_bader_spin_density
 _atom_site_hle17_ddec_charge
 _atom_site_hle17_ddec_spin_density
 _atom_site_hle17_ddec_sum_bond_order
 _atom_site_hle17_magmom
 _atom_site_hse06_10hf_bader_spin_density
 _atom_site_hse06_10hf_ddec_charge
 _atom_site_hse06_10hf_ddec_spin_density
 _atom_site_hse06_10hf_ddec_sum_bond_order
 _atom_site_hse06_10hf_magmom
 _atom_site_hse06_bader_spin_density
 _atom_site_hse06_ddec_charge
 _atom_site_hse06_ddec_spin_density
 _atom_site_hse06_ddec_sum_bond_order
 _atom_site_hse06_magmom
 _atom_site_pbe_bader_spin_density
 _atom_site_pbe_cm5_charge
 _atom_site_pbe_ddec_charge
 _atom_site_pbe_ddec_spin_density
 _atom_site_pbe_ddec_sum_bond_order
 _atom_site_pbe_magmom
Cd  Cd0  1  0.24809053  0.47389891  0.50764078  1  0  1.202378  0  1.575935  0  0  1.01866  0  2.019138  0  0  1.079058  0  1.9637  0  0  0.785273  0.976201  0  2.056425  0
Cd  Cd1  1  0.75190805  0.52610309  0.49235968  1  0  1.202377  0  1.575932  0  0  1.018651  0  2.019136  0  0  1.07905  0  1.963697  0  0  0.785254  0.976192  0  2.056423  0
H  H2  1  0.22570612  0.45558406  0.80002675  1  0  0.08891  0  0.982006  0  0  0.095278  0  1.054842  0  0  0.098043  0  1.053041  0  0  0.09565  0.093009  0  1.056665  0
H  H3  1  0.77429369  0.54441367  0.19997245  1  0  0.088936  0  0.981979  0  0  0.095277  0  1.054849  0  0  0.098041  0  1.05305  0  0  0.095662  0.09301  0  1.056672  0
H  H4  1  0.33625467  0.52958570  0.97996277  1  0  0.105722  0  0.93559  0  0  0.119994  0  0.988061  0  0  0.123529  0  0.986196  0  0  0.104199  0.117493  0  0.989429  0
H  H5  1  0.66374870  0.47041205  0.02003539  1  0  0.105723  0  0.935618  0  0  0.120001  0  0.988075  0  0  0.123536  0  0.986212  0  0  0.104201  0.1175  0  0.989445  0
H  H6  1  0.76403286  0.75852673  0.82932287  1  0  0.10299  0  0.961218  0  0  0.113907  0  1.024022  0  0  0.117173  0  1.020882  0  0  0.099376  0.111444  0  1.026461  0
H  H7  1  0.23596842  0.24146989  0.17068011  1  0  0.10299  0  0.961229  0  0  0.113911  0  1.024026  0  0  0.117177  0  1.020887  0  0  0.099397  0.11145  0  1.026466  0
H  H8  1  0.13184368  0.98038305  0.44848539  1  0  0.098004  0  0.970669  0  0  0.107814  0  1.035852  0  0  0.110897  0  1.033575  0  0  0.102741  0.105447  0  1.037849  0
H  H9  1  0.86815729  0.01961896  0.55151408  1  0  0.098002  0  0.970663  0  0  0.107832  0  1.035832  0  0  0.110919  0  1.03355  0  0  0.102741  0.105462  0  1.037826  0
H  H10  1  0.15152460  0.22092770  0.47666014  1  0  0.115922  0  0.963157  0  0  0.127623  0  1.02025  0  0  0.130406  0  1.01918  0  0  0.107109  0.125998  0  1.020696  0
H  H11  1  0.84847607  0.77907539  0.52333826  1  0  0.115919  0  0.963171  0  0  0.127633  0  1.020252  0  0  0.130415  0  1.019183  0  0  0.107127  0.126009  0  1.020695  0
H  H12  1  0.51592770  0.77825611  0.71477661  1  0  0.12717  0  0.943587  0  0  0.13572  0  1.005841  0  0  0.140046  0  1.001655  0  0  0.108958  0.133194  0  1.007789  0
H  H13  1  0.48407326  0.22174589  0.28522285  1  0  0.127202  0  0.94358  0  0  0.135734  0  1.005863  0  0  0.140061  0  1.001676  0  0  0.108963  0.133207  0  1.007812  0
H  H14  1  0.65370938  0.31860533  0.81003972  1  0  0.3275  0  0.943225  0  0  0.298218  0  1.023077  0  0  0.307953  0  1.015251  0  0  0.286255  0.291329  0  1.028555  0
H  H15  1  0.34628951  0.68139561  0.18995997  1  0  0.327504  0  0.943189  0  0  0.298227  0  1.02304  0  0  0.30796  0  1.015214  0  0  0.286252  0.291338  0  1.028518  0
H  H16  1  0.50250117  0.44852602  0.71508847  1  0  0.35334  0  0.905566  0  0  0.336201  0  0.967255  0  0  0.344334  0  0.959948  0  0  0.306649  0.331258  0  0.970736  0
H  H17  1  0.49749860  0.55147597  0.28491288  1  0  0.353278  0  0.905666  0  0  0.336196  0  0.967276  0  0  0.3443  0  0.960016  0  0  0.306646  0.331255  0  0.970751  0
H  H18  1  0.10487755  0.82665994  0.32628958  1  0  0.347686  0  0.901986  0  0  0.329434  0  0.967712  0  0  0.33748  0  0.960748  0  0  0.300231  0.32369  0  0.972634  0
H  H19  1  0.89512282  0.17333990  0.67371205  1  0  0.347703  0  0.901923  0  0  0.329401  0  0.967728  0  0  0.337446  0  0.960767  0  0  0.30022  0.323656  0  0.972648  0
H  H20  1  0.92090821  0.94330104  0.28454826  1  0  0.314669  0  0.914914  0  0  0.305161  0  0.969364  0  0  0.309677  0  0.96813  0  0  0.300447  0.301953  0  0.970292  0
H  H21  1  0.07909219  0.05669885  0.71544876  1  0  0.314611  0  0.914993  0  0  0.305109  0  0.969441  0  0  0.309624  0  0.968208  0  0  0.300443  0.3019  0  0.970367  0
C  C22  1  0.92438135  0.55357869  0.69998313  1  0  0.649434  0  3.905477  0  0  0.597725  0  4.196249  0  0  0.634086  0  4.189456  0  0  0.198262  0.57344  0  4.199502  0
C  C23  1  0.07561727  0.44641902  0.30001703  1  0  0.649431  0  3.905417  0  0  0.597721  0  4.196219  0  0  0.63408  0  4.18943  0  0  0.198301  0.573434  0  4.199473  0
C  C24  1  0.99026673  0.60431423  0.80313764  1  0  -0.085654  0  3.78059  0  0  -0.064011  0  4.022028  0  0  -0.075594  0  4.046989  0  0  -0.034413  -0.05695  0  4.005803  0
C  C25  1  0.00973308  0.39568349  0.19686247  1  0  -0.085563  0  3.780428  0  0  -0.063955  0  4.02192  0  0  -0.075535  0  4.046879  0  0  -0.034366  -0.05689  0  4.005693  0
C  C26  1  0.15133925  0.54130998  0.84518915  1  0  -0.052653  0  3.751424  0  0  -0.083091  0  4.010872  0  0  -0.079945  0  4.031328  0  0  -0.090504  -0.084447  0  3.996987  0
C  C27  1  0.84866264  0.45868883  0.15480890  1  0  -0.052719  0  3.751428  0  0  -0.083128  0  4.0109  0  0  -0.079982  0  4.031357  0  0  -0.090497  -0.084485  0  3.997014  0
C  C28  1  0.21311685  0.58218170  0.94549356  1  0  -0.147031  0  3.721414  0  0  -0.164544  0  3.975008  0  0  -0.170437  0  3.994173  0  0  -0.096301  -0.160599  0  3.961551  0
C  C29  1  0.78688563  0.41781494  0.05450662  1  0  -0.147019  0  3.721531  0  0  -0.164529  0  3.975119  0  0  -0.170423  0  3.994286  0  0  -0.096331  -0.160585  0  3.961663  0
C  C30  1  0.11221923  0.68781251  0.00670977  1  0  0.21462  0  3.852011  0  0  0.207408  0  4.103413  0  0  0.215872  0  4.125349  0  0  0.09525  0.202272  0  4.08842  0
C  C31  1  0.88778536  0.31218095  0.99328896  1  0  0.214617  0  3.852084  0  0  0.207372  0  4.10351  0  0  0.215837  0  4.125445  0  0  0.095294  0.202237  0  4.088515  0
C  C32  1  0.95052218  0.75325482  0.96180314  1  0  -0.051132  0  3.801335  0  0  -0.031304  0  4.056593  0  0  -0.036091  0  4.08131  0  0  -0.017696  -0.028898  0  4.041649  0
C  C33  1  0.04947911  0.24674183  0.03819707  1  0  -0.051175  0  3.801298  0  0  -0.031301  0  4.056511  0  0  -0.036089  0  4.081228  0  0  -0.017709  -0.028895  0  4.041569  0
C  C34  1  0.88909989  0.71250464  0.86154594  1  0  -0.093268  0  3.750773  0  0  -0.126575  0  4.000318  0  0  -0.123225  0  4.018782  0  0  -0.090173  -0.129216  0  3.988818  0
C  C35  1  0.11090259  0.28749201  0.13845424  1  0  -0.093225  0  3.750642  0  0  -0.126541  0  4.000208  0  0  -0.123195  0  4.01867  0  0  -0.090204  -0.129187  0  3.988712  0
C  C36  1  0.02654915  0.82666766  0.15156805  1  0  0.440017  0  3.837889  0  0  0.403525  0  4.146925  0  0  0.426863  0  4.155337  0  0  0.241269  0.387786  0  4.141476  0
C  C37  1  0.97345095  0.17332898  0.84843313  1  0  0.439927  0  3.838106  0  0  0.403482  0  4.147077  0  0  0.42682  0  4.155487  0  0  0.24121  0.387743  0  4.141627  0
C  C38  1  0.32183790  0.86563061  0.57993236  1  0  -0.085554  0  3.778871  0  0  -0.063445  0  4.020911  0  0  -0.0742  0  4.045055  0  0  -0.033348  -0.056993  0  4.004631  0
C  C39  1  0.67816008  0.13437352  0.42006781  1  0  -0.085673  0  3.778998  0  0  -0.063513  0  4.020998  0  0  -0.074291  0  4.045172  0  0  -0.033412  -0.05702  0  4.004666  0
C  C40  1  0.21995053  0.99073023  0.51370192  1  0  -0.070284  0  3.765377  0  0  -0.100399  0  4.023172  0  0  -0.096676  0  4.04041  0  0  -0.093585  -0.102801  0  4.012136  0
C  C41  1  0.78004835  0.00927502  0.48629438  1  0  -0.070301  0  3.76526  0  0  -0.100445  0  4.023066  0  0  -0.096715  0  4.04031  0  0  -0.093557  -0.102851  0  4.012014  0
C  C42  1  0.23114227  0.12591344  0.52884896  1  0  -0.152849  0  3.729147  0  0  -0.169511  0  3.983579  0  0  -0.174576  0  4.001358  0  0  -0.097729  -0.166316  0  3.971363  0
C  C43  1  0.76885631  0.87408856  0.47115151  1  0  -0.152766  0  3.729122  0  0  -0.169466  0  3.983587  0  0  -0.174529  0  4.001367  0  0  -0.097763  -0.166271  0  3.971371  0
C  C44  1  0.34650601  0.13805679  0.61213493  1  0  0.212062  0  3.871266  0  0  0.202562  0  4.120811  0  0  0.21181  0  4.143705  0  0  0.089814  0.196038  0  4.105668  0
C  C45  1  0.65349228  0.86194630  0.38786354  1  0  0.211957  0  3.871336  0  0  0.202469  0  4.120832  0  0  0.211716  0  4.143724  0  0  0.089808  0.195944  0  4.10569  0
C  C46  1  0.44510822  0.01195998  0.68217736  1  0  -0.0683  0  3.807745  0  0  -0.048761  0  4.066789  0  0  -0.053598  0  4.091211  0  0  -0.018472  -0.04584  0  4.049894  0
C  C47  1  0.55489007  0.98804310  0.31782204  1  0  -0.068179  0  3.807886  0  0  -0.048567  0  4.066811  0  0  -0.053403  0  4.09123  0  0  -0.018416  -0.045647  0  4.049918  0
C  C48  1  0.43551018  0.87589138  0.66614136  1  0  -0.08634  0  3.701806  0  0  -0.118573  0  3.951509  0  0  -0.115123  0  3.968693  0  0  -0.084412  -0.119633  0  3.937713  0
C  C49  1  0.56448900  0.12411279  0.33385693  1  0  -0.086425  0  3.70191  0  0  -0.118696  0  3.951608  0  0  -0.11524  0  3.968799  0  0  -0.084468  -0.119768  0  3.937802  0
C  C50  1  0.49342519  0.24245069  0.71786508  1  0  0.446578  0  3.833923  0  0  0.405981  0  4.136297  0  0  0.430685  0  4.146426  0  0  0.248181  0.390682  0  4.128153  0
C  C51  1  0.50657279  0.75755345  0.28213509  1  0  0.446507  0  3.834009  0  0  0.405903  0  4.136389  0  0  0.430607  0  4.146517  0  0  0.248145  0.390605  0  4.128247  0
C  C52  1  0.31006697  0.72418597  0.55420206  1  0  0.644137  0  3.91417  0  0  0.59158  0  4.20449  0  0  0.625908  0  4.200446  0  0  0.195249  0.568913  0  4.205691  0
C  C53  1  0.68992775  0.27581709  0.44579930  1  0  0.644184  0  3.914327  0  0  0.59162  0  4.204639  0  0  0.625955  0  4.200598  0  0  0.195262  0.56894  0  4.205835  0
S  S54  1  0.57517184  0.05975615  0.77807181  1  0  0.03508  0  2.40286  0  0  0.033289  0  2.721613  0  0  0.030823  0  2.722608  0  0  0.08341  0.034624  0  2.722166  0
S  S55  1  0.42482764  0.94024694  0.22192663  1  0  0.035073  0  2.402985  0  0  0.033257  0  2.721712  0  0  0.030792  0  2.722708  0  0  0.083411  0.034594  0  2.722266  0
S  S56  1  0.84977527  0.87400089  0.05812182  1  0  0.008129  0  2.397422  0  0  0.004218  0  2.709798  0  0  0.001331  0  2.713085  0  0  0.065154  0.005548  0  2.710784  0
S  S57  1  0.15022662  0.12599360  0.94187961  1  0  0.008135  0  2.397461  0  0  0.004195  0  2.709819  0  0  0.001307  0  2.713106  0  0  0.065149  0.005524  0  2.710803  0
N  N58  1  0.37675639  0.26463767  0.63277501  1  0  -0.521794  0  3.185371  0  0  -0.448809  0  3.468007  0  0  -0.477439  0  3.481909  0  0  -0.364193  -0.43073  0  3.45882  0
N  N59  1  0.62324071  0.73536539  0.36722535  1  0  -0.52177  0  3.185294  0  0  -0.448777  0  3.467913  0  0  -0.477405  0  3.481816  0  0  -0.364197  -0.430698  0  3.458727  0
N  N60  1  0.54634233  0.34436482  0.75773583  1  0  -0.644805  0  3.124955  0  0  -0.600528  0  3.365049  0  0  -0.622854  0  3.361038  0  0  -0.560187  -0.585768  0  3.36605  0
N  N61  1  0.45365625  0.65563716  0.24226556  1  0  -0.64471  0  3.124969  0  0  -0.600467  0  3.364995  0  0  -0.622769  0  3.361038  0  0  -0.56014  -0.58571  0  3.365989  0
N  N62  1  0.15171187  0.73260156  0.11226911  1  0  -0.472796  0  3.066174  0  0  -0.423542  0  3.323466  0  0  -0.444313  0  3.335687  0  0  -0.336182  -0.409726  0  3.314831  0
N  N63  1  0.84829152  0.26739187  0.88773150  1  0  -0.47278  0  3.066427  0  0  -0.42353  0  3.323708  0  0  -0.444301  0  3.335927  0  0  -0.336177  -0.409716  0  3.315072  0
N  N64  1  0.02888485  0.88557125  0.25458383  1  0  -0.655766  0  3.132048  0  0  -0.624447  0  3.370959  0  0  -0.645294  0  3.370373  0  0  -0.576854  -0.609672  0  3.371093  0
N  N65  1  0.97111764  0.11442544  0.74541266  1  0  -0.655656  0  3.13194  0  0  -0.62433  0  3.370884  0  0  -0.645173  0  3.370298  0  0  -0.576833  -0.609554  0  3.371017  0
O  O66  1  0.01888533  0.46871541  0.63505196  1  0  -0.679741  0  2.051603  0  0  -0.607941  0  2.315285  0  0  -0.638581  0  2.303365  0  0  -0.34202  -0.586777  0  2.322654  0
O  O67  1  0.98111298  0.53128338  0.36494805  1  0  -0.679765  0  2.051541  0  0  -0.607954  0  2.315225  0  0  -0.638594  0  2.303306  0  0  -0.342047  -0.586791  0  2.322596  0
O  O68  1  0.40984927  0.60862214  0.60344515  1  0  -0.673045  0  2.017432  0  0  -0.607164  0  2.267957  0  0  -0.635921  0  2.257893  0  0  -0.324893  -0.587396  0  2.272424  0
O  O69  1  0.59014814  0.39137986  0.39655443  1  0  -0.672964  0  2.017421  0  0  -0.607155  0  2.267989  0  0  -0.635899  0  2.257919  0  0  -0.324887  -0.587397  0  2.272482  0
O  O70  1  0.19744570  0.72054179  0.47995534  1  0  -0.652955  0  2.00667  0  0  -0.580696  0  2.249449  0  0  -0.610478  0  2.240677  0  0  -0.324422  -0.558969  0  2.254413  0
O  O71  1  0.80254901  0.27946124  0.52004787  1  0  -0.652985  0  2.006735  0  0  -0.580669  0  2.249474  0  0  -0.610453  0  2.240705  0  0  -0.324378  -0.558941  0  2.254438  0
O  O72  1  0.77010654  0.59781312  0.67724750  1  0  -0.640383  0  1.976443  0  0  -0.57096  0  2.225388  0  0  -0.601638  0  2.214757  0  0  -0.328087  -0.54959  0  2.231268  0
O  O73  1  0.22989206  0.40218457  0.32275542  1  0  -0.640398  0  1.97643  0  0  -0.570964  0  2.225372  0  0  -0.601641  0  2.214742  0  0  -0.328114  -0.549592  0  2.231253  0
