# generated using pymatgen
data_LiH9C15N4O3
_symmetry_space_group_name_H-M   'P 1'
_cell_length_a   9.83430393
_cell_length_b   10.00448594
_cell_length_c   15.23308191
_cell_angle_alpha   89.99963243
_cell_angle_beta   90.00038862
_cell_angle_gamma   105.17710993
_symmetry_Int_Tables_number   1
_chemical_formula_structural   LiH9C15N4O3
_chemical_formula_sum   'Li4 H36 C60 N16 O12'
_cell_volume   1446.46530422
_cell_formula_units_Z   4
loop_
 _symmetry_equiv_pos_site_id
 _symmetry_equiv_pos_as_xyz
  1  'x, y, z'
loop_
 _atom_site_type_symbol
 _atom_site_label
 _atom_site_symmetry_multiplicity
 _atom_site_fract_x
 _atom_site_fract_y
 _atom_site_fract_z
 _atom_site_occupancy
 _atom_site_pbe_bader_spin_density
 _atom_site_pbe_cm5_charge
 _atom_site_pbe_ddec_charge
 _atom_site_pbe_ddec_spin_density
 _atom_site_pbe_ddec_sum_bond_order
 _atom_site_pbe_magmom
Li  Li0  1  0.72548184  0.31429342  0.84436125  1  0  0.535925  0.805123  0  0.526111  0
Li  Li1  1  0.27451616  0.18570956  0.34436125  1  0  0.535922  0.805139  0  0.526087  0
Li  Li2  1  0.27451797  0.68570425  0.15564001  1  0  0.535933  0.805111  0  0.526153  0
Li  Li3  1  0.72548504  0.81429330  0.65564000  1  0  0.535931  0.805134  0  0.526096  0
H  H4  1  0.60538316  0.28474771  0.47080630  1  0  0.102613  0.097214  0  1.032123  0
H  H5  1  0.39461970  0.21525328  0.97080724  1  0  0.102613  0.09718  0  1.032081  0
H  H6  1  0.39461951  0.71525307  0.52919298  1  0  0.102618  0.097175  0  1.032085  0
H  H7  1  0.60537678  0.78474337  0.02919401  1  0  0.102593  0.097229  0  1.03202  0
H  H8  1  0.76155507  0.32426669  0.34169677  1  0  0.107814  0.123941  0  1.012294  0
H  H9  1  0.23844929  0.17573734  0.84169654  1  0  0.10783  0.124002  0  1.012266  0
H  H10  1  0.23844890  0.67573512  0.65830186  1  0  0.107802  0.12394  0  1.012336  0
H  H11  1  0.76154933  0.82426345  0.15830406  1  0  0.107815  0.123976  0  1.012276  0
H  H12  1  0.12026995  0.33931625  0.50905740  1  0  0.111476  0.124871  0  1.012622  0
H  H13  1  0.87972880  0.16067992  0.00905228  1  0  0.111472  0.1249  0  1.012552  0
H  H14  1  0.87972986  0.66068143  0.49094451  1  0  0.1115  0.124918  0  1.012588  0
H  H15  1  0.12026695  0.83931776  0.99094832  1  0  0.111439  0.124863  0  1.012653  0
H  H16  1  0.96389590  0.30501246  0.63981618  1  0  0.109957  0.106234  0  1.036635  0
H  H17  1  0.03610738  0.19498790  0.13981182  1  0  0.109956  0.106249  0  1.036609  0
H  H18  1  0.03610243  0.69498729  0.36018442  1  0  0.10996  0.106246  0  1.036616  0
H  H19  1  0.96389012  0.80500874  0.86018943  1  0  0.109948  0.106248  0  1.036586  0
H  H20  1  0.92586851  0.30194550  0.23963182  1  0  0.096607  0.103607  0  1.063996  0
H  H21  1  0.07413258  0.19805411  0.73962945  1  0  0.096608  0.103586  0  1.064019  0
H  H22  1  0.07413112  0.69805528  0.76036812  1  0  0.09661  0.103605  0  1.063978  0
H  H23  1  0.92586520  0.80194357  0.26037114  1  0  0.0966  0.103556  0  1.064023  0
H  H24  1  0.09659504  0.42012094  0.22696193  1  0  0.114736  0.122719  0  1.005158  0
H  H25  1  0.90340593  0.07987878  0.72695910  1  0  0.11475  0.122709  0  1.005154  0
H  H26  1  0.90340486  0.57988089  0.77303801  1  0  0.11474  0.122706  0  1.005161  0
H  H27  1  0.09659416  0.92011993  0.27304215  1  0  0.114752  0.122701  0  1.005161  0
H  H28  1  0.95329217  0.48090273  0.27011843  1  0  0.100111  0.104778  0  1.026429  0
H  H29  1  0.04670787  0.01909562  0.77011671  1  0  0.100111  0.104793  0  1.026397  0
H  H30  1  0.04670745  0.51909805  0.72988282  1  0  0.100105  0.104783  0  1.026433  0
H  H31  1  0.95329019  0.98090310  0.22988454  1  0  0.100092  0.104782  0  1.026398  0
H  H32  1  0.98141544  0.46061118  0.90312439  1  0  0.300903  0.394456  0  0.933584  0
H  H33  1  0.01858583  0.03939032  0.40312521  1  0  0.300917  0.394412  0  0.933626  0
H  H34  1  0.01858594  0.53938857  0.09687555  1  0  0.300882  0.394378  0  0.933669  0
H  H35  1  0.98141916  0.96061149  0.59687670  1  0  0.3009  0.394406  0  0.933644  0
H  H36  1  0.85941672  0.45116395  0.97063379  1  0  0.29836  0.379398  0  0.956212  0
H  H37  1  0.14058485  0.04883601  0.47063511  1  0  0.298395  0.379465  0  0.956128  0
H  H38  1  0.14058494  0.54883683  0.02936680  1  0  0.29836  0.379417  0  0.956194  0
H  H39  1  0.85941681  0.95116477  0.52936943  1  0  0.298329  0.379334  0  0.956297  0
C  C40  1  0.68837416  0.28153673  0.64233186  1  0  0.168374  0.363091  0  4.013802  0
C  C41  1  0.31162886  0.21846257  0.14233189  1  0  0.16843  0.363208  0  4.013769  0
C  C42  1  0.31163009  0.71846612  0.35766611  1  0  0.168422  0.363103  0  4.013812  0
C  C43  1  0.68836762  0.78153407  0.85766740  1  0  0.168468  0.363247  0  4.013819  0
C  C44  1  0.52925721  0.25720679  0.63380407  1  0  0.038  0.018985  0  3.969899  0
C  C45  1  0.47074491  0.24278948  0.13380338  1  0  0.037938  0.018857  0  3.969907  0
C  C46  1  0.47074270  0.74279503  0.36619324  1  0  0.037974  0.018952  0  3.970117  0
C  C47  1  0.52925435  0.75720613  0.86619394  1  0  0.037937  0.018852  0  3.970056  0
C  C48  1  0.47670278  0.37436517  0.63473720  1  0  -0.016592  -0.125791  0  4.180078  0
C  C49  1  0.52330277  0.12563626  0.13473855  1  0  -0.016533  -0.125708  0  4.180052  0
C  C50  1  0.52329408  0.62563666  0.36525814  1  0  -0.016513  -0.125642  0  4.180119  0
C  C51  1  0.47670194  0.87436451  0.86526008  1  0  -0.016538  -0.125726  0  4.180087  0
C  C52  1  0.44902119  0.11797347  0.63055403  1  0  -0.019758  -0.144166  0  4.171194  0
C  C53  1  0.55097942  0.38202489  0.13055244  1  0  -0.019703  -0.144008  0  4.171264  0
C  C54  1  0.55097973  0.88202835  0.36944657  1  0  -0.01975  -0.144138  0  4.171238  0
C  C55  1  0.44901836  0.61797279  0.86944553  1  0  -0.019735  -0.144033  0  4.171299  0
C  C56  1  0.56547887  0.50846259  0.62168263  1  0  0.208633  0.308249  0  4.060674  0
C  C57  1  0.43452238  0.99153729  0.12168401  1  0  0.208613  0.308232  0  4.060573  0
C  C58  1  0.43452593  0.49154233  0.37831337  1  0  0.20846  0.308091  0  4.060979  0
C  C59  1  0.56547282  0.00845832  0.87831397  1  0  0.208528  0.308228  0  4.060915  0
C  C60  1  0.33603158  0.37225422  0.65534862  1  0  0.183885  0.25177  0  4.064675  0
C  C61  1  0.66396648  0.12774500  0.15535057  1  0  0.183802  0.251744  0  4.064652  0
C  C62  1  0.66397120  0.62775071  0.34464673  1  0  0.183803  0.251689  0  4.064611  0
C  C63  1  0.33602317  0.87225269  0.84464871  1  0  0.183872  0.251738  0  4.064723  0
C  C64  1  0.30332864  0.07642217  0.61330712  1  0  0.206913  0.296009  0  4.038499  0
C  C65  1  0.69667820  0.42357735  0.11330337  1  0  0.206924  0.295899  0  4.03886  0
C  C66  1  0.69666923  0.92357966  0.38669479  1  0  0.206851  0.2959  0  4.038627  0
C  C67  1  0.30332623  0.57642239  0.88669132  1  0  0.206981  0.295951  0  4.038487  0
C  C68  1  0.51759308  0.01062115  0.63556587  1  0  0.204273  0.305182  0  4.070476  0
C  C69  1  0.48241035  0.48937613  0.13556615  1  0  0.20418  0.305062  0  4.070633  0
C  C70  1  0.48240766  0.98938377  0.36443539  1  0  0.204308  0.305169  0  4.07035  0
C  C71  1  0.51758918  0.51062051  0.86443248  1  0  0.204197  0.305129  0  4.070532  0
C  C72  1  0.77421682  0.29333348  0.56461958  1  0  -0.034978  -0.066307  0  4.05456  0
C  C73  1  0.22578508  0.20666848  0.06461928  1  0  -0.034986  -0.066368  0  4.05435  0
C  C74  1  0.22578512  0.70666833  0.43538102  1  0  -0.034993  -0.066369  0  4.054521  0
C  C75  1  0.77421242  0.79332816  0.93538131  1  0  -0.035034  -0.066382  0  4.054357  0
C  C76  1  0.71816503  0.29707711  0.47964781  1  0  -0.075959  -0.064132  0  3.976567  0
C  C77  1  0.28183541  0.20292589  0.97964568  1  0  -0.07593  -0.064021  0  3.97642  0
C  C78  1  0.28183515  0.70292574  0.52035213  1  0  -0.075942  -0.063984  0  3.976494  0
C  C79  1  0.71816191  0.79707386  0.02035558  1  0  -0.075879  -0.064077  0  3.97647  0
C  C80  1  0.80540217  0.31891273  0.40668110  1  0  -0.10424  -0.213053  0  3.97001  0
C  C81  1  0.19460117  0.18108874  0.90667737  1  0  -0.104316  -0.213212  0  3.970129  0
C  C82  1  0.19460005  0.68109013  0.59332015  1  0  -0.104284  -0.213158  0  3.970086  0
C  C83  1  0.80539818  0.81891101  0.09332388  1  0  -0.104298  -0.213157  0  3.970099  0
C  C84  1  0.95128084  0.33604402  0.41809930  1  0  0.113433  0.295021  0  4.010219  0
C  C85  1  0.04872693  0.16395840  0.91809500  1  0  0.113518  0.29518  0  4.010073  0
C  C86  1  0.04872516  0.66395779  0.58190261  1  0  0.113452  0.295125  0  4.010127  0
C  C87  1  0.95127371  0.83604239  0.08190494  1  0  0.113456  0.295129  0  4.010179  0
C  C88  1  0.00738862  0.32653214  0.50249646  1  0  -0.091518  -0.196135  0  3.970264  0
C  C89  1  0.99261801  0.17346717  0.00249506  1  0  -0.09146  -0.196197  0  3.970259  0
C  C90  1  0.99261581  0.67346760  0.49750348  1  0  -0.091525  -0.196252  0  3.970313  0
C  C91  1  0.00738078  0.82653051  0.99750685  1  0  -0.091381  -0.196128  0  3.970491  0
C  C92  1  0.92039797  0.30727504  0.57444651  1  0  -0.069019  -0.0438  0  3.948927  0
C  C93  1  0.07960577  0.19272581  0.07444629  1  0  -0.069035  -0.043762  0  3.948807  0
C  C94  1  0.07960369  0.69272575  0.42555343  1  0  -0.069019  -0.043755  0  3.948828  0
C  C95  1  0.92039377  0.80727083  0.92555562  1  0  -0.069069  -0.043819  0  3.948906  0
C  C96  1  0.00115169  0.39337444  0.26699570  1  0  -0.141044  -0.199363  0  3.860386  0
C  C97  1  0.99884935  0.10662393  0.76699186  1  0  -0.141052  -0.199311  0  3.860307  0
C  C98  1  0.99884896  0.60662634  0.73300556  1  0  -0.141047  -0.199335  0  3.860376  0
C  C99  1  0.00114973  0.89337478  0.23300808  1  0  -0.141024  -0.199249  0  3.86033  0
N  N100  1  0.57631530  0.92318172  0.63949235  1  0  -0.368615  -0.460673  0  2.885736  0
N  N101  1  0.42368351  0.57681596  0.13949478  1  0  -0.368591  -0.460652  0  2.885614  0
N  N102  1  0.42368516  0.07682217  0.36051087  1  0  -0.368655  -0.460654  0  2.885631  0
N  N103  1  0.57631399  0.42318069  0.86050450  1  0  -0.36859  -0.460698  0  2.885678  0
N  N104  1  0.18370365  0.03801534  0.59476966  1  0  -0.28926  -0.390847  0  2.89902  0
N  N105  1  0.81629018  0.46197812  0.09476692  1  0  -0.289293  -0.390761  0  2.899559  0
N  N106  1  0.81629311  0.96198234  0.40523291  1  0  -0.289218  -0.390752  0  2.899067  0
N  N107  1  0.18370150  0.53801957  0.90522711  1  0  -0.28932  -0.390833  0  2.89899  0
N  N108  1  0.22375659  0.37850597  0.67733078  1  0  -0.294269  -0.367964  0  2.86089  0
N  N109  1  0.77624747  0.12149204  0.17733391  1  0  -0.294208  -0.367982  0  2.8607  0
N  N110  1  0.77624969  0.62149688  0.32266654  1  0  -0.294197  -0.367922  0  2.860926  0
N  N111  1  0.22374827  0.87850564  0.82266866  1  0  -0.294246  -0.367936  0  2.861156  0
N  N112  1  0.63222343  0.62224409  0.61000794  1  0  -0.379819  -0.471199  0  2.89423  0
N  N113  1  0.36777642  0.87775485  0.11001148  1  0  -0.379805  -0.471196  0  2.894245  0
N  N114  1  0.36778193  0.37776291  0.38998872  1  0  -0.379711  -0.471125  0  2.894342  0
N  N115  1  0.63222080  0.12224076  0.88998780  1  0  -0.379747  -0.471195  0  2.894214  0
O  O116  1  0.73607117  0.29015585  0.71856275  1  0  -0.310474  -0.478849  0  2.18259  0
O  O117  1  0.26393389  0.20984806  0.21856195  1  0  -0.310504  -0.478911  0  2.18255  0
O  O118  1  0.26392726  0.70984804  0.28143588  1  0  -0.310491  -0.478863  0  2.182533  0
O  O119  1  0.73606934  0.79015479  0.78143931  1  0  -0.310494  -0.478887  0  2.182544  0
O  O120  1  0.04664915  0.36375540  0.35301260  1  0  -0.153841  -0.136456  0  2.587181  0
O  O121  1  0.95335290  0.13624336  0.85301041  1  0  -0.153909  -0.13657  0  2.586929  0
O  O122  1  0.95335427  0.63624434  0.64698734  1  0  -0.153843  -0.136505  0  2.587055  0
O  O123  1  0.04664386  0.86375432  0.14698954  1  0  -0.153876  -0.13654  0  2.587028  0
O  O124  1  0.87837770  0.43192028  0.90928976  1  0  -0.652623  -0.841951  0  1.981789  0
O  O125  1  0.12162307  0.06807910  0.40929156  1  0  -0.652671  -0.841959  0  1.981834  0
O  O126  1  0.12162470  0.56807946  0.09070887  1  0  -0.65259  -0.841834  0  1.981983  0
O  O127  1  0.87838062  0.93192168  0.59071166  1  0  -0.652598  -0.841827  0  1.981871  0
