# generated using pymatgen
data_Cd4H16C15(N2O5)3
_symmetry_space_group_name_H-M   'P 1'
_cell_length_a   10.80875301
_cell_length_b   12.14329937
_cell_length_c   12.46197881
_cell_angle_alpha   65.46832441
_cell_angle_beta   60.22222882
_cell_angle_gamma   64.74602123
_symmetry_Int_Tables_number   1
_chemical_formula_structural   Cd4H16C15(N2O5)3
_chemical_formula_sum   'Cd8 H32 C30 N12 O30'
_cell_volume   1240.20367040
_cell_formula_units_Z   2
loop_
 _symmetry_equiv_pos_site_id
 _symmetry_equiv_pos_as_xyz
  1  'x, y, z'
loop_
 _atom_site_type_symbol
 _atom_site_label
 _atom_site_symmetry_multiplicity
 _atom_site_fract_x
 _atom_site_fract_y
 _atom_site_fract_z
 _atom_site_occupancy
 _atom_site_hle17_bader_spin_density
 _atom_site_hle17_ddec_charge
 _atom_site_hle17_ddec_spin_density
 _atom_site_hle17_ddec_sum_bond_order
 _atom_site_hle17_magmom
 _atom_site_hse06_10hf_bader_spin_density
 _atom_site_hse06_10hf_ddec_charge
 _atom_site_hse06_10hf_ddec_spin_density
 _atom_site_hse06_10hf_ddec_sum_bond_order
 _atom_site_hse06_10hf_magmom
 _atom_site_hse06_bader_spin_density
 _atom_site_hse06_ddec_charge
 _atom_site_hse06_ddec_spin_density
 _atom_site_hse06_ddec_sum_bond_order
 _atom_site_hse06_magmom
 _atom_site_pbe_bader_spin_density
 _atom_site_pbe_cm5_charge
 _atom_site_pbe_ddec_charge
 _atom_site_pbe_ddec_spin_density
 _atom_site_pbe_ddec_sum_bond_order
 _atom_site_pbe_magmom
Cd  Cd0  1  0.18310024  0.55426545  0.01468543  1  0  1.255433  0  1.482859  0  0  1.089594  0  1.893057  0  0  1.151175  0  1.832964  0  0  0.789406  1.044933  0  1.934903  0
Cd  Cd1  1  0.81686641  0.44575348  0.98529029  1  0  1.255362  0  1.483391  0  0  1.089426  0  1.893751  0  0  1.151003  0  1.833649  0  0  0.789302  1.044758  0  1.935595  0
Cd  Cd2  1  0.35070008  0.57751030  0.42896794  1  0  1.253514  0  1.69018  0  0  1.078319  0  2.137532  0  0  1.136811  0  2.082761  0  0  0.740218  1.036212  0  2.175416  0
Cd  Cd3  1  0.64929469  0.42248666  0.57106530  1  0  1.253481  0  1.690241  0  0  1.078303  0  2.137608  0  0  1.13679  0  2.082835  0  0  0.74018  1.036205  0  2.175502  0
Cd  Cd4  1  0.97657770  0.54401506  0.63432147  1  0  1.238928  0  1.697642  0  0  1.058895  0  2.143136  0  0  1.119611  0  2.088392  0  0  0.734523  1.015507  0  2.180316  0
Cd  Cd5  1  0.02344028  0.45596751  0.36568018  1  0  1.238867  0  1.697505  0  0  1.058824  0  2.142962  0  0  1.119545  0  2.088211  0  0  0.734503  1.015422  0  2.180164  0
Cd  Cd6  1  0.27494295  0.35537660  0.70965860  1  0  1.216755  0  1.623338  0  0  1.051163  0  2.04923  0  0  1.110537  0  1.994265  0  0  0.717712  1.008882  0  2.086741  0
Cd  Cd7  1  0.72507292  0.64460972  0.29036424  1  0  1.216759  0  1.623284  0  0  1.051139  0  2.049209  0  0  1.110511  0  1.994244  0  0  0.717709  1.008854  0  2.086741  0
H  H8  1  0.23164213  0.81624486  0.06539096  1  0  0.12579  0  0.905099  0  0  0.140422  0  0.96028  0  0  0.143265  0  0.957804  0  0  0.124312  0.138297  0  0.962377  0
H  H9  1  0.76838192  0.18373894  0.93460453  1  0  0.125823  0  0.905089  0  0  0.140387  0  0.96036  0  0  0.143226  0  0.957883  0  0  0.124267  0.138263  0  0.962462  0
H  H10  1  0.05319549  0.85717322  0.18329609  1  0  0.125048  0  0.899396  0  0  0.137727  0  0.95796  0  0  0.140358  0  0.95567  0  0  0.123265  0.135686  0  0.959967  0
H  H11  1  0.94683038  0.14280063  0.81669185  1  0  0.125131  0  0.899667  0  0  0.137852  0  0.958118  0  0  0.140479  0  0.955833  0  0  0.123292  0.135815  0  0.960123  0
H  H12  1  0.35995808  0.96902399  0.13699029  1  0  0.107517  0  0.928328  0  0  0.116721  0  0.994392  0  0  0.119225  0  0.992039  0  0  0.113477  0.114754  0  0.996341  0
H  H13  1  0.64009696  0.03093375  0.86296343  1  0  0.107358  0  0.928112  0  0  0.116714  0  0.994085  0  0  0.119236  0  0.99173  0  0  0.113521  0.114751  0  0.996033  0
H  H14  1  0.41529957  0.85861752  0.05256677  1  0  0.117217  0  0.897044  0  0  0.134839  0  0.947332  0  0  0.136762  0  0.94624  0  0  0.126186  0.133205  0  0.948675  0
H  H15  1  0.58476939  0.14128550  0.94744382  1  0  0.117263  0  0.89699  0  0  0.13481  0  0.947397  0  0  0.136742  0  0.946322  0  0  0.126121  0.133178  0  0.94873  0
H  H16  1  0.70832964  0.92184444  0.47446065  1  0  0.091896  0  0.961157  0  0  0.101964  0  1.031146  0  0  0.1037  0  1.02978  0  0  0.108004  0.100812  0  1.031769  0
H  H17  1  0.29169636  0.07816453  0.52551519  1  0  0.091864  0  0.961157  0  0  0.10197  0  1.031121  0  0  0.103709  0  1.029751  0  0  0.108005  0.100783  0  1.031774  0
H  H18  1  0.62541559  0.80781343  0.61004860  1  0  0.11333  0  0.941196  0  0  0.126931  0  1.001064  0  0  0.129645  0  0.99897  0  0  0.11958  0.124846  0  1.003034  0
H  H19  1  0.37459767  0.19220339  0.38993844  1  0  0.113383  0  0.94117  0  0  0.126962  0  1.00108  0  0  0.129676  0  0.998989  0  0  0.11962  0.124876  0  1.003044  0
H  H20  1  0.61710787  0.85445835  0.75848027  1  0  0.114639  0  0.895311  0  0  0.135489  0  0.940492  0  0  0.137366  0  0.939323  0  0  0.12664  0.133711  0  0.94218  0
H  H21  1  0.38289177  0.14556670  0.24150937  1  0  0.114585  0  0.895324  0  0  0.13551  0  0.940463  0  0  0.137371  0  0.939282  0  0  0.126654  0.133742  0  0.942152  0
H  H22  1  0.74896170  0.92432974  0.72889059  1  0  0.10787  0  0.955102  0  0  0.112773  0  1.030158  0  0  0.115045  0  1.028592  0  0  0.112509  0.110928  0  1.031654  0
H  H23  1  0.25104886  0.07566363  0.27111981  1  0  0.107887  0  0.955121  0  0  0.112796  0  1.030189  0  0  0.115052  0  1.028618  0  0  0.112498  0.110953  0  1.031683  0
H  H24  1  0.03252527  0.92478117  0.73082188  1  0  0.119774  0  0.932102  0  0  0.130302  0  0.996581  0  0  0.132475  0  0.995137  0  0  0.123133  0.128694  0  0.997665  0
H  H25  1  0.96748740  0.07529804  0.26912731  1  0  0.11982  0  0.932017  0  0  0.13038  0  0.996319  0  0  0.132514  0  0.994922  0  0  0.123084  0.128809  0  0.997369  0
H  H26  1  0.19176182  0.94582263  0.71928530  1  0  0.102359  0  0.914878  0  0  0.115063  0  0.976748  0  0  0.117187  0  0.97452  0  0  0.114689  0.11334  0  0.978742  0
H  H27  1  0.80826434  0.05416949  0.28071271  1  0  0.10241  0  0.915182  0  0  0.115093  0  0.976936  0  0  0.117234  0  0.974697  0  0  0.114654  0.113374  0  0.978927  0
H  H28  1  0.41905296  0.89206995  0.55953744  1  0  0.089263  0  0.938402  0  0  0.102172  0  1.001388  0  0  0.103993  0  0.999656  0  0  0.109552  0.100855  0  1.002511  0
H  H29  1  0.58097248  0.10795670  0.44041850  1  0  0.089319  0  0.938423  0  0  0.10225  0  1.001383  0  0  0.104075  0  0.999652  0  0  0.109587  0.100919  0  1.002524  0
H  H30  1  0.42917714  0.86147493  0.42591459  1  0  0.121222  0  0.944269  0  0  0.128153  0  1.011654  0  0  0.130797  0  1.010164  0  0  0.116828  0.126344  0  1.012567  0
H  H31  1  0.57083661  0.13849650  0.57408484  1  0  0.121126  0  0.944381  0  0  0.128058  0  1.011713  0  0  0.130699  0  1.010226  0  0  0.116813  0.126248  0  1.012628  0
H  H32  1  0.84545977  0.69947976  0.01950068  1  0  0.43343  0  0.869175  0  0  0.39957  0  0.936751  0  0  0.41153  0  0.919665  0  0  0.290415  0.391043  0  0.948909  0
H  H33  1  0.15447533  0.30049055  0.98053634  1  0  0.433453  0  0.869123  0  0  0.399602  0  0.936747  0  0  0.41158  0  0.919623  0  0  0.290331  0.391074  0  0.948907  0
H  H34  1  0.94081559  0.74078595  0.05334625  1  0  0.434283  0  0.824195  0  0  0.410349  0  0.884441  0  0  0.42038  0  0.873756  0  0  0.311815  0.403033  0  0.892314  0
H  H35  1  0.05919300  0.25919356  0.94659532  1  0  0.434269  0  0.824177  0  0  0.41039  0  0.884276  0  0  0.420408  0  0.87363  0  0  0.311993  0.40309  0  0.892126  0
H  H36  1  0.45365398  0.41756763  0.86563689  1  0  0.420383  0  0.881012  0  0  0.389322  0  0.945157  0  0  0.399833  0  0.930052  0  0  0.286463  0.381806  0  0.955944  0
H  H37  1  0.54635015  0.58243537  0.13436621  1  0  0.420432  0  0.880953  0  0  0.389365  0  0.945103  0  0  0.399874  0  0.930002  0  0  0.286522  0.38186  0  0.955884  0
H  H38  1  0.46467653  0.55242071  0.82313628  1  0  0.437239  0  0.854638  0  0  0.408267  0  0.914204  0  0  0.418956  0  0.898808  0  0  0.293431  0.40068  0  0.92513  0
H  H39  1  0.53531049  0.44758867  0.17686830  1  0  0.43723  0  0.854639  0  0  0.40822  0  0.914263  0  0  0.418907  0  0.898869  0  0  0.293458  0.400634  0  0.925186  0
C  C40  1  0.15773053  0.85204725  0.52782747  1  0  0.578228  0  3.797363  0  0  0.525735  0  4.086362  0  0  0.555679  0  4.089362  0  0  0.350583  0.505717  0  4.083926  0
C  C41  1  0.84228068  0.14797965  0.47214227  1  0  0.578184  0  3.79761  0  0  0.525628  0  4.086797  0  0  0.555579  0  4.089798  0  0  0.350603  0.505608  0  4.084363  0
C  C42  1  0.95391303  0.83728107  0.53286990  1  0  0.539781  0  3.845416  0  0  0.491409  0  4.133085  0  0  0.519228  0  4.138147  0  0  0.340176  0.472917  0  4.129009  0
C  C43  1  0.04608359  0.16274148  0.46711225  1  0  0.539553  0  3.845225  0  0  0.491262  0  4.132854  0  0  0.519075  0  4.137925  0  0  0.340197  0.472789  0  4.128757  0
C  C44  1  0.15692644  0.84325194  0.34884273  1  0  0.527119  0  3.890088  0  0  0.477988  0  4.176624  0  0  0.506448  0  4.181142  0  0  0.33483  0.459094  0  4.172789  0
C  C45  1  0.84308079  0.15675271  0.65114401  1  0  0.526974  0  3.890176  0  0  0.47797  0  4.176657  0  0  0.506432  0  4.181177  0  0  0.334779  0.459069  0  4.172805  0
C  C46  1  0.16887248  0.80184237  0.16910028  1  0  -0.146068  0  3.632437  0  0  -0.208924  0  3.888557  0  0  -0.208545  0  3.893325  0  0  -0.053637  -0.209061  0  3.885231  0
C  C47  1  0.83115616  0.19814341  0.83089340  1  0  -0.14634  0  3.632481  0  0  -0.209094  0  3.88855  0  0  -0.208696  0  3.893308  0  0  -0.053748  -0.209248  0  3.885263  0
C  C48  1  0.16843014  0.66341915  0.23001588  1  0  0.715259  0  3.807527  0  0  0.663895  0  4.105869  0  0  0.69863  0  4.098901  0  0  0.218435  0.639988  0  4.109973  0
C  C49  1  0.83160186  0.33656540  0.76998490  1  0  0.715323  0  3.807758  0  0  0.663931  0  4.106043  0  0  0.698665  0  4.099075  0  0  0.218291  0.640035  0  4.110132  0
C  C50  1  0.37269818  0.87048873  0.14876972  1  0  -0.132781  0  3.633262  0  0  -0.192884  0  3.887329  0  0  -0.1926  0  3.893227  0  0  -0.049644  -0.192862  0  3.883318  0
C  C51  1  0.62734578  0.12946312  0.85123249  1  0  -0.13265  0  3.632635  0  0  -0.192834  0  3.887049  0  0  -0.192622  0  3.893022  0  0  -0.049688  -0.192798  0  3.883034  0
C  C52  1  0.49269630  0.78636139  0.20224423  1  0  0.687623  0  3.844784  0  0  0.629828  0  4.155075  0  0  0.663534  0  4.149605  0  0  0.208949  0.606686  0  4.158177  0
C  C53  1  0.50731380  0.21361543  0.79780293  1  0  0.688207  0  3.843943  0  0  0.630224  0  4.154576  0  0  0.663958  0  4.149099  0  0  0.209059  0.607088  0  4.157688  0
C  C54  1  0.73140653  0.82691342  0.53722575  1  0  -0.157597  0  3.667589  0  0  -0.220799  0  3.924579  0  0  -0.221141  0  3.930991  0  0  -0.063218  -0.220299  0  3.919917  0
C  C55  1  0.26860596  0.17309955  0.46276382  1  0  -0.157523  0  3.667363  0  0  -0.220854  0  3.924457  0  0  -0.221215  0  3.930844  0  0  -0.063251  -0.220322  0  3.919801  0
C  C56  1  0.79752778  0.73462355  0.45611588  1  0  0.715631  0  3.842389  0  0  0.659336  0  4.14848  0  0  0.695131  0  4.140748  0  0  0.216806  0.634889  0  4.152924  0
C  C57  1  0.20249506  0.26538090  0.54387737  1  0  0.715422  0  3.842144  0  0  0.65931  0  4.14797  0  0  0.695175  0  4.14014  0  0  0.216837  0.634855  0  4.152402  0
C  C58  1  0.73586504  0.83880836  0.73079177  1  0  -0.145354  0  3.640342  0  0  -0.206288  0  3.895672  0  0  -0.206134  0  3.90107  0  0  -0.054264  -0.206341  0  3.892446  0
C  C59  1  0.26413017  0.16119681  0.26920294  1  0  -0.145368  0  3.640284  0  0  -0.206379  0  3.895812  0  0  -0.206136  0  3.901101  0  0  -0.054256  -0.20646  0  3.892618  0
C  C60  1  0.77753839  0.73160941  0.83810583  1  0  0.716786  0  3.825319  0  0  0.663209  0  4.129754  0  0  0.698147  0  4.121918  0  0  0.22256  0.639146  0  4.134555  0
C  C61  1  0.22244031  0.26838905  0.16189090  1  0  0.717135  0  3.8252  0  0  0.6634  0  4.129911  0  0  0.698314  0  4.122072  0  0  0.222615  0.639335  0  4.134713  0
C  C62  1  0.15055081  0.88049428  0.71402230  1  0  -0.135599  0  3.652039  0  0  -0.198318  0  3.911627  0  0  -0.198168  0  3.918135  0  0  -0.05667  -0.198257  0  3.907161  0
C  C63  1  0.84945216  0.11953844  0.28594147  1  0  -0.136122  0  3.651967  0  0  -0.19845  0  3.911016  0  0  -0.198295  0  3.91758  0  0  -0.056802  -0.198414  0  3.906536  0
C  C64  1  0.15913868  0.76294691  0.82389556  1  0  0.656482  0  3.89383  0  0  0.61083  0  4.19194  0  0  0.643595  0  4.18929  0  0  0.186852  0.588552  0  4.192683  0
C  C65  1  0.84075788  0.23709130  0.17607946  1  0  0.656618  0  3.893915  0  0  0.610735  0  4.192253  0  0  0.643499  0  4.189601  0  0  0.186929  0.588461  0  4.193011  0
C  C66  1  0.39007914  0.83558803  0.53038417  1  0  -0.153331  0  3.624832  0  0  -0.213601  0  3.875752  0  0  -0.214037  0  3.882819  0  0  -0.061956  -0.212878  0  3.870587  0
C  C67  1  0.60992437  0.16441147  0.46961322  1  0  -0.153381  0  3.624989  0  0  -0.21359  0  3.876  0  0  -0.214023  0  3.883076  0  0  -0.061989  -0.212877  0  3.870863  0
C  C68  1  0.46515356  0.69567210  0.57897583  1  0  0.704188  0  3.809086  0  0  0.65323  0  4.109871  0  0  0.687165  0  4.103149  0  0  0.210848  0.629968  0  4.113838  0
C  C69  1  0.53482358  0.30433003  0.42108687  1  0  0.703847  0  3.808664  0  0  0.652798  0  4.109606  0  0  0.686723  0  4.102923  0  0  0.210805  0.629552  0  4.113541  0
N  N70  1  0.81588414  0.81648687  0.60390432  1  0  -0.19737  0  3.406284  0  0  -0.109885  0  3.638343  0  0  -0.128893  0  3.658039  0  0  -0.284205  -0.096914  0  3.624213  0
N  N71  1  0.18412289  0.18353557  0.39608162  1  0  -0.197137  0  3.405539  0  0  -0.109677  0  3.637679  0  0  -0.128709  0  3.657358  0  0  -0.284212  -0.096706  0  3.623551  0
N  N72  1  0.01567998  0.83732053  0.40871277  1  0  -0.567801  0  3.015313  0  0  -0.534099  0  3.304137  0  0  -0.556511  0  3.311463  0  0  -0.348316  -0.518807  0  3.298788  0
N  N73  1  0.98432096  0.16269509  0.59127898  1  0  -0.56783  0  3.01504  0  0  -0.534141  0  3.303753  0  0  -0.556557  0  3.311087  0  0  -0.348348  -0.518839  0  3.298377  0
N  N74  1  0.22930544  0.84340408  0.22224698  1  0  -0.185927  0  3.413195  0  0  -0.10194  0  3.648226  0  0  -0.120895  0  3.668416  0  0  -0.276947  -0.088806  0  3.633562  0
N  N75  1  0.77072359  0.15657534  0.77774245  1  0  -0.185669  0  3.412761  0  0  -0.101772  0  3.647773  0  0  -0.120727  0  3.668013  0  0  -0.276678  -0.08862  0  3.633101  0
N  N76  1  0.23618950  0.84411784  0.40466732  1  0  -0.614699  0  3.044696  0  0  -0.569416  0  3.32713  0  0  -0.593151  0  3.332085  0  0  -0.357199  -0.552902  0  3.323297  0
N  N77  1  0.76381594  0.15588579  0.59532134  1  0  -0.614713  0  3.044469  0  0  -0.569441  0  3.326906  0  0  -0.593159  0  3.331828  0  0  -0.35726  -0.552932  0  3.323072  0
N  N78  1  0.22914028  0.86183595  0.58634386  1  0  -0.163515  0  3.389712  0  0  -0.079523  0  3.622896  0  0  -0.098991  0  3.643849  0  0  -0.266928  -0.066544  0  3.608427  0
N  N79  1  0.77085848  0.13820772  0.41362567  1  0  -0.163183  0  3.389362  0  0  -0.079462  0  3.622703  0  0  -0.098941  0  3.643673  0  0  -0.266968  -0.066484  0  3.608245  0
N  N80  1  0.01481233  0.85156730  0.59566167  1  0  -0.549842  0  2.974674  0  0  -0.517971  0  3.261151  0  0  -0.539605  0  3.26703  0  0  -0.346039  -0.50346  0  3.257079  0
N  N81  1  0.98518462  0.14846531  0.40432549  1  0  -0.549762  0  2.975419  0  0  -0.517874  0  3.261944  0  0  -0.539503  0  3.267807  0  0  -0.346049  -0.503379  0  3.257889  0
O  O82  1  0.90040742  0.67137686  0.07705035  1  0  -0.851492  0  1.913452  0  0  -0.779365  0  2.124766  0  0  -0.805254  0  2.090305  0  0  -0.566608  -0.76077  0  2.148846  0
O  O83  1  0.09955664  0.32860887  0.92295787  1  0  -0.851425  0  1.913551  0  0  -0.779346  0  2.124706  0  0  -0.805238  0  2.090253  0  0  -0.56653  -0.760676  0  2.148745  0
O  O84  1  0.09932955  0.62640448  0.19716861  1  0  -0.710362  0  2.081674  0  0  -0.626406  0  2.348995  0  0  -0.660791  0  2.335483  0  0  -0.342709  -0.602084  0  2.357614  0
O  O85  1  0.90072087  0.37356432  0.80283116  1  0  -0.710346  0  2.081721  0  0  -0.626466  0  2.349247  0  0  -0.660856  0  2.335745  0  0  -0.342609  -0.602195  0  2.357867  0
O  O86  1  0.22553478  0.59261700  0.31034647  1  0  -0.642535  0  2.077155  0  0  -0.58195  0  2.34359  0  0  -0.610778  0  2.331188  0  0  -0.312222  -0.561834  0  2.351743  0
O  O87  1  0.77447782  0.40738176  0.68966915  1  0  -0.642539  0  2.077042  0  0  -0.58188  0  2.34338  0  0  -0.610707  0  2.330978  0  0  -0.312201  -0.561811  0  2.351559  0
O  O88  1  0.51371860  0.66452850  0.23921167  1  0  -0.729747  0  2.105953  0  0  -0.640685  0  2.367243  0  0  -0.672587  0  2.351371  0  0  -0.337857  -0.617925  0  2.377344  0
O  O89  1  0.48630574  0.33544084  0.76083718  1  0  -0.729924  0  2.105622  0  0  -0.640918  0  2.367198  0  0  -0.672825  0  2.351314  0  0  -0.337823  -0.618215  0  2.377416  0
O  O90  1  0.18434817  0.54095639  0.61457043  1  0  -1.107429  0  1.624569  0  0  -0.967767  0  1.940134  0  0  -1.027963  0  1.922074  0  0  -0.601698  -0.925404  0  1.951015  0
O  O91  1  0.81565411  0.45903822  0.38545336  1  0  -1.107376  0  1.624331  0  0  -0.967749  0  1.939971  0  0  -1.027919  0  1.921854  0  0  -0.60167  -0.925399  0  1.950872  0
O  O92  1  0.49013039  0.61969868  0.51738012  1  0  -0.729119  0  2.100247  0  0  -0.641886  0  2.375066  0  0  -0.675812  0  2.360336  0  0  -0.334855  -0.617657  0  2.384131  0
O  O93  1  0.50984218  0.38026880  0.48272687  1  0  -0.728739  0  2.100043  0  0  -0.641665  0  2.375248  0  0  -0.675567  0  2.360452  0  0  -0.334782  -0.617336  0  2.38411  0
O  O94  1  0.88569172  0.62639712  0.48299198  1  0  -0.688028  0  2.179438  0  0  -0.60285  0  2.45785  0  0  -0.636824  0  2.444267  0  0  -0.323458  -0.578634  0  2.466125  0
O  O95  1  0.11431727  0.37360676  0.51701280  1  0  -0.687913  0  2.179261  0  0  -0.602739  0  2.457506  0  0  -0.636738  0  2.443887  0  0  -0.32349  -0.578622  0  2.46597  0
O  O96  1  0.43595838  0.48414901  0.90223833  1  0  -0.827079  0  1.81791  0  0  -0.764498  0  1.989877  0  0  -0.788958  0  1.956559  0  0  -0.585397  -0.747072  0  2.013093  0
O  O97  1  0.56404003  0.51585458  0.09777171  1  0  -0.827029  0  1.818132  0  0  -0.764468  0  1.990193  0  0  -0.788922  0  1.956871  0  0  -0.585413  -0.747019  0  2.013348  0
O  O98  1  0.57450383  0.83431398  0.20273186  1  0  -0.578827  0  1.938431  0  0  -0.518135  0  2.168506  0  0  -0.546223  0  2.159259  0  0  -0.303332  -0.498929  0  2.174752  0
O  O99  1  0.42549232  0.16566202  0.79733259  1  0  -0.579165  0  1.938133  0  0  -0.518347  0  2.168263  0  0  -0.546437  0  2.159004  0  0  -0.303512  -0.499154  0  2.174527  0
O  O100  1  0.50080215  0.66270112  0.67161538  1  0  -0.617156  0  1.937589  0  0  -0.559622  0  2.153013  0  0  -0.584533  0  2.143105  0  0  -0.308036  -0.542444  0  2.159876  0
O  O101  1  0.49913585  0.33734311  0.32846328  1  0  -0.617194  0  1.937539  0  0  -0.559424  0  2.152784  0  0  -0.584333  0  2.142898  0  0  -0.307989  -0.54227  0  2.159621  0
O  O102  1  0.17400309  0.65762799  0.81420697  1  0  -0.610509  0  1.948102  0  0  -0.550251  0  2.183124  0  0  -0.580727  0  2.175676  0  0  -0.320756  -0.528927  0  2.18754  0
O  O103  1  0.82600648  0.34238893  0.18573416  1  0  -0.61084  0  1.948522  0  0  -0.550374  0  2.183449  0  0  -0.580856  0  2.176008  0  0  -0.321006  -0.529019  0  2.187816  0
O  O104  1  0.14472791  0.77864910  0.92539643  1  0  -0.679903  0  1.918196  0  0  -0.619668  0  2.141959  0  0  -0.649646  0  2.132495  0  0  -0.349968  -0.598706  0  2.147906  0
O  O105  1  0.85502799  0.22140387  0.07463025  1  0  -0.679563  0  1.918001  0  0  -0.619336  0  2.141896  0  0  -0.649302  0  2.132448  0  0  -0.349538  -0.598365  0  2.147824  0
O  O106  1  0.83422040  0.61881345  0.82388512  1  0  -0.692975  0  2.133809  0  0  -0.603762  0  2.408501  0  0  -0.639497  0  2.393329  0  0  -0.327232  -0.578418  0  2.418029  0
O  O107  1  0.16580778  0.38119022  0.17608373  1  0  -0.693195  0  2.1337  0  0  -0.603896  0  2.408368  0  0  -0.639658  0  2.393269  0  0  -0.327249  -0.578523  0  2.417884  0
O  O108  1  0.74479874  0.75958084  0.93701822  1  0  -0.617022  0  1.94824  0  0  -0.563497  0  2.168247  0  0  -0.589237  0  2.158346  0  0  -0.312491  -0.545408  0  2.174939  0
O  O109  1  0.25512763  0.24039208  0.06300055  1  0  -0.617272  0  1.948196  0  0  -0.563682  0  2.16828  0  0  -0.58943  0  2.158378  0  0  -0.312549  -0.545586  0  2.174973  0
O  O110  1  0.74924031  0.77250619  0.36931737  1  0  -0.63493  0  1.978024  0  0  -0.569479  0  2.226264  0  0  -0.598682  0  2.213881  0  0  -0.3266  -0.549175  0  2.234221  0
O  O111  1  0.25079524  0.22750138  0.63067031  1  0  -0.634881  0  1.977866  0  0  -0.569477  0  2.226  0  0  -0.598705  0  2.213585  0  0  -0.326575  -0.549136  0  2.233942  0
