# generated using pymatgen
data_LaH4C2SO8
_symmetry_space_group_name_H-M   'P 1'
_cell_length_a   6.54562763
_cell_length_b   9.72601419
_cell_length_c   10.93791521
_cell_angle_alpha   89.99983058
_cell_angle_beta   89.99945749
_cell_angle_gamma   97.41757979
_symmetry_Int_Tables_number   1
_chemical_formula_structural   LaH4C2SO8
_chemical_formula_sum   'La4 H16 C8 S4 O32'
_cell_volume   690.51179797
_cell_formula_units_Z   4
loop_
 _symmetry_equiv_pos_site_id
 _symmetry_equiv_pos_as_xyz
  1  'x, y, z'
loop_
 _atom_site_type_symbol
 _atom_site_label
 _atom_site_symmetry_multiplicity
 _atom_site_fract_x
 _atom_site_fract_y
 _atom_site_fract_z
 _atom_site_occupancy
 _atom_site_hle17_bader_spin_density
 _atom_site_hle17_ddec_charge
 _atom_site_hle17_ddec_spin_density
 _atom_site_hle17_ddec_sum_bond_order
 _atom_site_hle17_magmom
 _atom_site_hse06_10hf_bader_spin_density
 _atom_site_hse06_10hf_ddec_charge
 _atom_site_hse06_10hf_ddec_spin_density
 _atom_site_hse06_10hf_ddec_sum_bond_order
 _atom_site_hse06_10hf_magmom
 _atom_site_hse06_bader_spin_density
 _atom_site_hse06_ddec_charge
 _atom_site_hse06_ddec_spin_density
 _atom_site_hse06_ddec_sum_bond_order
 _atom_site_hse06_magmom
 _atom_site_pbe_bader_spin_density
 _atom_site_pbe_cm5_charge
 _atom_site_pbe_ddec_charge
 _atom_site_pbe_ddec_spin_density
 _atom_site_pbe_ddec_sum_bond_order
 _atom_site_pbe_magmom
La  La0  1  0.33042209  0.89094935  0.84292452  1  0  2.198193  0  1.705353  0  0  2.091715  0  2.198199  0  0  2.188266  0  2.096617  0  0  1.435818  2.016889  0  2.273029  0
La  La1  1  0.16957424  0.60905348  0.34292239  1  0  2.198262  0  1.70515  0  0  2.091769  0  2.198061  0  0  2.188313  0  2.096478  0  0  1.435838  2.016943  0  2.272886  0
La  La2  1  0.66956360  0.10904873  0.15707817  1  0  2.19815  0  1.705238  0  0  2.091698  0  2.198094  0  0  2.188245  0  2.096521  0  0  1.435787  2.016884  0  2.272914  0
La  La3  1  0.83042883  0.39094782  0.65707574  1  0  2.19823  0  1.705213  0  0  2.091762  0  2.198068  0  0  2.188309  0  2.096491  0  0  1.435835  2.016933  0  2.272901  0
H  H4  1  0.20902861  0.18779871  0.80350055  1  0  0.442787  0  0.822585  0  0  0.417372  0  0.890828  0  0  0.427223  0  0.876495  0  0  0.320545  0.41029  0  0.899288  0
H  H5  1  0.29096828  0.31220308  0.30349627  1  0  0.442783  0  0.822638  0  0  0.41737  0  0.890844  0  0  0.427222  0  0.876509  0  0  0.320567  0.410287  0  0.899337  0
H  H6  1  0.79096528  0.81220253  0.19650489  1  0  0.442835  0  0.822543  0  0  0.417418  0  0.890772  0  0  0.427271  0  0.876436  0  0  0.320575  0.410337  0  0.899251  0
H  H7  1  0.70903478  0.68779822  0.69650825  1  0  0.44281  0  0.822595  0  0  0.417392  0  0.890811  0  0  0.427244  0  0.876476  0  0  0.320553  0.410313  0  0.899297  0
H  H8  1  0.37918063  0.19649958  0.90553961  1  0  0.421249  0  0.885086  0  0  0.392951  0  0.945906  0  0  0.40271  0  0.931916  0  0  0.307099  0.386125  0  0.955808  0
H  H9  1  0.12081590  0.30350070  0.40553724  1  0  0.421314  0  0.885005  0  0  0.393024  0  0.945812  0  0  0.402784  0  0.93182  0  0  0.307114  0.386199  0  0.955711  0
H  H10  1  0.62081271  0.80349855  0.09446217  1  0  0.421294  0  0.885035  0  0  0.392991  0  0.94586  0  0  0.402751  0  0.931869  0  0  0.307096  0.386167  0  0.95576  0
H  H11  1  0.87918601  0.69650266  0.59446638  1  0  0.421321  0  0.885003  0  0  0.393014  0  0.945841  0  0  0.402774  0  0.931848  0  0  0.307099  0.386186  0  0.955745  0
H  H12  1  0.99259653  0.63187931  0.89244431  1  0  0.443574  0  0.8338  0  0  0.414203  0  0.901879  0  0  0.424349  0  0.887165  0  0  0.315358  0.406719  0  0.91277  0
H  H13  1  0.50740771  0.86811952  0.39244698  1  0  0.443586  0  0.833802  0  0  0.414221  0  0.901856  0  0  0.424368  0  0.887142  0  0  0.315375  0.40674  0  0.912742  0
H  H14  1  0.00740005  0.36811988  0.10755838  1  0  0.443642  0  0.833713  0  0  0.414269  0  0.901788  0  0  0.424414  0  0.887076  0  0  0.315358  0.406786  0  0.912677  0
H  H15  1  0.49259597  0.13187661  0.60756211  1  0  0.443518  0  0.833865  0  0  0.414144  0  0.901955  0  0  0.424292  0  0.88724  0  0  0.315329  0.406665  0  0.912835  0
H  H16  1  0.11064450  0.65641511  0.01755061  1  0  0.433452  0  0.859406  0  0  0.405141  0  0.920447  0  0  0.415568  0  0.905412  0  0  0.310109  0.3975  0  0.931479  0
H  H17  1  0.38935754  0.84358202  0.51755346  1  0  0.433427  0  0.859429  0  0  0.405114  0  0.920484  0  0  0.415545  0  0.905442  0  0  0.31009  0.39747  0  0.931518  0
H  H18  1  0.88936089  0.34358206  0.98245117  1  0  0.433384  0  0.859513  0  0  0.405019  0  0.920606  0  0  0.415449  0  0.905566  0  0  0.310051  0.397378  0  0.931636  0
H  H19  1  0.61063812  0.15641198  0.48245473  1  0  0.433387  0  0.859515  0  0  0.405044  0  0.920567  0  0  0.415473  0  0.905529  0  0  0.310103  0.397401  0  0.931599  0
C  C20  1  0.52347835  0.60479182  0.97738416  1  0  0.231086  0  3.82836  0  0  0.208013  0  4.108575  0  0  0.221528  0  4.118956  0  0  0.126813  0.198795  0  4.102143  0
C  C21  1  0.97652997  0.89521181  0.47738868  1  0  0.231092  0  3.828413  0  0  0.208061  0  4.108566  0  0  0.221574  0  4.118947  0  0  0.12681  0.19884  0  4.10213  0
C  C22  1  0.47652681  0.39521260  0.02259842  1  0  0.231131  0  3.828409  0  0  0.20812  0  4.10853  0  0  0.221645  0  4.118893  0  0  0.126818  0.198903  0  4.102094  0
C  C23  1  0.02347157  0.10478948  0.52260396  1  0  0.231187  0  3.828211  0  0  0.20819  0  4.108321  0  0  0.221719  0  4.118672  0  0  0.126883  0.198969  0  4.101889  0
C  C24  1  0.62187572  0.48275431  0.94387949  1  0  0.233209  0  3.812596  0  0  0.206718  0  4.09227  0  0  0.220678  0  4.103209  0  0  0.126689  0.196747  0  4.085347  0
C  C25  1  0.87813826  0.01724311  0.44388099  1  0  0.233368  0  3.812295  0  0  0.206865  0  4.091983  0  0  0.220833  0  4.102908  0  0  0.12678  0.196898  0  4.085058  0
C  C26  1  0.37813537  0.51724911  0.05610675  1  0  0.233312  0  3.812204  0  0  0.20677  0  4.091956  0  0  0.220736  0  4.102884  0  0  0.126713  0.196803  0  4.08503  0
C  C27  1  0.12186560  0.98275405  0.55611074  1  0  0.2333  0  3.81215  0  0  0.206799  0  4.091833  0  0  0.22077  0  4.102759  0  0  0.126734  0.196831  0  4.084907  0
S  S28  1  0.80651157  0.03322949  0.82233720  1  0  1.650007  0  5.79398  0  0  1.538071  0  6.323843  0  0  1.597486  0  6.290393  0  0  0.600749  1.495845  0  6.345689  0
S  S29  1  0.69348586  0.46677565  0.32233765  1  0  1.649977  0  5.793981  0  0  1.538073  0  6.323788  0  0  1.597492  0  6.29034  0  0  0.600749  1.495834  0  6.345639  0
S  S30  1  0.19348330  0.96676865  0.17766549  1  0  1.649926  0  5.794249  0  0  1.538033  0  6.324039  0  0  1.597448  0  6.290593  0  0  0.600763  1.495791  0  6.345891  0
S  S31  1  0.30651832  0.53323188  0.67766139  1  0  1.649959  0  5.793872  0  0  1.538018  0  6.323718  0  0  1.597434  0  6.290272  0  0  0.600805  1.495804  0  6.345552  0
O  O32  1  0.66631213  0.96261794  0.72811550  1  0  -0.772023  0  1.951604  0  0  -0.731026  0  2.219265  0  0  -0.759534  0  2.205082  0  0  -0.39495  -0.710008  0  2.228913  0
O  O33  1  0.83368722  0.53738162  0.22811719  1  0  -0.771886  0  1.95154  0  0  -0.730975  0  2.219273  0  0  -0.759488  0  2.205097  0  0  -0.394929  -0.709944  0  2.228916  0
O  O34  1  0.33367472  0.03737808  0.27188720  1  0  -0.771804  0  1.951455  0  0  -0.730912  0  2.219177  0  0  -0.759423  0  2.205002  0  0  -0.394981  -0.709891  0  2.228822  0
O  O35  1  0.16631567  0.46261864  0.77188093  1  0  -0.771987  0  1.951413  0  0  -0.731017  0  2.219091  0  0  -0.759523  0  2.204914  0  0  -0.394995  -0.709994  0  2.228731  0
O  O36  1  0.67799427  0.03216258  0.93711538  1  0  -0.844915  0  2.032666  0  0  -0.789526  0  2.309999  0  0  -0.823735  0  2.295564  0  0  -0.434812  -0.763657  0  2.319201  0
O  O37  1  0.82199762  0.46783888  0.43711601  1  0  -0.844961  0  2.032745  0  0  -0.78959  0  2.310143  0  0  -0.823799  0  2.295709  0  0  -0.434807  -0.763723  0  2.319345  0
O  O38  1  0.32199754  0.96783554  0.06288731  1  0  -0.844929  0  2.032701  0  0  -0.789611  0  2.310175  0  0  -0.823814  0  2.295734  0  0  -0.43484  -0.763742  0  2.319382  0
O  O39  1  0.17800466  0.53216656  0.56288394  1  0  -0.844903  0  2.032648  0  0  -0.789532  0  2.310047  0  0  -0.823738  0  2.295614  0  0  -0.434814  -0.763673  0  2.319252  0
O  O40  1  0.98268647  0.95629669  0.84255507  1  0  -0.773918  0  2.044135  0  0  -0.726993  0  2.323455  0  0  -0.756816  0  2.305541  0  0  -0.413319  -0.704941  0  2.33623  0
O  O41  1  0.51731188  0.54370751  0.34255213  1  0  -0.77397  0  2.044162  0  0  -0.726997  0  2.323431  0  0  -0.756822  0  2.305519  0  0  -0.413344  -0.704943  0  2.336206  0
O  O42  1  0.01730877  0.04370352  0.15744946  1  0  -0.773974  0  2.044111  0  0  -0.726988  0  2.323351  0  0  -0.756807  0  2.305433  0  0  -0.413325  -0.704933  0  2.336126  0
O  O43  1  0.48269077  0.45630001  0.65744691  1  0  -0.773936  0  2.044141  0  0  -0.726989  0  2.323454  0  0  -0.756808  0  2.305539  0  0  -0.413337  -0.704942  0  2.336233  0
O  O44  1  0.88114908  0.17877327  0.78788691  1  0  -0.795365  0  1.997149  0  0  -0.744861  0  2.267304  0  0  -0.773411  0  2.249717  0  0  -0.386326  -0.72356  0  2.27892  0
O  O45  1  0.61884801  0.32122684  0.28788359  1  0  -0.795375  0  1.99699  0  0  -0.744895  0  2.267164  0  0  -0.773451  0  2.249585  0  0  -0.386342  -0.723589  0  2.278779  0
O  O46  1  0.11884463  0.82122693  0.21211579  1  0  -0.795367  0  1.997331  0  0  -0.744852  0  2.267481  0  0  -0.773409  0  2.249903  0  0  -0.386285  -0.723542  0  2.279092  0
O  O47  1  0.38115103  0.67877754  0.71211911  1  0  -0.795326  0  1.997092  0  0  -0.744804  0  2.267231  0  0  -0.773369  0  2.249674  0  0  -0.386321  -0.723504  0  2.278841  0
O  O48  1  0.55269820  0.73250117  0.95295330  1  0  -0.561819  0  2.159449  0  0  -0.516526  0  2.401424  0  0  -0.543028  0  2.397184  0  0  -0.341271  -0.497873  0  2.404893  0
O  O49  1  0.94730942  0.76749635  0.45295283  1  0  -0.56186  0  2.159227  0  0  -0.516591  0  2.401181  0  0  -0.543092  0  2.396941  0  0  -0.341323  -0.497936  0  2.404649  0
O  O50  1  0.44730463  0.26750737  0.04704208  1  0  -0.561752  0  2.159396  0  0  -0.516498  0  2.40135  0  0  -0.543001  0  2.397108  0  0  -0.341195  -0.497842  0  2.404814  0
O  O51  1  0.05268985  0.23250078  0.54704438  1  0  -0.561828  0  2.159262  0  0  -0.516613  0  2.401247  0  0  -0.543117  0  2.396995  0  0  -0.341308  -0.497963  0  2.404718  0
O  O52  1  0.77308502  0.45986887  0.87831907  1  0  -0.578147  0  2.162671  0  0  -0.521565  0  2.399368  0  0  -0.549734  0  2.395786  0  0  -0.339652  -0.500587  0  2.401686  0
O  O53  1  0.72691592  0.04012671  0.37832045  1  0  -0.57827  0  2.162408  0  0  -0.521702  0  2.399115  0  0  -0.54988  0  2.395536  0  0  -0.339685  -0.500734  0  2.40144  0
O  O54  1  0.22693237  0.54013563  0.12167357  1  0  -0.578293  0  2.162415  0  0  -0.521705  0  2.399199  0  0  -0.54984  0  2.395546  0  0  -0.339704  -0.500727  0  2.401516  0
O  O55  1  0.27308242  0.95986524  0.62167951  1  0  -0.578251  0  2.16219  0  0  -0.521706  0  2.398959  0  0  -0.549863  0  2.39533  0  0  -0.339693  -0.500733  0  2.401276  0
O  O56  1  0.34205170  0.15711160  0.82367407  1  0  -0.862853  0  1.846665  0  0  -0.82269  0  2.040509  0  0  -0.846627  0  2.01077  0  0  -0.608167  -0.804795  0  2.059971  0
O  O57  1  0.15794792  0.34289011  0.32366956  1  0  -0.862915  0  1.846649  0  0  -0.82276  0  2.040469  0  0  -0.846692  0  2.010711  0  0  -0.608199  -0.804878  0  2.059987  0
O  O58  1  0.65794316  0.84288654  0.17632954  1  0  -0.862929  0  1.846567  0  0  -0.822779  0  2.04042  0  0  -0.84671  0  2.010662  0  0  -0.608185  -0.804891  0  2.05991  0
O  O59  1  0.84205418  0.65711429  0.67633314  1  0  -0.862932  0  1.846565  0  0  -0.822775  0  2.040404  0  0  -0.846703  0  2.010647  0  0  -0.608167  -0.804881  0  2.059892  0
O  O60  1  0.07888032  0.70213360  0.94065891  1  0  -0.8646  0  1.849668  0  0  -0.821027  0  2.0451  0  0  -0.844976  0  2.012734  0  0  -0.624708  -0.80351  0  2.068614  0
O  O61  1  0.42111803  0.79786361  0.44065852  1  0  -0.864611  0  1.849676  0  0  -0.821049  0  2.045097  0  0  -0.844996  0  2.012726  0  0  -0.624721  -0.803545  0  2.068637  0
O  O62  1  0.92111264  0.29786246  0.05934470  1  0  -0.864561  0  1.849618  0  0  -0.820932  0  2.04516  0  0  -0.844881  0  2.012791  0  0  -0.624625  -0.803432  0  2.068714  0
O  O63  1  0.57887702  0.20213557  0.55934418  1  0  -0.864492  0  1.849766  0  0  -0.820874  0  2.045313  0  0  -0.844825  0  2.012941  0  0  -0.624677  -0.803354  0  2.068834  0
