# generated using pymatgen
data_Zn4H8C40Br12O13
_symmetry_space_group_name_H-M   'P 1'
_cell_length_a   23.91276130
_cell_length_b   23.91424631
_cell_length_c   23.91240785
_cell_angle_alpha   66.86641876
_cell_angle_beta   72.33402677
_cell_angle_gamma   107.67533698
_symmetry_Int_Tables_number   1
_chemical_formula_structural   Zn4H8C40Br12O13
_chemical_formula_sum   'Zn8 H16 C80 Br24 O26'
_cell_volume   10494.37001153
_cell_formula_units_Z   2
loop_
 _symmetry_equiv_pos_site_id
 _symmetry_equiv_pos_as_xyz
  1  'x, y, z'
loop_
 _atom_site_type_symbol
 _atom_site_label
 _atom_site_symmetry_multiplicity
 _atom_site_fract_x
 _atom_site_fract_y
 _atom_site_fract_z
 _atom_site_occupancy
 _atom_site_pbe_bader_charge
 _atom_site_pbe_bader_spin_density
 _atom_site_pbe_cm5_charge
 _atom_site_pbe_ddec_charge
 _atom_site_pbe_ddec_spin_density
 _atom_site_pbe_ddec_sum_bond_order
 _atom_site_pbe_magmom
Zn  Zn0  1  0.05732354  0.95776411  0.48492398  1  1.32018  0  0.675945  0.971617  0  2.369326  0
Zn  Zn1  1  0.05732308  0.09956114  0.45776519  1  1.319779  0  0.676146  0.97195  0  2.368959  0
Zn  Zn2  1  0.94267442  0.98492340  0.45775783  1  1.320292  0  0.676  0.971625  0  2.369306  0
Zn  Zn3  1  0.94269049  0.95776092  0.59956191  1  1.319933  0  0.676027  0.971689  0  2.369114  0
Zn  Zn4  1  0.94267842  0.54223813  0.01507647  1  1.320107  0  0.675928  0.971601  0  2.369343  0
Zn  Zn5  1  0.05733129  0.51508208  0.04224188  1  1.320512  0  0.67605  0.971783  0  2.368979  0
Zn  Zn6  1  0.94268038  0.40044175  0.04224097  1  1.31982  0  0.676076  0.971722  0  2.369207  0
Zn  Zn7  1  0.05731030  0.54223762  0.90043762  1  1.319951  0  0.675991  0.971644  0  2.36923  0
H  H8  1  0.92394180  0.65183483  0.11216486  1  0.125762  0  0.112768  0.134427  0  0.9899  0
H  H9  1  0.07605454  0.61215636  0.15187685  1  0.14048  0  0.112814  0.134298  0  0.989962  0
H  H10  1  0.92393759  0.88784022  0.34813299  1  0.140273  0  0.112749  0.134316  0  0.989985  0
H  H11  1  0.07600400  0.84809993  0.38790262  1  0.14009  0  0.112832  0.134391  0  0.989856  0
H  H12  1  0.07607559  0.46387459  0.77211100  1  0.140309  0  0.112826  0.134432  0  0.989821  0
H  H13  1  0.92395166  0.27207666  0.96390885  1  0.140987  0  0.112789  0.134353  0  0.989882  0
H  H14  1  0.07600792  0.22791408  0.53610722  1  0.141341  0  0.112809  0.134292  0  0.989856  0
H  H15  1  0.92393489  0.03610010  0.72791564  1  0.140577  0  0.112767  0.134421  0  0.989864  0
H  H16  1  0.73598718  0.46388834  0.11213986  1  0.144098  0  0.112826  0.134405  0  0.989964  0
H  H17  1  0.73598544  0.27208116  0.15187458  1  0.136459  0  0.112795  0.134359  0  0.98998  0
H  H18  1  0.26402429  0.22792017  0.34811775  1  0.136267  0  0.112847  0.134293  0  0.990002  0
H  H19  1  0.26401390  0.03612191  0.38779344  1  0.092286  0  0.112753  0.134394  0  0.989862  0
H  H20  1  0.26402937  0.61212304  0.96388392  1  0.144538  0  0.112825  0.134344  0  0.99001  0
H  H21  1  0.26400261  0.65186503  0.77207225  1  0.136323  0  0.112687  0.134262  0  0.989876  0
H  H22  1  0.73599643  0.84813175  0.72792433  1  0.135951  0  0.112701  0.134169  0  0.989945  0
H  H23  1  0.73597535  0.88781245  0.53612381  1  0.091865  0  0.112816  0.134561  0  0.989906  0
C  C24  1  0.18181089  0.09091492  0.40908584  1  1.541946  0  0.231359  0.609399  0  4.157808  0
C  C25  1  0.99999980  0.13680318  0.36320018  1  1.612256  0  0.228591  0.62913  0  4.122784  0
C  C26  1  0.99998410  0.90909206  0.40910343  1  1.523704  0  0.231513  0.609337  0  4.157314  0
C  C27  1  0.81819265  0.90908746  0.59091613  1  1.542139  0  0.231327  0.609162  0  4.157549  0
C  C28  1  0.00000491  0.86320194  0.63680312  1  1.61269  0  0.228751  0.629316  0  4.122271  0
C  C29  1  0.99999059  0.09090172  0.59091126  1  1.558059  0  0.231539  0.609554  0  4.157509  0
C  C30  1  0.00000674  0.59089751  0.09091166  1  1.5234  0  0.23136  0.609101  0  4.158027  0
C  C31  1  0.00000468  0.36320072  0.13680260  1  1.611883  0  0.228654  0.629088  0  4.122637  0
C  C32  1  0.81819069  0.40908916  0.09089993  1  1.541707  0  0.231376  0.609114  0  4.157775  0
C  C33  1  0.99999621  0.40908198  0.90910913  1  1.558564  0  0.231399  0.609267  0  4.157614  0
C  C34  1  0.00000128  0.63680201  0.86319248  1  1.6123  0  0.228857  0.629505  0  4.121823  0
C  C35  1  0.18180886  0.59089986  0.90908468  1  1.54206  0  0.231421  0.609296  0  4.157567  0
C  C36  1  0.00000379  0.80510741  0.69489344  1  0.061773  0  -0.015407  -0.098683  0  3.842441  0
C  C37  1  0.00000152  0.69489566  0.80510611  1  0.06147  0  -0.015469  -0.09876  0  3.842497  0
C  C38  1  0.95701201  0.77689613  0.76609168  1  0.011189  0  -0.013545  0.049621  0  3.871173  0
C  C39  1  0.04299269  0.72310735  0.73390848  1  0.012086  0  -0.013535  0.049666  0  3.871221  0
C  C40  1  0.95701045  0.72310283  0.81988641  1  -0.076092  0  -0.013504  0.049613  0  3.871099  0
C  C41  1  0.04299410  0.77689894  0.68011448  1  -0.07605  0  -0.013492  0.049576  0  3.871203  0
C  C42  1  0.99999892  0.19489310  0.30510826  1  0.061449  0  -0.015385  -0.098642  0  3.842402  0
C  C43  1  0.00000762  0.30511285  0.19489283  1  0.061773  0  -0.015554  -0.098618  0  3.84253  0
C  C44  1  0.95701454  0.18012018  0.27688350  1  -0.076439  0  -0.013507  0.049748  0  3.871192  0
C  C45  1  0.04299064  0.31988545  0.22311520  1  -0.07608  0  -0.013448  0.049716  0  3.871395  0
C  C46  1  0.95701790  0.23391424  0.22309044  1  0.011601  0  -0.013527  0.049463  0  3.871333  0
C  C47  1  0.04298640  0.26609051  0.27691055  1  0.011863  0  -0.013622  0.049454  0  3.871285  0
C  C48  1  0.00000164  0.62832384  0.12834477  1  0.099014  0  -0.012403  -0.005811  0  3.968848  0
C  C49  1  0.95706526  0.65698163  0.13465066  1  0.036458  0  -0.087133  -0.148923  0  3.963475  0
C  C50  1  0.95728210  0.69168033  0.16947266  1  -0.148012  0  -0.004039  0.08768  0  3.910946  0
C  C51  1  0.99998870  0.69938330  0.19941407  1  0.209402  0  -0.003427  0.049456  0  4.058497  0
C  C52  1  0.04269695  0.66944956  0.19172432  1  -0.14811  0  -0.003996  0.087873  0  3.911092  0
C  C53  1  0.04292765  0.63463365  0.15702041  1  0.021676  0  -0.087176  -0.148801  0  3.963512  0
C  C54  1  0.99998023  0.73467053  0.23470045  1  -0.241547  0  -0.04016  -0.067673  0  4.111484  0
C  C55  1  0.99997214  0.76529411  0.26534005  1  -0.03814  0  -0.039768  -0.066977  0  4.111199  0
C  C56  1  0.99996477  0.80056688  0.30063932  1  0.207569  0  -0.003588  0.049446  0  4.058544  0
C  C57  1  0.95727053  0.83051876  0.30831249  1  -0.147364  0  -0.004132  0.087524  0  3.911063  0
C  C58  1  0.95704880  0.86534416  0.34300994  1  0.020861  0  -0.08712  -0.149015  0  3.963403  0
C  C59  1  0.99997196  0.87164594  0.37168878  1  0.100519  0  -0.012407  -0.005581  0  3.969057  0
C  C60  1  0.04288456  0.84296077  0.36540925  1  0.020357  0  -0.087221  -0.149051  0  3.96384  0
C  C61  1  0.04265464  0.80824693  0.33060177  1  -0.146033  0  -0.003825  0.088172  0  3.910896  0
C  C62  1  0.00000932  0.37164863  0.87168038  1  -0.001072  0  -0.012497  -0.006137  0  3.969323  0
C  C63  1  0.04294843  0.40827021  0.80009005  1  0.075351  0  -0.087118  -0.148694  0  3.963365  0
C  C64  1  0.04272879  0.37322962  0.76560899  1  -0.100336  0  -0.004094  0.087471  0  3.910884  0
C  C65  1  0.00001061  0.30058529  0.80061964  1  0.119442  0  -0.003416  0.049416  0  4.058278  0
C  C66  1  0.95730749  0.26557829  0.87326035  1  -0.100215  0  -0.004067  0.087844  0  3.911144  0
C  C67  1  0.95708205  0.30005623  0.90830079  1  0.074014  0  -0.087172  -0.148845  0  3.963743  0
C  C68  1  0.99999844  0.26530545  0.76532590  1  -0.036806  0  -0.039995  -0.067448  0  4.111854  0
C  C69  1  0.99998039  0.23467703  0.73469571  1  -0.241644  0  -0.039977  -0.067112  0  4.111868  0
C  C70  1  0.99996945  0.19939323  0.69940507  1  0.119021  0  -0.003386  0.049375  0  4.058509  0
C  C71  1  0.04266188  0.23440876  0.62675840  1  -0.100233  0  -0.003988  0.087957  0  3.91081  0
C  C72  1  0.04288868  0.19993113  0.59171658  1  0.073658  0  -0.08716  -0.148737  0  3.963393  0
C  C73  1  0.99997425  0.12833341  0.62834106  1  -0.000253  0  -0.012303  -0.005635  0  3.968992  0
C  C74  1  0.95705013  0.09170969  0.69993438  1  0.074774  0  -0.087223  -0.149249  0  3.963574  0
C  C75  1  0.95727230  0.12675021  0.73441554  1  -0.09988  0  -0.004079  0.087749  0  3.910943  0
C  C76  1  0.74333127  0.37165977  0.12833144  1  -0.014881  0  -0.012322  -0.005584  0  3.968821  0
C  C77  1  0.70835911  0.40827927  0.13462900  1  -0.053692  0  -0.087201  -0.148953  0  3.963887  0
C  C78  1  0.63883697  0.37323869  0.16944409  1  -0.001714  0  -0.003985  0.08796  0  3.910863  0
C  C79  1  0.60120647  0.30059531  0.19938913  1  0.150177  0  -0.003527  0.049074  0  4.058651  0
C  C80  1  0.63883701  0.26558276  0.19170916  1  -0.109347  0  -0.004054  0.087746  0  3.911072  0
C  C81  1  0.70835868  0.30006124  0.15700831  1  0.088047  0  -0.087144  -0.148902  0  3.963333  0
C  C82  1  0.53063199  0.26530633  0.23466974  1  -0.004238  0  -0.039939  -0.067183  0  4.111384  0
C  C83  1  0.46937181  0.23468383  0.26528697  1  -0.320014  0  -0.039969  -0.067338  0  4.111507  0
C  C84  1  0.39879959  0.19941112  0.30055672  1  0.151916  0  -0.003505  0.049576  0  4.058235  0
C  C85  1  0.36116727  0.23441724  0.30825941  1  -0.110774  0  -0.004013  0.087874  0  3.911012  0
C  C86  1  0.29165051  0.19994162  0.34296518  1  0.089039  0  -0.087253  -0.148746  0  3.963904  0
C  C87  1  0.25667314  0.12834764  0.37163251  1  -0.015218  0  -0.012424  -0.006041  0  3.969289  0
C  C88  1  0.29163941  0.09172637  0.36531150  1  -0.000919  0  -0.086991  -0.14865  0  3.963566  0
C  C89  1  0.36115947  0.12676744  0.33048597  1  -0.003645  0  -0.004101  0.087336  0  3.910971  0
C  C90  1  0.25666808  0.62831815  0.87165551  1  -0.015077  0  -0.012229  -0.005531  0  3.968704  0
C  C91  1  0.29164996  0.63461092  0.90827629  1  -0.053946  0  -0.087264  -0.148913  0  3.963707  0
C  C92  1  0.36117155  0.66942422  0.87323396  1  -0.001645  0  -0.004055  0.087853  0  3.91084  0
C  C93  1  0.39879664  0.69937544  0.80058529  1  0.150518  0  -0.003382  0.049571  0  4.058293  0
C  C94  1  0.36115664  0.69169388  0.76557366  1  -0.109084  0  -0.004097  0.087584  0  3.911031  0
C  C95  1  0.29163483  0.65699426  0.80005351  1  0.087595  0  -0.087137  -0.148945  0  3.963014  0
C  C96  1  0.46937074  0.73466767  0.76529892  1  -0.319876  0  -0.040077  -0.067393  0  4.111457  0
C  C97  1  0.53063178  0.76529676  0.73469054  1  -0.004397  0  -0.039855  -0.067204  0  4.111504  0
C  C98  1  0.60120512  0.80058045  0.69941571  1  0.152237  0  -0.003454  0.049383  0  4.058611  0
C  C99  1  0.63884389  0.80827947  0.73442501  1  -0.110056  0  -0.004082  0.087657  0  3.911231  0
C  C100  1  0.70836524  0.84298434  0.69994573  1  0.088178  0  -0.087055  -0.148483  0  3.963325  0
C  C101  1  0.74333311  0.87165067  0.62834892  1  -0.014331  0  -0.012422  -0.006022  0  3.96915  0
C  C102  1  0.70835515  0.86533638  0.59172582  1  -0.001467  0  -0.087109  -0.148921  0  3.963368  0
C  C103  1  0.63883372  0.83051441  0.62677068  1  -0.00293  0  -0.004127  0.087593  0  3.910702  0
Br  Br104  1  0.89643330  0.80873687  0.79482026  1  0.027501  0  0.041071  -0.016601  0  1.603262  0
Br  Br105  1  0.10357121  0.69126590  0.70517899  1  0.027884  0  0.041072  -0.016607  0  1.603247  0
Br  Br106  1  0.89643218  0.69125852  0.91230543  1  0.031046  0  0.041031  -0.016653  0  1.603262  0
Br  Br107  1  0.10357085  0.80874123  0.58769546  1  0.030552  0  0.041087  -0.016596  0  1.603218  0
Br  Br108  1  0.89643398  0.08770444  0.30871563  1  0.025811  0  0.041078  -0.016644  0  1.603209  0
Br  Br109  1  0.10356795  0.41230209  0.19128371  1  0.026288  0  0.041064  -0.016646  0  1.603242  0
Br  Br110  1  0.89644776  0.20519183  0.19122933  1  0.032679  0  0.041089  -0.016558  0  1.603372  0
Br  Br111  1  0.10355301  0.29481511  0.30877521  1  0.032145  0  0.041111  -0.016572  0  1.603278  0
Br  Br112  1  0.10160293  0.67664925  0.22961005  1  -0.035399  0  0.026129  -0.058693  0  1.414258  0
Br  Br113  1  0.89837039  0.72954800  0.17665850  1  -0.02684  0  0.026116  -0.058635  0  1.414283  0
Br  Br114  1  0.10154207  0.77034776  0.32344867  1  -0.026656  0  0.026053  -0.058869  0  1.414243  0
Br  Br115  1  0.89840051  0.82335601  0.27038416  1  -0.035562  0  0.026137  -0.058649  0  1.414469  0
Br  Br116  1  0.89840268  0.16879514  0.92496796  1  -0.033701  0  0.026106  -0.058705  0  1.414297  0
Br  Br117  1  0.10163559  0.42493648  0.66882944  1  -0.033753  0  0.026099  -0.058607  0  1.414464  0
Br  Br118  1  0.89839381  0.07503533  0.83120557  1  -0.042078  0  0.026112  -0.058667  0  1.414313  0
Br  Br119  1  0.10154937  0.33119483  0.57504944  1  -0.041119  0  0.026053  -0.058826  0  1.414261  0
Br  Br120  1  0.59376113  0.16879731  0.22961101  1  -0.034391  0  0.026098  -0.058668  0  1.414276  0
Br  Br121  1  0.59376361  0.42494952  0.17661706  1  -0.024713  0  0.026117  -0.0587  0  1.414315  0
Br  Br122  1  0.40623037  0.07506034  0.32328634  1  -0.024021  0  0.026051  -0.058683  0  1.414436  0
Br  Br123  1  0.40624877  0.33120005  0.27038493  1  -0.034322  0  0.026065  -0.058795  0  1.414178  0
Br  Br124  1  0.40622016  0.72960193  0.66878470  1  -0.026917  0  0.026118  -0.058657  0  1.41439  0
Br  Br125  1  0.40625089  0.67659531  0.92494826  1  -0.025584  0  0.026131  -0.058745  0  1.414359  0
Br  Br126  1  0.59375080  0.82331535  0.57506348  1  -0.03197  0  0.02612  -0.058671  0  1.414394  0
Br  Br127  1  0.59378132  0.77040715  0.83120838  1  -0.033774  0  0.026102  -0.058699  0  1.414262  0
O  O128  1  0.00000298  0.00000301  0.49999947  1  -1.232678  0  -0.571142  -1.03063  0  2.531426  0
O  O129  1  0.15298269  0.02590860  0.43302630  1  -1.166179  0  -0.312413  -0.54235  0  2.335695  0
O  O130  1  0.03971053  0.15397744  0.38571626  1  -1.176214  0  -0.313422  -0.542136  0  2.487011  0
O  O131  1  0.95891966  0.93302850  0.41399004  1  -1.163635  0  -0.312516  -0.542408  0  2.33539  0
O  O132  1  0.15298569  0.12708401  0.41399261  1  -1.164163  0  -0.312408  -0.542434  0  2.33578  0
O  O133  1  0.04106132  0.91399354  0.43303208  1  -1.163518  0  -0.312477  -0.542429  0  2.335727  0
O  O134  1  0.96028195  0.07457701  0.38573115  1  -1.175824  0  -0.313472  -0.542282  0  2.486505  0
O  O135  1  0.84701486  0.93302042  0.52591120  1  -1.166077  0  -0.312411  -0.542303  0  2.335774  0
O  O136  1  0.96031096  0.88572653  0.65397989  1  -1.176727  0  -0.313414  -0.54218  0  2.486659  0
O  O137  1  0.84702520  0.91398740  0.62708768  1  -1.164576  0  -0.312447  -0.542258  0  2.335431  0
O  O138  1  0.03970729  0.88572433  0.57457699  1  -1.175862  0  -0.313578  -0.542321  0  2.486401  0
O  O139  1  0.04106341  0.12707714  0.52591022  1  -1.180664  0  -0.312449  -0.542551  0  2.335864  0
O  O140  1  0.95893071  0.02589804  0.62708719  1  -1.181025  0  -0.312517  -0.542462  0  2.335442  0
O  O141  1  0.00000217  0.50000105  0.00000011  1  -1.232652  0  -0.571119  -1.030599  0  2.531319  0
O  O142  1  0.95893063  0.58599664  0.06698035  1  -1.163345  0  -0.312509  -0.542364  0  2.335947  0
O  O143  1  0.03972503  0.42542938  0.11426880  1  -1.175564  0  -0.31343  -0.542336  0  2.486804  0
O  O144  1  0.84701807  0.37291759  0.08600519  1  -1.164116  0  -0.312453  -0.542364  0  2.335792  0
O  O145  1  0.04108070  0.56697371  0.08601426  1  -1.163635  0  -0.312425  -0.542306  0  2.335626  0
O  O146  1  0.84701634  0.47409087  0.06696582  1  -1.166132  0  -0.312434  -0.542284  0  2.33579  0
O  O147  1  0.96028968  0.34602636  0.11428969  1  -1.176116  0  -0.313467  -0.542097  0  2.486622  0
O  O148  1  0.95892558  0.37291187  0.97410557  1  -1.181529  0  -0.312447  -0.542307  0  2.335626  0
O  O149  1  0.03968928  0.61426886  0.84601812  1  -1.176442  0  -0.313431  -0.542187  0  2.486649  0
O  O150  1  0.04106210  0.47408752  0.87292881  1  -1.18058  0  -0.31243  -0.542316  0  2.335719  0
O  O151  1  0.96030121  0.61428140  0.92542490  1  -1.175768  0  -0.313681  -0.542512  0  2.485977  0
O  O152  1  0.15299103  0.56697698  0.97408682  1  -1.166196  0  -0.312441  -0.542336  0  2.33576  0
O  O153  1  0.15297450  0.58600485  0.87291425  1  -1.164243  0  -0.312552  -0.542545  0  2.335511  0
