# generated using pymatgen
data_CuH6C7NO6
_symmetry_space_group_name_H-M   'P 1'
_cell_length_a   6.43417874
_cell_length_b   7.11260543
_cell_length_c   18.09552730
_cell_angle_alpha   89.99892032
_cell_angle_beta   90.00104156
_cell_angle_gamma   105.49721358
_symmetry_Int_Tables_number   1
_chemical_formula_structural   CuH6C7NO6
_chemical_formula_sum   'Cu4 H24 C28 N4 O24'
_cell_volume   798.01205828
_cell_formula_units_Z   4
loop_
 _symmetry_equiv_pos_site_id
 _symmetry_equiv_pos_as_xyz
  1  'x, y, z'
loop_
 _atom_site_type_symbol
 _atom_site_label
 _atom_site_symmetry_multiplicity
 _atom_site_fract_x
 _atom_site_fract_y
 _atom_site_fract_z
 _atom_site_occupancy
 _atom_site_hle17_ddec_charge
 _atom_site_hle17_ddec_spin_density
 _atom_site_hle17_ddec_sum_bond_order
 _atom_site_hle17_magmom
 _atom_site_hse06_10hf_ddec_charge
 _atom_site_hse06_10hf_ddec_spin_density
 _atom_site_hse06_10hf_ddec_sum_bond_order
 _atom_site_hse06_10hf_magmom
 _atom_site_hse06_ddec_charge
 _atom_site_hse06_ddec_spin_density
 _atom_site_hse06_ddec_sum_bond_order
 _atom_site_hse06_magmom
 _atom_site_pbe_cm5_charge
 _atom_site_pbe_ddec_charge
 _atom_site_pbe_ddec_spin_density
 _atom_site_pbe_ddec_sum_bond_order
 _atom_site_pbe_magmom
Cu  Cu0  1  0.72417307  0.10275290  0.31126126  1  0.956443  0.781701  1.726418  0.527  0.952808  0.857641  2.101053  0.654  1.038378  0.939878  2.039975  0.741  0.741454  0.894216  0.786734  2.150346  0.586
Cu  Cu1  1  0.77597961  0.89723932  0.81111340  1  0.955787  -0.727162  1.727205  -0.534  0.952665  -0.8121  2.101276  -0.656  1.038654  -0.878476  2.039906  -0.742  0.741333  0.894882  -0.761751  2.149856  -0.596
Cu  Cu2  1  0.27599583  0.89724274  0.68889866  1  0.956341  -0.728026  1.72736  -0.535  0.952645  -0.812289  2.101129  -0.656  1.038534  -0.878615  2.039891  -0.742  0.741244  0.894888  -0.761942  2.149646  -0.596
Cu  Cu3  1  0.22413776  0.10273072  0.18874423  1  0.956026  -0.717229  1.726671  -0.527  0.952683  -0.808808  2.10148  -0.653  1.038294  -0.877434  2.040377  -0.741  0.741453  0.894091  -0.748943  2.150812  -0.586
H  H4  1  0.85992528  0.28161312  0.19855638  1  0.425882  -4.9e-05  0.880733  -0.001  0.397487  0.00024  0.941411  0.0  0.410361  0.000157  0.923108  0.0  0.294834  0.388481  0.000289  0.95423  0.0
H  H5  1  0.64024326  0.71839324  0.69841065  1  0.4259  0.000487  0.880934  0.001  0.397536  -9.2e-05  0.941617  0.0  0.410432  3.2e-05  0.92327  0.0  0.294706  0.388459  -0.000191  0.954569  0.0
H  H6  1  0.14023515  0.71840024  0.80160078  1  0.425964  0.000493  0.880858  0.001  0.397519  -8.9e-05  0.941616  0.0  0.410399  3.5e-05  0.923288  0.0  0.294648  0.388472  -0.000188  0.954533  0.0
H  H7  1  0.35991425  0.28159086  0.30143096  1  0.426018  0.000123  0.880578  0.001  0.397558  -0.0002  0.941336  0.0  0.410429  -0.000123  0.923038  0.0  0.294915  0.388546  -0.000251  0.954164  0.0
H  H8  1  0.88270436  0.44760996  0.26277722  1  0.427297  0.000141  0.874621  -0.001  0.401642  0.000474  0.93105  0.0  0.413272  0.000291  0.914714  0.0  0.29627  0.393496  0.000638  0.94245  0.0
H  H9  1  0.61732511  0.55233897  0.76262486  1  0.427036  -5.4e-05  0.874821  0.001  0.401205  -0.000415  0.931466  0.0  0.412856  -0.000237  0.915119  0.0  0.296158  0.393081  -0.000582  0.942836  0.0
H  H10  1  0.11734893  0.55233904  0.73738823  1  0.427174  -5.5e-05  0.874671  0.001  0.401381  -0.000416  0.931256  0.0  0.413031  -0.000238  0.914908  0.0  0.296181  0.393255  -0.000583  0.942628  0.0
H  H11  1  0.38277041  0.44763579  0.23720846  1  0.427166  -6.3e-05  0.874792  0.001  0.401502  -0.000432  0.931251  0.0  0.413125  -0.000256  0.91492  0.0  0.296156  0.393366  -0.000597  0.942641  0.0
H  H12  1  0.07600046  0.38695737  0.36645121  1  0.410562  -6.4e-05  0.859429  0.0  0.387312  -0.000114  0.931833  0.0  0.3969  -9.7e-05  0.9183  0.0  0.29743  0.380457  -0.000111  0.939981  0.0
H  H13  1  0.42427998  0.61345296  0.86632088  1  0.410554  -0.000187  0.859412  0.0  0.387303  -0.000223  0.931891  0.0  0.396888  -0.000142  0.91835  0.0  0.297685  0.38049  -0.000318  0.939978  0.0
H  H14  1  0.92428668  0.61347179  0.63369048  1  0.41039  -0.0002  0.859522  0.0  0.387076  -0.000231  0.932066  0.0  0.396676  -0.000149  0.91861  0.0  0.297496  0.380249  -0.000327  0.94016  0.0
H  H15  1  0.57602818  0.38695391  0.13353510  1  0.410601  9e-05  0.859462  0.0  0.387352  0.000133  0.931854  0.0  0.396939  0.000112  0.918261  0.0  0.297511  0.380497  0.000133  0.940008  0.0
H  H16  1  0.06198627  0.19976112  0.41549659  1  0.419561  -9.4e-05  0.886534  0.0  0.388024  -3.6e-05  0.9524  0.0  0.400621  -4e-05  0.934118  0.0  0.282271  0.379189  -1.1e-05  0.965173  0.0
H  H17  1  0.43839670  0.80055649  0.91540803  1  0.420051  9.7e-05  0.885786  0.0  0.38816  2.6e-05  0.952231  0.0  0.400793  3.5e-05  0.933891  0.0  0.282352  0.379338  -1.1e-05  0.964982  0.0
H  H18  1  0.93839577  0.80055378  0.58458873  1  0.42005  0.000111  0.885838  0.0  0.388106  4.2e-05  0.952364  0.0  0.400738  4.3e-05  0.934027  0.0  0.282304  0.379284  1.7e-05  0.965115  0.0
H  H19  1  0.56202940  0.19979000  0.08448552  1  0.419737  9.2e-05  0.886294  0.0  0.388231  2.7e-05  0.952115  0.0  0.400834  3.7e-05  0.933821  0.0  0.282445  0.379398  -9e-06  0.964881  0.0
H  H20  1  0.25806736  0.70494145  0.50112310  1  0.138866  0.000789  0.948485  0.001  0.146568  0.000723  1.010331  0.001  0.149909  0.000489  1.008183  0.001  0.119433  0.143932  0.000907  1.01216  0.001
H  H21  1  0.24175357  0.29507137  0.00106458  1  0.139594  -0.000928  0.947724  -0.001  0.147222  -0.000739  1.009596  -0.001  0.150604  -0.000497  1.007405  -0.001  0.119662  0.144542  -0.000929  1.011488  -0.001
H  H22  1  0.74172948  0.29505242  0.49894287  1  0.139556  -0.000714  0.947893  -0.001  0.147199  -0.000676  1.009789  -0.001  0.150579  -0.000453  1.007597  -0.001  0.119681  0.144526  -0.000852  1.011672  -0.001
H  H23  1  0.75811327  0.70496249  0.99887871  1  0.138999  -0.00093  0.948353  -0.001  0.146666  -0.000737  1.010169  -0.001  0.150007  -0.000496  1.008024  -0.001  0.11954  0.144026  -0.000931  1.011984  -0.001
H  H24  1  0.79179894  0.48928437  0.42081525  1  0.136115  0.000817  0.980123  0.001  0.141955  0.000688  1.045055  0.001  0.144987  0.000447  1.043279  0.001  0.116415  0.139442  0.00089  1.046766  0.001
H  H25  1  0.70787010  0.51053519  0.92077435  1  0.135714  -0.000987  0.980437  -0.001  0.141587  -0.000742  1.045329  -0.001  0.144622  -0.000484  1.043563  -0.001  0.116347  0.139039  -0.000959  1.047041  -0.001
H  H26  1  0.20786542  0.51050922  0.57924354  1  0.135708  -0.000751  0.98051  -0.001  0.141555  -0.000642  1.045401  -0.001  0.144585  -0.000412  1.04364  -0.001  0.116376  0.139011  -0.000838  1.047126  -0.001
H  H27  1  0.29183105  0.48931647  0.07919768  1  0.135982  -0.000983  0.980423  -0.001  0.141905  -0.000746  1.045253  -0.001  0.144929  -0.000486  1.043499  -0.001  0.11648  0.139392  -0.000966  1.04696  -0.001
C  C28  1  0.46015898  0.86470439  0.41616681  1  0.116742  -0.008635  3.7291  -0.01  0.119223  -0.000991  3.980887  -0.002  0.123626  -0.002284  3.998085  -0.004  0.119487  0.115688  -8.5e-05  3.970478  -0.001
C  C29  1  0.03979689  0.13529567  0.91607792  1  0.116667  0.006651  3.72985  0.007  0.119296  0.000832  3.981336  0.002  0.123739  0.001929  3.998562  0.003  0.119542  0.11582  2.1e-05  3.970911  0.001
C  C30  1  0.53980687  0.13530308  0.58392127  1  0.116708  0.009767  3.729671  0.01  0.11942  0.00127  3.981221  0.002  0.123863  0.002658  3.998429  0.004  0.119572  0.115934  0.000288  3.970817  0.001
C  C31  1  0.96015884  0.86466945  0.08382945  1  0.11675  0.006677  3.729378  0.007  0.119319  0.000895  3.981084  0.002  0.123693  0.001973  3.998276  0.003  0.11946  0.115749  9.1e-05  3.970688  0.001
C  C32  1  0.39793260  0.71177770  0.46618618  1  -0.117562  0.014858  3.596657  0.014  -0.150101  0.004905  3.844492  0.005  -0.152998  0.005128  3.859994  0.005  -0.058019  -0.148656  0.004822  3.835534  0.005
C  C33  1  0.10192390  0.28818977  0.96609819  1  -0.118045  -0.007496  3.596501  -0.008  -0.150584  -0.003103  3.844287  -0.003  -0.153521  -0.002976  3.859791  -0.003  -0.05821  -0.149121  -0.003222  3.835268  -0.003
C  C34  1  0.60190947  0.28820669  0.53389858  1  -0.11785  -0.01375  3.596678  -0.014  -0.150554  -0.004648  3.844607  -0.005  -0.153485  -0.004789  3.860105  -0.005  -0.058238  -0.149085  -0.00465  3.835606  -0.005
C  C35  1  0.89795401  0.71175013  0.03381581  1  -0.118002  -0.007482  3.597337  -0.008  -0.150284  -0.003127  3.844882  -0.003  -0.153176  -0.003014  3.860385  -0.003  -0.058161  -0.148829  -0.003204  3.835907  -0.003
C  C36  1  0.52308387  0.57722122  0.47157297  1  0.107849  -0.012932  3.678064  -0.013  0.117665  -0.003598  3.91679  -0.004  0.122231  -0.004146  3.933519  -0.005  0.022558  0.113833  -0.003244  3.906943  -0.003
C  C37  1  0.97668781  0.42267997  0.97149917  1  0.107851  0.008418  3.677913  0.007  0.11761  0.002795  3.916612  0.002  0.122192  0.002995  3.933356  0.003  0.022942  0.113749  0.002661  3.906721  0.002
C  C38  1  0.47667327  0.42268530  0.52850129  1  0.107618  0.013981  3.678518  0.013  0.117445  0.003712  3.917154  0.004  0.12202  0.004364  3.933897  0.005  0.022862  0.113584  0.003288  3.907283  0.003
C  C39  1  0.02311001  0.57722742  0.02842202  1  0.10782  0.008458  3.678091  0.007  0.117535  0.002908  3.916918  0.003  0.122099  0.00309  3.933646  0.003  0.022457  0.11371  0.002775  3.907047  0.002
C  C40  1  0.69421475  0.59295239  0.42136716  1  -0.101896  0.014487  3.57086  0.013  -0.133237  0.004781  3.815068  0.005  -0.13576  0.005068  3.830088  0.005  -0.055325  -0.131887  0.004578  3.806449  0.004
C  C41  1  0.80550510  0.40688545  0.92130614  1  -0.101093  -0.007265  3.571377  -0.007  -0.132248  -0.003124  3.815149  -0.003  -0.134776  -0.003038  3.830195  -0.003  -0.055098  -0.130879  -0.003111  3.806478  -0.003
C  C42  1  0.30551488  0.40689592  0.57869771  1  -0.100966  -0.013358  3.571416  -0.013  -0.132084  -0.004574  3.815111  -0.005  -0.134596  -0.004782  3.830153  -0.005  -0.055061  -0.130717  -0.004424  3.806473  -0.004
C  C43  1  0.19424838  0.59295957  0.07862554  1  -0.101649  -0.007275  3.570788  -0.007  -0.133173  -0.003083  3.815092  -0.003  -0.13569  -0.003011  3.830122  -0.003  -0.055391  -0.131828  -0.003071  3.806468  -0.003
C  C44  1  0.74206013  0.74625326  0.37126098  1  0.127366  -0.00894  3.710419  -0.01  0.130143  -0.001346  3.957472  -0.003  0.135393  -0.002599  3.972389  -0.004  0.123965  0.125695  -0.0004  3.94886  -0.002
C  C45  1  0.75775955  0.25361863  0.87119087  1  0.127547  0.006715  3.710317  0.007  0.13017  0.000839  3.957046  0.002  0.135441  0.002024  3.972036  0.003  0.123734  0.125742  -0.000166  3.948454  0.001
C  C46  1  0.25776207  0.25361272  0.62881108  1  0.127475  0.009669  3.710257  0.01  0.130112  0.001224  3.956981  0.002  0.135356  0.002684  3.971995  0.004  0.123675  0.125674  5.5e-05  3.948407  0.001
C  C47  1  0.24207457  0.74627062  0.12872590  1  0.127384  0.007156  3.711096  0.007  0.130349  0.001313  3.957928  0.002  0.135571  0.00236  3.972882  0.004  0.124092  0.125885  0.000473  3.949293  0.001
C  C48  1  0.35558682  0.02885520  0.40616829  1  0.61639  -0.001516  3.890012  -0.002  0.563248  0.001327  4.1968  0.001  0.597946  0.0012  4.191767  0.001  0.217929  0.539561  0.001461  4.199126  0.0
C  C49  1  0.14446260  0.97116727  0.90613173  1  0.616521  0.002116  3.889516  0.003  0.56322  -0.001055  4.196368  -0.001  0.597924  -0.000956  4.191356  -0.001  0.217857  0.539554  -0.001201  4.198775  0.0
C  C50  1  0.64445976  0.97118184  0.59387447  1  0.616315  0.002077  3.889443  0.003  0.562924  -0.001053  4.196427  -0.001  0.597633  -0.000946  4.191422  -0.001  0.21778  0.539258  -0.001204  4.19884  0.0
C  C51  1  0.85557186  0.02880107  0.09381930  1  0.616738  0.002032  3.889963  0.003  0.563165  -0.001117  4.197442  -0.001  0.597871  -0.001015  4.192408  -0.001  0.218015  0.539488  -0.001256  4.199745  0.0
C  C52  1  0.91593004  0.78628161  0.31281381  1  0.636906  -0.002524  3.873253  -0.004  0.58946  0.001379  4.183602  0.001  0.627235  0.001243  4.174008  0.001  0.218359  0.56354  0.001518  4.18841  0.0
C  C53  1  0.58386199  0.21359575  0.81274396  1  0.636278  0.003613  3.873169  0.005  0.589287  -0.001005  4.18294  0.0  0.62709  -0.000909  4.173455  -0.001  0.218561  0.563385  -0.001171  4.187559  0.0
C  C54  1  0.08389334  0.21359314  0.68726156  1  0.636254  0.003543  3.872889  0.005  0.589287  -0.001002  4.182531  0.0  0.627101  -0.000911  4.173043  -0.001  0.218517  0.563386  -0.001166  4.187162  0.0
C  C55  1  0.41590606  0.78629596  0.18717834  1  0.637036  0.003204  3.872334  0.004  0.589528  -0.00115  4.182696  -0.001  0.627296  -0.00103  4.173125  -0.001  0.218446  0.563628  -0.001296  4.18748  0.0
N  N56  1  0.63046344  0.87985419  0.37213821  1  -0.30135  0.113871  3.445191  0.133  -0.271459  0.071737  3.730777  0.091  -0.300854  0.05897  3.751718  0.077  -0.357435  -0.254183  0.077614  3.719717  0.095
N  N57  1  0.86947642  0.12007889  0.87204279  1  -0.302452  -0.100156  3.445117  -0.127  -0.272197  -0.066515  3.730253  -0.089  -0.301723  -0.05349  3.751272  -0.075  -0.358037  -0.255461  -0.072806  3.719548  -0.094
N  N58  1  0.36948437  0.12009052  0.62795263  1  -0.302392  -0.104795  3.445278  -0.133  -0.27219  -0.067829  3.73035  -0.091  -0.301692  -0.055013  3.751369  -0.077  -0.357907  -0.255416  -0.074025  3.719616  -0.095
N  N59  1  0.13049532  0.87984789  0.12784911  1  -0.301411  -0.100008  3.445741  -0.127  -0.271546  -0.066309  3.731157  -0.089  -0.300898  -0.053382  3.752081  -0.075  -0.357442  -0.254238  -0.072691  3.72006  -0.094
O  O60  1  0.78701057  0.32364570  0.24231762  1  -0.809293  0.047854  1.972895  0.057  -0.766983  0.03268  2.183236  0.042  -0.797229  0.026953  2.14516  0.036  -0.585054  -0.745701  0.035728  2.209909  0.044
O  O61  1  0.71311094  0.67625277  0.74218154  1  -0.809109  -0.043706  1.972884  -0.057  -0.76669  -0.030454  2.183354  -0.042  -0.797068  -0.024608  2.145207  -0.036  -0.584932  -0.745684  -0.033816  2.210079  -0.044
O  O62  1  0.21311216  0.67625683  0.75783346  1  -0.809366  -0.043693  1.972875  -0.057  -0.76683  -0.030459  2.183407  -0.042  -0.797181  -0.024613  2.145314  -0.036  -0.584893  -0.745859  -0.033812  2.210081  -0.044
O  O63  1  0.28705466  0.32367258  0.25766118  1  -0.809278  -0.043859  1.972729  -0.057  -0.766971  -0.030753  2.183184  -0.042  -0.797227  -0.025019  2.145146  -0.036  -0.585111  -0.745691  -0.033996  2.209856  -0.044
O  O64  1  0.01733328  0.66271252  0.29819055  1  -0.578731  0.020943  1.939612  0.025  -0.53235  0.009128  2.153651  0.012  -0.560094  0.004198  2.145792  0.006  -0.303661  -0.5118  0.014674  2.157765  0.018
O  O65  1  0.48249187  0.33715163  0.79814009  1  -0.578399  -0.018651  1.940143  -0.024  -0.531863  -0.008646  2.153959  -0.012  -0.559611  -0.003886  2.146115  -0.006  -0.303623  -0.51146  -0.013836  2.158055  -0.018
O  O66  1  0.98251631  0.33715159  0.70187653  1  -0.578493  -0.018562  1.939746  -0.024  -0.531937  -0.008652  2.15345  -0.012  -0.559695  -0.003868  2.145609  -0.006  -0.303616  -0.511517  -0.013853  2.157541  -0.018
O  O67  1  0.51735973  0.66273883  0.20181978  1  -0.579001  -0.019341  1.938962  -0.025  -0.532608  -0.008591  2.153031  -0.012  -0.560353  -0.003905  2.14517  -0.006  -0.303793  -0.512061  -0.013966  2.157138  -0.018
O  O68  1  0.94675251  0.95390728  0.28093136  1  -0.610203  0.092568  2.082491  0.115  -0.607043  0.05353  2.394536  0.074  -0.651038  0.03876  2.384272  0.056  -0.311899  -0.575025  0.064445  2.400684  0.087
O  O69  1  0.55304255  0.04590525  0.78083827  1  -0.609077  -0.088164  2.082059  -0.122  -0.607189  -0.05311  2.394359  -0.081  -0.651502  -0.037472  2.384132  -0.061  -0.311494  -0.574806  -0.065873  2.400148  -0.095
O  O70  1  0.05307504  0.04591611  0.71916943  1  -0.609176  -0.087795  2.082227  -0.122  -0.607147  -0.053033  2.394526  -0.081  -0.651416  -0.037385  2.384224  -0.061  -0.31149  -0.574757  -0.065783  2.400292  -0.095
O  O71  1  0.44670545  0.95389735  0.21906192  1  -0.609948  -0.085045  2.082244  -0.115  -0.606879  -0.050357  2.394361  -0.074  -0.650868  -0.035976  2.384108  -0.056  -0.31192  -0.574866  -0.061309  2.400486  -0.087
O  O72  1  0.98044209  0.29510897  0.39973462  1  -0.838894  -0.000139  1.859542  0.001  -0.801651  0.000514  2.056198  0.002  -0.820866  0.000231  2.021208  0.001  -0.588039  -0.786589  0.000481  2.079062  0.001
O  O73  1  0.51996284  0.70528370  0.89958321  1  -0.838376  -0.001029  1.859241  -0.003  -0.801401  -0.000944  2.056299  -0.002  -0.820572  -0.000374  2.021152  -0.002  -0.588033  -0.786226  -0.001923  2.078876  -0.003
O  O74  1  0.01998767  0.70532394  0.60043746  1  -0.838272  -0.000976  1.859332  -0.003  -0.801135  -0.000877  2.056447  -0.002  -0.82031  -0.000335  2.02136  -0.002  -0.587798  -0.785943  -0.001833  2.079089  -0.003
O  O75  1  0.48046154  0.29511704  0.10025121  1  -0.838997  0.000222  1.859281  -0.001  -0.801845  -0.000467  2.055958  -0.002  -0.821042  -0.000155  2.020855  -0.001  -0.588311  -0.786797  -0.000482  2.07885  -0.002
O  O76  1  0.18276400  0.02426037  0.43802533  1  -0.536513  0.017133  1.96617  0.02  -0.487363  0.008533  2.178662  0.011  -0.514715  0.003963  2.174666  0.005  -0.278363  -0.467442  0.013672  2.1804  0.017
O  O77  1  0.31730298  0.97590284  0.93802194  1  -0.537033  -0.015614  1.965085  -0.02  -0.487509  -0.008012  2.177805  -0.011  -0.514899  -0.003677  2.173848  -0.005  -0.278433  -0.467662  -0.012929  2.179467  -0.017
O  O78  1  0.81735142  0.97590755  0.56198538  1  -0.537092  -0.015413  1.96412  -0.02  -0.487507  -0.007984  2.176884  -0.011  -0.514917  -0.003632  2.172938  -0.005  -0.278524  -0.467648  -0.012896  2.178561  -0.017
O  O79  1  0.68278195  0.02424208  0.06197330  1  -0.536497  -0.015869  1.966437  -0.02  -0.48728  -0.008036  2.179333  -0.011  -0.514633  -0.003687  2.17533  -0.005  -0.278333  -0.467365  -0.013027  2.181044  -0.017
O  O80  1  0.46278314  0.16861690  0.36346806  1  -0.625607  0.073663  2.082013  0.092  -0.585412  0.049356  2.348368  0.068  -0.627379  0.037303  2.342334  0.054  -0.312708  -0.556317  0.056866  2.352301  0.076
O  O81  1  0.03734670  0.83129162  0.86347109  1  -0.625867  -0.067336  2.08283  -0.092  -0.585404  -0.046257  2.348907  -0.069  -0.627381  -0.034271  2.342792  -0.054  -0.312777  -0.556645  -0.054014  2.352978  -0.076
O  O82  1  0.53736662  0.83131748  0.63652828  1  -0.625782  -0.067012  2.083531  -0.092  -0.585207  -0.046167  2.349483  -0.069  -0.627134  -0.034172  2.343305  -0.054  -0.312663  -0.556452  -0.053911  2.353571  -0.076
O  O83  1  0.96280068  0.16857538  0.13651696  1  -0.625614  -0.067808  2.081847  -0.092  -0.585397  -0.046498  2.348443  -0.069  -0.627398  -0.034691  2.342427  -0.054  -0.312803  -0.556295  -0.054176  2.352354  -0.076
