# generated using pymatgen
data_ZnH32C40N4O13
_symmetry_space_group_name_H-M   'P 1'
_cell_length_a   13.90087050
_cell_length_b   15.19427609
_cell_length_c   28.05191643
_cell_angle_alpha   89.94444811
_cell_angle_beta   90.64269564
_cell_angle_gamma   90.05704864
_symmetry_Int_Tables_number   1
_chemical_formula_structural   ZnH32C40N4O13
_chemical_formula_sum   'Zn2 H64 C80 N8 O26'
_cell_volume   5924.56965230
_cell_formula_units_Z   2
loop_
 _symmetry_equiv_pos_site_id
 _symmetry_equiv_pos_as_xyz
  1  'x, y, z'
loop_
 _atom_site_type_symbol
 _atom_site_label
 _atom_site_symmetry_multiplicity
 _atom_site_fract_x
 _atom_site_fract_y
 _atom_site_fract_z
 _atom_site_occupancy
 _atom_site_pbe_bader_charge
 _atom_site_pbe_bader_spin_density
 _atom_site_pbe_cm5_charge
 _atom_site_pbe_ddec_charge
 _atom_site_pbe_ddec_spin_density
 _atom_site_pbe_ddec_sum_bond_order
 _atom_site_pbe_magmom
Zn  Zn0  1  0.39932909  0.50017839  0.49962165  1  1.289215  0  0.674523  0.81973  0  2.440063  0
Zn  Zn1  1  0.60150619  0.50076035  0.49950605  1  1.276906  0  0.674846  0.818007  0  2.444481  0
H  H2  1  0.37236874  0.42206407  0.34978384  1  0.149851  0  0.128833  0.146609  0  0.968562  0
H  H3  1  0.63343007  0.57640621  0.65223421  1  0.150713  0  0.126596  0.141248  0  0.985287  0
H  H4  1  0.57590160  0.28656298  0.12169213  1  0.148412  0  0.124162  0.144478  0  0.972302  0
H  H5  1  0.31353676  0.65318316  0.87559925  1  0.139327  0  0.124604  0.145295  0  0.971315  0
H  H6  1  0.37516081  0.42594684  0.74184584  1  0.109795  0  0.129258  0.150347  0  0.951177  0
H  H7  1  0.62185900  0.57410339  0.25477107  1  0.142446  0  0.130019  0.150745  0  0.955201  0
H  H8  1  0.66070297  0.34501403  0.88024181  1  0.111166  0  0.116619  0.122258  0  0.977069  0
H  H9  1  0.37529634  0.68926941  0.12076078  1  0.105922  0  0.116865  0.122749  0  0.976329  0
H  H10  1  0.63705174  0.32397490  0.96726297  1  0.119238  0  0.111439  0.118243  0  1.020842  0
H  H11  1  0.35508207  0.68199660  0.03268192  1  0.111332  0  0.111292  0.117181  0  1.021734  0
H  H12  1  0.35206376  0.05975243  0.47437481  1  0.051713  0  0.101613  0.100032  0  1.004764  0
H  H13  1  0.64298497  0.94027830  0.47186372  1  0.049997  0  0.101494  0.100549  0  1.003837  0
H  H14  1  0.35475771  0.94152468  0.52682936  1  0.061638  0  0.101318  0.100372  0  1.005067  0
H  H15  1  0.64652769  0.06046084  0.52412091  1  0.061606  0  0.101246  0.099862  0  1.004222  0
H  H16  1  0.35197725  0.22400586  0.47497620  1  0.076168  0  0.10474  0.108293  0  0.999868  0
H  H17  1  0.64179970  0.77578076  0.47270572  1  0.093547  0  0.106218  0.113403  0  0.994507  0
H  H18  1  0.35397079  0.77725447  0.52636990  1  0.096523  0  0.104095  0.108593  0  0.999509  0
H  H19  1  0.64594070  0.22492854  0.52320369  1  0.080659  0  0.104479  0.109413  0  0.99785  0
H  H20  1  0.75331500  0.39953744  0.44951316  1  0.135531  0  0.132112  0.124238  0  0.971525  0
H  H21  1  0.24836658  0.63074787  0.47894488  1  0.14087  0  0.130281  0.122557  0  0.984388  0
H  H22  1  0.75133655  0.60166617  0.54935444  1  0.140658  0  0.132091  0.124261  0  0.971236  0
H  H23  1  0.24841076  0.37059448  0.52520863  1  0.143532  0  0.131634  0.125828  0  0.974236  0
H  H24  1  0.02001084  0.35507001  0.38601037  1  0.075364  0  0.112669  0.087097  0  0.945413  0
H  H25  1  0.01637881  0.46891130  0.40069636  1  0.033029  0  0.092389  0.048478  0  1.013606  0
H  H26  1  0.84570118  0.36127223  0.36144131  1  0.010721  0  0.095789  0.093752  0  0.963447  0
H  H27  1  0.84278959  0.47519758  0.37417200  1  0.060671  0  0.086333  0.082057  0  1.015004  0
H  H28  1  0.97093281  0.50227703  0.31215797  1  0.025654  0  0.082914  0.104306  0  1.026046  0
H  H29  1  0.86614794  0.45317548  0.28739389  1  0.037964  0  0.089644  0.121453  0  0.997791  0
H  H30  1  0.97056693  0.38832169  0.29822356  1  0.040172  0  0.086669  0.110197  0  1.002477  0
H  H31  1  0.97463450  0.72259518  0.43228893  1  0.064541  0  0.113448  0.088362  0  0.945338  0
H  H32  1  0.97555216  0.60756065  0.42094038  1  0.028312  0  0.094381  0.052763  0  1.012952  0
H  H33  1  0.14605274  0.73248341  0.40414937  1  0.017878  0  0.096698  0.09337  0  0.964243  0
H  H34  1  0.14372590  0.61932272  0.38972106  1  0.022025  0  0.089144  0.079756  0  0.987488  0
H  H35  1  0.00590717  0.64767795  0.33095123  1  0.00214  0  0.084992  0.109171  0  1.025716  0
H  H36  1  0.11000492  0.70973951  0.31673810  1  0.04115  0  0.09251  0.122689  0  0.99294  0
H  H37  1  0.01138430  0.76129249  0.34503608  1  0.030838  0  0.088219  0.112654  0  1.000199  0
H  H38  1  0.01817102  0.64206082  0.61921048  1  0.036566  0  0.113788  0.08992  0  0.942083  0
H  H39  1  0.03079985  0.53345240  0.59666543  1  0.045904  0  0.093284  0.050292  0  1.022025  0
H  H40  1  0.85192798  0.60724265  0.64652133  1  0.055695  0  0.094151  0.095993  0  0.974429  0
H  H41  1  0.86039630  0.49983397  0.62291955  1  0.004962  0  0.087021  0.076173  0  0.995861  0
H  H42  1  0.99673805  0.46509262  0.68014334  1  0.008883  0  0.083157  0.10659  0  1.015648  0
H  H43  1  0.89282474  0.50067791  0.71118155  1  0.034011  0  0.08981  0.1252  0  1.001228  0
H  H44  1  0.99091414  0.57369352  0.70331699  1  0.018702  0  0.08776  0.114245  0  0.996818  0
H  H45  1  0.97843147  0.38992597  0.58700183  1  0.041376  0  0.093201  0.052011  0  1.006909  0
H  H46  1  0.10032501  0.36012780  0.60106847  1  0.081647  0  0.097366  0.061152  0  0.994439  0
H  H47  1  0.94442314  0.23331311  0.56398130  1  0.031056  0  0.096591  0.092778  0  0.962554  0
H  H48  1  0.06325657  0.20412144  0.58053930  1  0.008343  0  0.096323  0.090657  0  0.964144  0
H  H49  1  0.03092119  0.25282892  0.66558432  1  0.039022  0  0.086347  0.110798  0  1.004376  0
H  H50  1  0.94970033  0.16921775  0.64698418  1  0.037696  0  0.091267  0.118864  0  0.997136  0
H  H51  1  0.91101854  0.28033311  0.64880459  1  0.026699  0  0.087381  0.113009  0  1.002603  0
H  H52  1  0.54499644  0.16857064  0.98383409  1  0.035257  0  0.109239  0.07931  0  0.954172  0
H  H53  1  0.45561857  0.25182353  0.98925631  1  0.040076  0  0.096202  0.054384  0  0.998851  0
H  H54  1  0.50761615  0.11150981  0.06433479  1  0.036278  0  0.096191  0.091528  0  0.964864  0
H  H55  1  0.42552106  0.19824811  0.07388576  1  0.022672  0  0.093582  0.088834  0  0.978424  0
H  H56  1  0.31829811  0.14252908  0.00774570  1  0.019344  0  0.08636  0.109729  0  1.003559  0
H  H57  1  0.33860056  0.05898421  0.05088024  1  0.047156  0  0.092879  0.121901  0  0.99324  0
H  H58  1  0.40050198  0.05602435  0.99596178  1  0.035265  0  0.087287  0.110659  0  1.002587  0
H  H59  1  0.16651533  0.65436126  0.00873443  1  0.059234  0  0.110003  0.080645  0  0.952635  0
H  H60  1  0.22712148  0.55154978  0.00405480  1  0.042006  0  0.096649  0.055397  0  1.001822  0
H  H61  1  0.10413374  0.64087540  0.92617374  1  0.051183  0  0.096917  0.092463  0  0.964256  0
H  H62  1  0.17344810  0.54527282  0.91672094  1  0.041781  0  0.092222  0.08632  0  0.981932  0
H  H63  1  0.07858628  0.46213763  0.97751241  1  0.056069  0  0.086284  0.109476  0  1.003772  0
H  H64  1  0.00055556  0.50681477  0.93322222  1  0.03228  0  0.09347  0.123271  0  0.99265  0
H  H65  1  0.00963846  0.55753638  0.99000435  1  0.015278  0  0.087502  0.111522  0  1.002513  0
C  C66  1  0.49855121  0.33174559  0.49896234  1  1.533577  0  0.215218  0.591987  0  4.173042  0
C  C67  1  0.49785978  0.66932067  0.50016939  1  1.559548  0  0.215568  0.590325  0  4.176635  0
C  C68  1  0.50071767  0.50372933  0.40636043  1  1.630926  0  0.213333  0.591511  0  4.22334  0
C  C69  1  0.50689936  0.49846157  0.59295954  1  1.581361  0  0.215692  0.592139  0  4.20328  0
C  C70  1  0.52208597  0.41651371  0.17894174  1  1.302467  0  0.24001  0.447264  0  4.102333  0
C  C71  1  0.43052876  0.56270083  0.81961835  1  1.35321  0  0.24277  0.444802  0  4.096509  0
C  C72  1  0.44937943  0.56797582  0.17830457  1  1.33164  0  0.242354  0.448893  0  4.104145  0
C  C73  1  0.56390914  0.45097101  0.82187940  1  1.324372  0  0.240349  0.441843  0  4.102129  0
C  C74  1  0.56651721  0.54124220  0.27538649  1  0.042165  0  -0.06154  -0.178488  0  3.914381  0
C  C75  1  0.43103854  0.46014339  0.72221004  1  0.084052  0  -0.064829  -0.189908  0  3.916976  0
C  C76  1  0.56799217  0.54571185  0.32487062  1  0.162916  0  0.099508  0.084269  0  3.89657  0
C  C77  1  0.43352721  0.45616770  0.67277748  1  0.18873  0  0.101683  0.095731  0  3.896234  0
C  C78  1  0.42664055  0.45643636  0.32916176  1  -0.003489  0  -0.05623  -0.106144  0  3.902155  0
C  C79  1  0.57622370  0.54418447  0.67190087  1  0.063648  0  -0.054577  -0.096942  0  3.903258  0
C  C80  1  0.42356418  0.45252130  0.27963653  1  0.226803  0  0.093342  0.017838  0  3.870204  0
C  C81  1  0.57379675  0.54965679  0.72134353  1  0.205428  0  0.090885  0.010278  0  3.88191  0
C  C82  1  0.49292416  0.49578520  0.25215365  1  0.42267  0  0.112597  0.181745  0  3.999253  0
C  C83  1  0.50115131  0.50745385  0.74705839  1  0.437348  0  0.115791  0.185057  0  3.992207  0
C  C84  1  0.47658860  0.48853116  0.10104002  1  -0.01206  0  0.001462  0.029385  0  4.000353  0
C  C85  1  0.48483172  0.49727949  0.89796960  1  -0.014912  0  0.000753  0.027246  0  4.004693  0
C  C86  1  0.51692795  0.41653235  0.12640077  1  0.006837  0  -0.010109  -0.052414  0  4.018199  0
C  C87  1  0.42658632  0.55758399  0.87208693  1  -0.030699  0  -0.010208  -0.052648  0  4.01513  0
C  C88  1  0.54876039  0.34329132  0.10193950  1  0.005228  0  -0.071181  -0.173443  0  3.947964  0
C  C89  1  0.36068115  0.60927478  0.89580220  1  -0.005716  0  -0.071132  -0.173966  0  3.947905  0
C  C90  1  0.44178322  0.56277191  0.12597119  1  -0.052816  0  -0.011021  -0.066639  0  3.998454  0
C  C91  1  0.55207332  0.44392629  0.87386322  1  0.012934  0  -0.01221  -0.070846  0  4.008451  0
C  C92  1  0.49848460  0.50418835  0.35266613  1  0.149664  0  0.011725  -0.028841  0  3.904773  0
C  C93  1  0.50537270  0.49814969  0.64662089  1  0.146999  0  0.006758  -0.043885  0  3.90351  0
C  C94  1  0.52890922  0.42440703  0.97366131  1  -0.032732  0  0.003742  0.054183  0  3.968089  0
C  C95  1  0.42355978  0.55583189  0.02520082  1  -0.058215  0  0.002853  0.052955  0  3.969012  0
C  C96  1  0.41486116  0.55144504  0.97328944  1  0.025221  0  -0.002522  -0.067388  0  3.944439  0
C  C97  1  0.51556189  0.41458370  0.02499233  1  0.010932  0  -0.003001  -0.067717  0  3.944563  0
C  C98  1  0.47605839  0.49130495  0.94862590  1  -0.00908  0  0.003779  0.012806  0  3.924152  0
C  C99  1  0.47188602  0.48599492  0.05009502  1  0.025901  0  0.004405  0.011071  0  3.924465  0
C  C100  1  0.59479069  0.37308279  0.94822462  1  0.018441  0  -0.083494  -0.128202  0  3.962261  0
C  C101  1  0.38970518  0.62787225  0.05147719  1  -0.030549  0  -0.082789  -0.125979  0  3.962838  0
C  C102  1  0.60794594  0.38409664  0.89936269  1  -0.049231  0  -0.069374  -0.06756  0  3.97384  0
C  C103  1  0.40032211  0.63217930  0.10091539  1  0.0436  0  -0.068648  -0.067398  0  3.970316  0
C  C104  1  0.54712298  0.34111920  0.05200277  1  0.500524  0  0.093645  0.219417  0  4.020505  0
C  C105  1  0.35308263  0.60549874  0.94552267  1  0.507188  0  0.093439  0.218839  0  4.020532  0
C  C106  1  0.41612727  0.09582520  0.48584732  1  0.065044  0  -0.092161  -0.137139  0  3.994261  0
C  C107  1  0.58016559  0.90463401  0.48461028  1  0.048326  0  -0.091283  -0.137592  0  3.991148  0
C  C108  1  0.41728780  0.90533712  0.51429278  1  0.005922  0  -0.092889  -0.138909  0  3.999043  0
C  C109  1  0.58230327  0.09623880  0.51262431  1  -0.125115  0  -0.091673  -0.13809  0  3.993479  0
C  C110  1  0.41584419  0.18721161  0.48578961  1  -0.086754  0  -0.08372  -0.083621  0  3.990452  0
C  C111  1  0.57981094  0.81319297  0.48475498  1  -0.094713  0  -0.082064  -0.08007  0  3.976758  0
C  C112  1  0.41667188  0.81392496  0.51440888  1  -0.11692  0  -0.085607  -0.089575  0  3.996985  0
C  C113  1  0.58222146  0.18768075  0.51252580  1  0.045349  0  -0.083888  -0.084264  0  3.988689  0
C  C114  1  0.49892598  0.23378344  0.49911463  1  -0.008318  0  -0.021245  -0.038792  0  3.979768  0
C  C115  1  0.49804267  0.76726495  0.49973330  1  0.010046  0  -0.021893  -0.038896  0  3.982528  0
C  C116  1  0.49926442  0.04894501  0.49930135  1  0.016577  0  -0.003246  0.076177  0  4.006718  0
C  C117  1  0.49901797  0.95208288  0.49941619  1  -0.111185  0  -0.003812  0.074594  0  4.009504  0
C  C118  1  0.89560968  0.44232303  0.47177167  1  0.537641  0  0.094799  0.186963  0  4.06095  0
C  C119  1  0.10543389  0.57675447  0.48840393  1  0.557979  0  0.095116  0.18629  0  4.06138  0
C  C120  1  0.89436843  0.55875389  0.53065565  1  0.6345  0  0.095721  0.18889  0  4.06373  0
C  C121  1  0.10561998  0.42579362  0.51587739  1  0.589373  0  0.095153  0.183777  0  4.07106  0
C  C122  1  0.79528697  0.44431269  0.47182212  1  0.499557  0  0.045193  -0.025578  0  3.915143  0
C  C123  1  0.20570792  0.57345434  0.48881301  1  0.468011  0  0.044394  -0.026753  0  3.912292  0
C  C124  1  0.79415329  0.55717481  0.52779777  1  0.478081  0  0.045804  -0.023354  0  3.915882  0
C  C125  1  0.20585147  0.42802818  0.51507806  1  0.472549  0  0.045162  -0.02242  0  3.90791  0
C  C126  1  0.94721421  0.50080280  0.50167607  1  -0.054137  0  0.000577  -0.079469  0  3.974726  0
C  C127  1  0.05327776  0.50119072  0.50199103  1  0.118158  0  0.000206  -0.076855  0  3.981597  0
C  C128  1  0.97244420  0.40857637  0.39743081  1  0.387939  0  -0.063518  0.036627  0  3.885071  0
C  C129  1  0.88975393  0.42151240  0.36218331  1  -0.022161  0  -0.173157  -0.149644  0  3.993509  0
C  C130  1  0.92652498  0.44231516  0.31223691  1  -0.082402  0  -0.241271  -0.342576  0  3.970921  0
C  C131  1  0.02151176  0.66470462  0.42968536  1  0.412511  0  -0.063226  0.033706  0  3.885984  0
C  C132  1  0.09850173  0.67862075  0.39228269  1  -0.003063  0  -0.169881  -0.142442  0  3.997337  0
C  C133  1  0.05400876  0.70043100  0.34357319  1  -0.053936  0  -0.240387  -0.350279  0  3.974165  0
C  C134  1  0.97828717  0.58560657  0.60459458  1  0.412893  0  -0.063929  0.033828  0  3.876675  0
C  C135  1  0.90269880  0.55345166  0.63936765  1  -0.0172  0  -0.172636  -0.148335  0  3.999209  0
C  C136  1  0.94846007  0.52130698  0.68605055  1  -0.031436  0  -0.242546  -0.349929  0  3.968555  0
C  C137  1  0.03663093  0.34279484  0.57913388  1  0.354863  0  -0.06438  0.03677  0  3.87946  0
C  C138  1  0.00389422  0.24931251  0.58872094  1  0.03462  0  -0.164496  -0.126227  0  3.983427  0
C  C139  1  0.97216746  0.23740995  0.64035790  1  -0.085099  0  -0.2406  -0.352958  0  3.979691  0
C  C140  1  0.50669548  0.21010113  0.00942341  1  0.411569  0  -0.062582  0.032516  0  3.883924  0
C  C141  1  0.45491138  0.15456749  0.04635244  1  -0.010703  0  -0.168513  -0.139092  0  3.987569  0
C  C142  1  0.37374939  0.10005050  0.02393730  1  -0.079139  0  -0.239667  -0.348974  0  3.980674  0
C  C143  1  0.20132420  0.60917812  0.98370869  1  0.39165  0  -0.063231  0.030553  0  3.882911  0
C  C144  1  0.13269800  0.58154225  0.94380813  1  -0.044032  0  -0.16954  -0.138823  0  3.987901  0
C  C145  1  0.05089265  0.52393293  0.96220884  1  -0.082423  0  -0.240024  -0.350539  0  3.981831  0
N  N146  1  0.49180164  0.49455971  0.20117184  1  -1.171139  0  -0.239502  -0.238859  0  3.639247  0
N  N147  1  0.49755777  0.50623679  0.79799350  1  -1.210268  0  -0.238391  -0.221225  0  3.616544  0
N  N148  1  0.74688333  0.50104945  0.49914220  1  -1.248086  0  -0.327113  -0.162542  0  3.616222  0
N  N149  1  0.25364299  0.50042852  0.50157888  1  -1.277567  0  -0.325533  -0.161561  0  3.60587  0
N  N150  1  0.34440173  0.40120607  0.25766917  1  0.411466  0  0.064628  0.530312  0  4.19462  0
N  N151  1  0.65015371  0.60110881  0.74536080  1  0.37508  0  0.063444  0.528331  0  4.202792  0
N  N152  1  0.35863557  0.40092876  0.64948360  1  0.405257  0  0.063708  0.523043  0  4.236181  0
N  N153  1  0.64467406  0.59948700  0.34726604  1  0.430039  0  0.063122  0.514819  0  4.219877  0
O  O154  1  0.41905858  0.36986099  0.48895232  1  -1.173026  0  -0.317867  -0.547638  0  2.347049  0
O  O155  1  0.57707422  0.63074011  0.49150077  1  -1.157656  0  -0.313663  -0.539586  0  2.364938  0
O  O156  1  0.41843477  0.63093569  0.50934553  1  -1.166462  0  -0.317977  -0.548191  0  2.350999  0
O  O157  1  0.57762695  0.37072877  0.50874052  1  -1.166374  0  -0.317961  -0.545443  0  2.344364  0
O  O158  1  0.42135722  0.51968112  0.42618368  1  -1.1538  0  -0.308875  -0.530488  0  2.282844  0
O  O159  1  0.58604760  0.51858747  0.57386556  1  -1.160891  0  -0.308874  -0.533914  0  2.290895  0
O  O160  1  0.42781452  0.47993469  0.57240953  1  -1.152625  0  -0.307133  -0.535027  0  2.335776  0
O  O161  1  0.58092640  0.48464356  0.42556293  1  -1.155827  0  -0.311851  -0.539966  0  2.299035  0
O  O162  1  0.55069332  0.35382155  0.20301281  1  -1.110868  0  -0.285088  -0.441243  0  2.046529  0
O  O163  1  0.37894024  0.61087893  0.79514770  1  -1.106208  0  -0.280571  -0.43606  0  2.053212  0
O  O164  1  0.62549773  0.41117206  0.79926774  1  -1.100079  0  -0.285531  -0.445078  0  2.056068  0
O  O165  1  0.42184879  0.63110583  0.20191236  1  -1.10275  0  -0.283661  -0.442369  0  2.054467  0
O  O166  1  0.94151338  0.38114480  0.44447277  1  -1.075925  0  -0.201422  -0.234483  0  2.526731  0
O  O167  1  0.06127636  0.65465601  0.47742971  1  -1.069108  0  -0.200641  -0.23259  0  2.52708  0
O  O168  1  0.93676471  0.61896942  0.56031431  1  -1.072481  0  -0.201232  -0.232439  0  2.514505  0
O  O169  1  0.06077437  0.34949339  0.52903166  1  -1.075659  0  -0.199345  -0.233252  0  2.534106  0
O  O170  1  0.30973887  0.34097176  0.28177599  1  -0.438473  0  -0.132101  -0.32835  0  1.856037  0
O  O171  1  0.31661536  0.42219662  0.21703910  1  -0.459057  0  -0.138152  -0.33779  0  1.891325  0
O  O172  1  0.72792299  0.60797438  0.72449444  1  -0.445095  0  -0.1246  -0.329083  0  1.902076  0
O  O173  1  0.63166687  0.63507944  0.78434653  1  -0.432434  0  -0.135105  -0.333028  0  1.886685  0
O  O174  1  0.38497483  0.32908259  0.63396057  1  -0.410521  0  -0.118758  -0.305222  0  1.86217  0
O  O175  1  0.27506704  0.42882608  0.65021653  1  -0.434675  0  -0.130719  -0.331014  0  1.874638  0
O  O176  1  0.61983186  0.65463945  0.37689807  1  -0.422825  0  -0.107475  -0.293851  0  1.898492  0
O  O177  1  0.72800208  0.58659957  0.33342720  1  -0.463438  0  -0.130895  -0.337679  0  1.894535  0
O  O178  1  0.58066128  0.26519034  0.03133925  1  -1.066483  0  -0.203631  -0.241744  0  2.496864  0
O  O179  1  0.28337904  0.65778743  0.96532786  1  -1.072962  0  -0.203508  -0.240976  0  2.490983  0
