# generated using pymatgen
data_GdH8C9NO10
_symmetry_space_group_name_H-M   'P 1'
_cell_length_a   10.06791774
_cell_length_b   10.40621551
_cell_length_c   11.74864624
_cell_angle_alpha   90.00003330
_cell_angle_beta   89.99997897
_cell_angle_gamma   90.90701676
_symmetry_Int_Tables_number   1
_chemical_formula_structural   GdH8C9NO10
_chemical_formula_sum   'Gd4 H32 C36 N4 O40'
_cell_volume   1230.73876867
_cell_formula_units_Z   4
loop_
 _symmetry_equiv_pos_site_id
 _symmetry_equiv_pos_as_xyz
  1  'x, y, z'
loop_
 _atom_site_type_symbol
 _atom_site_label
 _atom_site_symmetry_multiplicity
 _atom_site_fract_x
 _atom_site_fract_y
 _atom_site_fract_z
 _atom_site_occupancy
 _atom_site_hle17_bader_spin_density
 _atom_site_hle17_ddec_charge
 _atom_site_hle17_ddec_spin_density
 _atom_site_hle17_ddec_sum_bond_order
 _atom_site_hle17_magmom
 _atom_site_hse06_10hf_bader_spin_density
 _atom_site_hse06_10hf_ddec_charge
 _atom_site_hse06_10hf_ddec_spin_density
 _atom_site_hse06_10hf_ddec_sum_bond_order
 _atom_site_hse06_10hf_magmom
 _atom_site_hse06_bader_spin_density
 _atom_site_hse06_ddec_charge
 _atom_site_hse06_ddec_spin_density
 _atom_site_hse06_ddec_sum_bond_order
 _atom_site_hse06_magmom
 _atom_site_pbe_bader_spin_density
 _atom_site_pbe_cm5_charge
 _atom_site_pbe_ddec_charge
 _atom_site_pbe_ddec_spin_density
 _atom_site_pbe_ddec_sum_bond_order
 _atom_site_pbe_magmom
Gd  Gd0  1  0.62301210  0.98027668  0.15696547  1  0  2.230217  0  1.7656  0  0  2.138963  0  2.120849  0  0  2.190893  0  2.068893  0  0  1.470937  2.09569  0  2.167765  0
Gd  Gd1  1  0.37698813  0.51972414  0.65696513  1  0  2.230191  0  1.76565  0  0  2.138932  0  2.120913  0  0  2.19087  0  2.068951  0  0  1.470943  2.095667  0  2.167812  0
Gd  Gd2  1  0.37698783  0.01972311  0.84303495  1  0  2.230218  0  1.765582  0  0  2.138947  0  2.120862  0  0  2.190885  0  2.068895  0  0  1.47097  2.09569  0  2.167753  0
Gd  Gd3  1  0.62301181  0.48027661  0.34303359  1  0  2.230202  0  1.765579  0  0  2.138927  0  2.120857  0  0  2.190889  0  2.068858  0  0  1.470919  2.095668  0  2.167748  0
H  H4  1  0.59924862  0.82117829  0.37446794  1  0  0.442797  0  0.855184  0  0  0.412065  0  0.917817  0  0  0.422581  0  0.902492  0  0  0.305575  0.404717  0  0.928478  0
H  H5  1  0.40075150  0.67882171  0.87446767  1  0  0.442801  0  0.855178  0  0  0.412071  0  0.917808  0  0  0.422587  0  0.902483  0  0  0.305577  0.404723  0  0.928469  0
H  H6  1  0.40075132  0.17882246  0.62553163  1  0  0.442788  0  0.855195  0  0  0.412059  0  0.917825  0  0  0.422574  0  0.9025  0  0  0.305573  0.404711  0  0.928486  0
H  H7  1  0.59924842  0.32117808  0.12553190  1  0  0.442768  0  0.855221  0  0  0.412039  0  0.917849  0  0  0.422554  0  0.902527  0  0  0.305576  0.404693  0  0.928509  0
H  H8  1  0.46726107  0.90168583  0.36364206  1  0  0.438626  0  0.847676  0  0  0.411603  0  0.904076  0  0  0.420784  0  0.890475  0  0  0.312334  0.40515  0  0.913638  0
H  H9  1  0.53273905  0.59831416  0.86364255  1  0  0.438627  0  0.847675  0  0  0.411606  0  0.904071  0  0  0.420789  0  0.890465  0  0  0.312337  0.405152  0  0.913633  0
H  H10  1  0.53273885  0.09831396  0.63635751  1  0  0.438618  0  0.847685  0  0  0.411598  0  0.904081  0  0  0.42078  0  0.890479  0  0  0.312333  0.405144  0  0.913644  0
H  H11  1  0.46726187  0.40168563  0.13635702  1  0  0.438635  0  0.847662  0  0  0.411613  0  0.90406  0  0  0.420795  0  0.890458  0  0  0.312349  0.405161  0  0.913621  0
H  H12  1  0.45376353  0.72804280  0.18228239  1  0  0.452328  0  0.837291  0  0  0.423309  0  0.897306  0  0  0.433855  0  0.881789  0  0  0.305346  0.415758  0  0.908419  0
H  H13  1  0.54623667  0.77195707  0.68228298  1  0  0.45233  0  0.837283  0  0  0.423314  0  0.897291  0  0  0.43386  0  0.881775  0  0  0.30535  0.415764  0  0.908405  0
H  H14  1  0.54623640  0.27195699  0.81771717  1  0  0.452295  0  0.837313  0  0  0.423285  0  0.897316  0  0  0.43383  0  0.881801  0  0  0.305343  0.415736  0  0.908428  0
H  H15  1  0.45376325  0.22804272  0.31771744  1  0  0.452318  0  0.837301  0  0  0.423297  0  0.897319  0  0  0.433844  0  0.881802  0  0  0.305339  0.415747  0  0.908432  0
H  H16  1  0.42342014  0.79398001  0.06080033  1  0  0.438119  0  0.863792  0  0  0.408552  0  0.924399  0  0  0.418765  0  0.909602  0  0  0.301472  0.401286  0  0.934926  0
H  H17  1  0.57658011  0.70601978  0.56080002  1  0  0.438105  0  0.863811  0  0  0.40854  0  0.924415  0  0  0.418753  0  0.909617  0  0  0.301476  0.401275  0  0.934939  0
H  H18  1  0.57658078  0.20601978  0.93920009  1  0  0.4381  0  0.863813  0  0  0.408538  0  0.924411  0  0  0.41875  0  0.909616  0  0  0.301467  0.401275  0  0.934933  0
H  H19  1  0.42341981  0.29398001  0.43919955  1  0  0.43813  0  0.863776  0  0  0.408565  0  0.924379  0  0  0.418777  0  0.909583  0  0  0.301479  0.401299  0  0.934905  0
H  H20  1  0.96644782  0.85509911  0.05222140  1  0  0.134501  0  0.925519  0  0  0.1406  0  0.990738  0  0  0.145289  0  0.985983  0  0  0.123164  0.137277  0  0.994058  0
H  H21  1  0.03355343  0.64490068  0.55222208  1  0  0.134471  0  0.925526  0  0  0.140547  0  0.990782  0  0  0.145232  0  0.986028  0  0  0.123162  0.137227  0  0.994096  0
H  H22  1  0.03355409  0.14490068  0.94777817  1  0  0.134483  0  0.925501  0  0  0.140586  0  0.990724  0  0  0.145275  0  0.985968  0  0  0.123168  0.137265  0  0.994041  0
H  H23  1  0.96644749  0.35509911  0.44777834  1  0  0.134474  0  0.925528  0  0  0.14055  0  0.990782  0  0  0.145235  0  0.986026  0  0  0.123166  0.13723  0  0.994097  0
H  H24  1  0.28781445  0.58736397  0.01588364  1  0  0.132877  0  0.946151  0  0  0.137444  0  1.012244  0  0  0.14262  0  1.006719  0  0  0.123912  0.133633  0  1.01644  0
H  H25  1  0.71218681  0.91263579  0.51588339  1  0  0.13286  0  0.946205  0  0  0.137441  0  1.012277  0  0  0.142616  0  1.006755  0  0  0.123912  0.133631  0  1.016473  0
H  H26  1  0.71218746  0.41263581  0.98411678  1  0  0.132877  0  0.946182  0  0  0.137459  0  1.012256  0  0  0.142635  0  1.006731  0  0  0.123921  0.133647  0  1.016451  0
H  H27  1  0.28781411  0.08736400  0.48411533  1  0  0.132883  0  0.946143  0  0  0.137455  0  1.012224  0  0  0.142631  0  1.006699  0  0  0.123919  0.133645  0  1.016421  0
H  H28  1  0.93782719  0.47936159  0.20699659  1  0  0.136395  0  0.941668  0  0  0.137557  0  1.013812  0  0  0.142474  0  1.009111  0  0  0.126286  0.134006  0  1.017027  0
H  H29  1  0.06217352  0.02063900  0.70699634  1  0  0.136373  0  0.941669  0  0  0.137541  0  1.01381  0  0  0.142458  0  1.009108  0  0  0.126283  0.133991  0  1.017027  0
H  H30  1  0.06217373  0.52063820  0.79300383  1  0  0.136388  0  0.941659  0  0  0.137553  0  1.013803  0  0  0.14247  0  1.009101  0  0  0.126289  0.134002  0  1.01702  0
H  H31  1  0.93782642  0.97936175  0.29300407  1  0  0.136399  0  0.941665  0  0  0.13756  0  1.013808  0  0  0.142477  0  1.009106  0  0  0.126286  0.13401  0  1.017025  0
H  H32  1  0.24703051  0.13325301  0.14834219  1  0  0.025868  0  0.921752  0  0  0.032537  0  0.992026  0  0  0.033837  0  0.986037  0  0  0.117373  0.031358  0  0.996293  0
H  H33  1  0.75296525  0.36674756  0.64834106  1  0  0.025879  0  0.921723  0  0  0.032518  0  0.992017  0  0  0.033816  0  0.986029  0  0  0.117379  0.031338  0  0.996281  0
H  H34  1  0.75296444  0.86674679  0.85165908  1  0  0.025887  0  0.921749  0  0  0.032523  0  0.992046  0  0  0.033825  0  0.986055  0  0  0.117385  0.031346  0  0.99631  0
H  H35  1  0.24703070  0.63325224  0.35165766  1  0  0.02586  0  0.921756  0  0  0.032529  0  0.992028  0  0  0.033828  0  0.986036  0  0  0.11737  0.031349  0  0.996295  0
C  C36  1  0.80215654  0.70123462  0.17823846  1  0  0.74617  0  3.839434  0  0  0.697891  0  4.131065  0  0  0.733719  0  4.120618  0  0  0.2462  0.67344  0  4.137148  0
C  C37  1  0.19784565  0.79876524  0.67823832  1  0  0.746119  0  3.839569  0  0  0.697885  0  4.131115  0  0  0.733718  0  4.12066  0  0  0.246192  0.673434  0  4.1372  0
C  C38  1  0.19784537  0.29876516  0.82176196  1  0  0.746087  0  3.839513  0  0  0.69783  0  4.131088  0  0  0.733668  0  4.120628  0  0  0.246181  0.673379  0  4.137173  0
C  C39  1  0.80215527  0.20123455  0.32176210  1  0  0.746099  0  3.839608  0  0  0.69786  0  4.131181  0  0  0.733693  0  4.120729  0  0  0.246182  0.673409  0  4.137264  0
C  C40  1  0.93729565  0.66990981  0.13241783  1  0  -0.064878  0  3.70407  0  0  -0.040873  0  3.941913  0  0  -0.052301  0  3.964669  0  0  -0.005854  -0.033808  0  3.926941  0
C  C41  1  0.06270459  0.83009099  0.63241860  1  0  -0.064967  0  3.70407  0  0  -0.040961  0  3.941907  0  0  -0.052387  0  3.964655  0  0  -0.005908  -0.033895  0  3.926935  0
C  C42  1  0.06270529  0.33009094  0.86758259  1  0  -0.064918  0  3.704101  0  0  -0.040891  0  3.941918  0  0  -0.052322  0  3.964671  0  0  -0.005885  -0.033826  0  3.926947  0
C  C43  1  0.93729535  0.16990976  0.36758182  1  0  -0.064882  0  3.704033  0  0  -0.040903  0  3.941887  0  0  -0.052335  0  3.964648  0  0  -0.00586  -0.033838  0  3.926915  0
C  C44  1  0.00869004  0.76089904  0.06832551  1  0  -0.005308  0  3.592561  0  0  -0.05242  0  3.847463  0  0  -0.045764  0  3.861874  0  0  -0.047551  -0.056887  0  3.838214  0
C  C45  1  0.99131021  0.73910076  0.56832509  1  0  -0.005225  0  3.592575  0  0  -0.052365  0  3.847482  0  0  -0.045703  0  3.861887  0  0  -0.047549  -0.056832  0  3.838232  0
C  C46  1  0.99131088  0.23910074  0.93167491  1  0  -0.005254  0  3.59255  0  0  -0.052384  0  3.84746  0  0  -0.045727  0  3.861873  0  0  -0.047548  -0.056853  0  3.838213  0
C  C47  1  0.00868972  0.26089903  0.43167533  1  0  -0.005245  0  3.592571  0  0  -0.052354  0  3.8475  0  0  -0.04569  0  3.861905  0  0  -0.047551  -0.056822  0  3.838252  0
C  C48  1  0.13521269  0.73254291  0.02634788  1  0  -0.056481  0  3.716973  0  0  -0.030058  0  3.956429  0  0  -0.041297  0  3.97933  0  0  -0.008436  -0.023175  0  3.941638  0
C  C49  1  0.86478759  0.76745782  0.52634836  1  0  -0.056585  0  3.717048  0  0  -0.030018  0  3.95641  0  0  -0.041259  0  3.979314  0  0  -0.008414  -0.023136  0  3.941619  0
C  C50  1  0.86478823  0.26745687  0.97365254  1  0  -0.05654  0  3.716945  0  0  -0.030082  0  3.956448  0  0  -0.041326  0  3.979355  0  0  -0.008443  -0.023199  0  3.941656  0
C  C51  1  0.13521233  0.23254197  0.47365291  1  0  -0.056511  0  3.717063  0  0  -0.030039  0  3.956495  0  0  -0.041279  0  3.979399  0  0  -0.008427  -0.023156  0  3.941704  0
C  C52  1  0.19080243  0.61310859  0.04879213  1  0  -0.060056  0  3.641279  0  0  -0.10327  0  3.903777  0  0  -0.097477  0  3.918624  0  0  -0.057108  -0.106981  0  3.894278  0
C  C53  1  0.80919785  0.88689215  0.54879269  1  0  -0.060003  0  3.641333  0  0  -0.103276  0  3.903791  0  0  -0.097485  0  3.918639  0  0  -0.057111  -0.106989  0  3.894293  0
C  C54  1  0.80919849  0.38689119  0.95120829  1  0  -0.060039  0  3.64129  0  0  -0.1033  0  3.903767  0  0  -0.097506  0  3.918612  0  0  -0.057108  -0.107011  0  3.894268  0
C  C55  1  0.19080210  0.11310860  0.45120773  1  0  -0.06001  0  3.641291  0  0  -0.10326  0  3.903753  0  0  -0.097469  0  3.918602  0  0  -0.057098  -0.106973  0  3.894257  0
C  C56  1  0.11832780  0.52483365  0.11388217  1  0  0.059511  0  3.727235  0  0  0.044569  0  3.988578  0  0  0.037535  0  4.012961  0  0  0.076674  0.048832  0  3.971939  0
C  C57  1  0.88167245  0.97516714  0.61388275  1  0  0.059438  0  3.727266  0  0  0.044558  0  3.988529  0  0  0.03753  0  4.01291  0  0  0.076675  0.048822  0  3.97189  0
C  C58  1  0.88167314  0.47516710  0.88611825  1  0  0.059454  0  3.727276  0  0  0.044618  0  3.9885  0  0  0.037588  0  4.012877  0  0  0.076681  0.048881  0  3.971862  0
C  C59  1  0.11832748  0.02483265  0.38611681  1  0  0.059412  0  3.727327  0  0  0.044566  0  3.988535  0  0  0.037537  0  4.012918  0  0  0.076659  0.04883  0  3.971897  0
C  C60  1  0.99211137  0.55025761  0.15618138  1  0  -0.065427  0  3.645095  0  0  -0.104936  0  3.902708  0  0  -0.09953  0  3.918507  0  0  -0.053399  -0.107265  0  3.891135  0
C  C61  1  0.00788983  0.94974224  0.65618138  1  0  -0.065336  0  3.645063  0  0  -0.10488  0  3.902674  0  0  -0.099479  0  3.918477  0  0  -0.053381  -0.10721  0  3.891102  0
C  C62  1  0.00789054  0.44974217  0.84381989  1  0  -0.065356  0  3.64511  0  0  -0.104914  0  3.9027  0  0  -0.09951  0  3.918502  0  0  -0.053382  -0.107243  0  3.891128  0
C  C63  1  0.99211109  0.05025755  0.34381904  1  0  -0.065411  0  3.645157  0  0  -0.104944  0  3.90275  0  0  -0.09954  0  3.918554  0  0  -0.053398  -0.107275  0  3.891179  0
C  C64  1  0.21218720  0.83158727  0.96094749  1  0  0.657434  0  3.883523  0  0  0.606219  0  4.17641  0  0  0.639721  0  4.17044  0  0  0.210319  0.583818  0  4.179313  0
C  C65  1  0.78781289  0.66841279  0.46094762  1  0  0.657599  0  3.883439  0  0  0.606228  0  4.176486  0  0  0.639731  0  4.170517  0  0  0.210334  0.583827  0  4.179389  0
C  C66  1  0.78781372  0.16841252  0.03905208  1  0  0.657602  0  3.883405  0  0  0.606278  0  4.176433  0  0  0.639781  0  4.170462  0  0  0.210346  0.583877  0  4.179335  0
C  C67  1  0.21218704  0.33158700  0.53905280  1  0  0.657396  0  3.883465  0  0  0.606119  0  4.17642  0  0  0.63962  0  4.170453  0  0  0.210253  0.583717  0  4.179323  0
C  C68  1  0.34973652  0.09930897  0.13888150  1  0  0.625352  0  3.866282  0  0  0.55135  0  4.185266  0  0  0.585791  0  4.173385  0  0  0.157097  0.528094  0  4.191806  0
C  C69  1  0.65025620  0.40068776  0.63888212  1  0  0.625357  0  3.866395  0  0  0.551388  0  4.185374  0  0  0.58583  0  4.173489  0  0  0.157044  0.528134  0  4.191913  0
C  C70  1  0.65025638  0.90068700  0.86111721  1  0  0.625338  0  3.866414  0  0  0.551366  0  4.185397  0  0  0.585807  0  4.173509  0  0  0.157029  0.528111  0  4.191937  0
C  C71  1  0.34973573  0.59930917  0.36111830  1  0  0.625408  0  3.866169  0  0  0.551411  0  4.185149  0  0  0.585855  0  4.173265  0  0  0.157106  0.528155  0  4.191689  0
N  N72  1  0.17769265  0.40032428  0.13688308  1  0  0.474382  0  3.942802  0  0  0.530973  0  4.199766  0  0  0.552101  0  4.209864  0  0  0.061035  0.516951  0  4.192843  0
N  N73  1  0.82230910  0.09967722  0.63688263  1  0  0.474428  0  3.942775  0  0  0.531044  0  4.199676  0  0  0.55217  0  4.209773  0  0  0.061039  0.517022  0  4.192753  0
N  N74  1  0.82230829  0.59967647  0.86311734  1  0  0.474377  0  3.942688  0  0  0.530942  0  4.199639  0  0  0.552072  0  4.209731  0  0  0.061003  0.51692  0  4.192718  0
N  N75  1  0.17769082  0.90032257  0.36311778  1  0  0.474439  0  3.942743  0  0  0.531028  0  4.199669  0  0  0.552153  0  4.209767  0  0  0.061028  0.517004  0  4.192747  0
O  O76  1  0.56196442  0.90256164  0.34495819  1  0  -0.881448  0  1.858805  0  0  -0.840438  0  2.040965  0  0  -0.858824  0  2.009948  0  0  -0.634654  -0.826733  0  2.062572  0
O  O77  1  0.43803571  0.59743834  0.84495786  1  0  -0.881454  0  1.858802  0  0  -0.840442  0  2.040963  0  0  -0.858829  0  2.009939  0  0  -0.634654  -0.826737  0  2.062569  0
O  O78  1  0.43803550  0.09743815  0.65504138  1  0  -0.881433  0  1.858795  0  0  -0.840421  0  2.040953  0  0  -0.858808  0  2.009932  0  0  -0.634652  -0.826715  0  2.06256  0
O  O79  1  0.56196521  0.40256145  0.15504171  1  0  -0.881428  0  1.858827  0  0  -0.840416  0  2.040997  0  0  -0.858805  0  2.009978  0  0  -0.63467  -0.826713  0  2.062601  0
O  O80  1  0.77198745  0.81940035  0.18151207  1  0  -0.733596  0  2.033497  0  0  -0.691964  0  2.291019  0  0  -0.717959  0  2.277591  0  0  -0.40969  -0.672496  0  2.299593  0
O  O81  1  0.22801374  0.68059952  0.68151185  1  0  -0.733543  0  2.033628  0  0  -0.69193  0  2.291136  0  0  -0.717927  0  2.277699  0  0  -0.409662  -0.672464  0  2.29971  0
O  O82  1  0.22801347  0.18059944  0.81848835  1  0  -0.733567  0  2.033581  0  0  -0.691954  0  2.291118  0  0  -0.717944  0  2.277662  0  0  -0.40969  -0.672489  0  2.299693  0
O  O83  1  0.77198717  0.31940027  0.31848772  1  0  -0.733557  0  2.033591  0  0  -0.691933  0  2.291094  0  0  -0.717934  0  2.27766  0  0  -0.409669  -0.672468  0  2.299667  0
O  O84  1  0.72860384  0.60900289  0.21050344  1  0  -0.717519  0  2.08437  0  0  -0.67643  0  2.342125  0  0  -0.702603  0  2.33068  0  0  -0.39615  -0.657049  0  2.34942  0
O  O85  1  0.27139636  0.89099796  0.71050503  1  0  -0.717498  0  2.084364  0  0  -0.676425  0  2.342094  0  0  -0.702598  0  2.330649  0  0  -0.396154  -0.657046  0  2.349391  0
O  O86  1  0.27139709  0.39099786  0.78949612  1  0  -0.71749  0  2.08439  0  0  -0.676411  0  2.342132  0  0  -0.702586  0  2.330685  0  0  -0.396143  -0.65703  0  2.349426  0
O  O87  1  0.72860358  0.10900279  0.28949625  1  0  -0.717499  0  2.084472  0  0  -0.676426  0  2.342205  0  0  -0.702595  0  2.330761  0  0  -0.39615  -0.657043  0  2.349502  0
O  O88  1  0.47076268  0.80481359  0.13425475  1  0  -0.932349  0  1.869757  0  0  -0.891453  0  2.05718  0  0  -0.910608  0  2.025372  0  0  -0.654316  -0.877137  0  2.079963  0
O  O89  1  0.52923754  0.69518625  0.63425360  1  0  -0.932333  0  1.869757  0  0  -0.891435  0  2.057179  0  0  -0.910591  0  2.025372  0  0  -0.654323  -0.87712  0  2.079959  0
O  O90  1  0.52923724  0.19518620  0.86574652  1  0  -0.932296  0  1.869782  0  0  -0.891403  0  2.057196  0  0  -0.910558  0  2.02539  0  0  -0.654306  -0.87709  0  2.079974  0
O  O91  1  0.47076338  0.30481354  0.36574512  1  0  -0.932348  0  1.869746  0  0  -0.891448  0  2.057174  0  0  -0.910606  0  2.025365  0  0  -0.654314  -0.877133  0  2.079954  0
O  O92  1  0.16033557  0.93529824  0.93122580  1  0  -0.623895  0  1.956679  0  0  -0.586394  0  2.187799  0  0  -0.610709  0  2.180419  0  0  -0.328056  -0.569393  0  2.192265  0
O  O93  1  0.83966554  0.56470275  0.43122501  1  0  -0.623964  0  1.956678  0  0  -0.586421  0  2.18786  0  0  -0.610733  0  2.180472  0  0  -0.328069  -0.569424  0  2.192333  0
O  O94  1  0.83966537  0.06470251  0.06877462  1  0  -0.623981  0  1.956692  0  0  -0.586449  0  2.187871  0  0  -0.610761  0  2.180487  0  0  -0.328077  -0.56945  0  2.192342  0
O  O95  1  0.16033440  0.43529800  0.56877455  1  0  -0.62387  0  1.956643  0  0  -0.586348  0  2.187781  0  0  -0.61066  0  2.180397  0  0  -0.328008  -0.569348  0  2.192248  0
O  O96  1  0.33647406  0.80936863  0.93796439  1  0  -0.748191  0  2.12077  0  0  -0.680985  0  2.340576  0  0  -0.708212  0  2.331396  0  0  -0.36308  -0.661692  0  2.346448  0
O  O97  1  0.66352603  0.69063141  0.43796543  1  0  -0.748235  0  2.120682  0  0  -0.680988  0  2.340551  0  0  -0.708219  0  2.331372  0  0  -0.363091  -0.661696  0  2.346422  0
O  O98  1  0.66352586  0.19063116  0.06203518  1  0  -0.748223  0  2.120662  0  0  -0.680987  0  2.340517  0  0  -0.70821  0  2.331334  0  0  -0.363087  -0.661695  0  2.346389  0
O  O99  1  0.33647489  0.30936838  0.56203584  1  0  -0.748173  0  2.120674  0  0  -0.680961  0  2.340521  0  0  -0.708185  0  2.331338  0  0  -0.363069  -0.661668  0  2.346393  0
O  O100  1  0.28756623  0.37753764  0.09265924  1  0  -0.367933  0  1.806432  0  0  -0.349455  0  1.997688  0  0  -0.363485  0  1.993354  0  0  -0.11597  -0.340197  0  2.000903  0
O  O101  1  0.71243450  0.12246191  0.59265884  1  0  -0.367982  0  1.806328  0  0  -0.349514  0  1.997585  0  0  -0.363543  0  1.993247  0  0  -0.115974  -0.340254  0  2.0008  0
O  O102  1  0.71243367  0.62246119  0.90734118  1  0  -0.367947  0  1.8064  0  0  -0.349466  0  1.99768  0  0  -0.363509  0  1.993354  0  0  -0.115958  -0.340206  0  2.000895  0
O  O103  1  0.28756542  0.87753788  0.40734073  1  0  -0.367975  0  1.806332  0  0  -0.349499  0  1.9976  0  0  -0.363526  0  1.993258  0  0  -0.115969  -0.340238  0  2.000814  0
O  O104  1  0.11572839  0.32246478  0.19743132  1  0  -0.335885  0  1.783464  0  0  -0.324545  0  1.976919  0  0  -0.337834  0  1.976784  0  0  -0.108816  -0.315526  0  1.977009  0
O  O105  1  0.88427329  0.17753484  0.69743090  1  0  -0.335843  0  1.783489  0  0  -0.324535  0  1.976908  0  0  -0.337824  0  1.976775  0  0  -0.108811  -0.315517  0  1.976999  0
O  O106  1  0.88427352  0.67753501  0.80256910  1  0  -0.335852  0  1.783372  0  0  -0.324519  0  1.976813  0  0  -0.337805  0  1.976673  0  0  -0.108804  -0.315501  0  1.976905  0
O  O107  1  0.11572762  0.82246494  0.30256867  1  0  -0.335862  0  1.783466  0  0  -0.32455  0  1.976907  0  0  -0.33784  0  1.976774  0  0  -0.108815  -0.315532  0  1.976998  0
O  O108  1  0.42505042  0.09742241  0.22620559  1  0  -0.67174  0  2.039012  0  0  -0.617861  0  2.284864  0  0  -0.643969  0  2.274035  0  0  -0.361267  -0.599274  0  2.291777  0
O  O109  1  0.57494822  0.40257436  0.72620538  1  0  -0.671689  0  2.03915  0  0  -0.617834  0  2.285007  0  0  -0.643942  0  2.274174  0  0  -0.361238  -0.599253  0  2.29192  0
O  O110  1  0.57494845  0.90257450  0.77379397  1  0  -0.671701  0  2.039134  0  0  -0.617836  0  2.284983  0  0  -0.643944  0  2.274151  0  0  -0.361239  -0.599255  0  2.291897  0
O  O111  1  0.42504972  0.59742544  0.27379418  1  0  -0.671757  0  2.038923  0  0  -0.617884  0  2.284772  0  0  -0.643996  0  2.273941  0  0  -0.361275  -0.5993  0  2.291684  0
O  O112  1  0.39034083  0.06223489  0.04251634  1  0  -0.729863  0  2.174228  0  0  -0.682531  0  2.441445  0  0  -0.709384  0  2.432047  0  0  -0.393386  -0.662383  0  2.446638  0
O  O113  1  0.60965400  0.43776658  0.54251699  1  0  -0.729933  0  2.174288  0  0  -0.68259  0  2.441482  0  0  -0.709453  0  2.432088  0  0  -0.393358  -0.662441  0  2.446672  0
O  O114  1  0.60965514  0.93776587  0.95748323  1  0  -0.729915  0  2.174285  0  0  -0.682578  0  2.441478  0  0  -0.709433  0  2.432081  0  0  -0.393346  -0.662428  0  2.446671  0
O  O115  1  0.39034097  0.56223419  0.45748343  1  0  -0.729888  0  2.174183  0  0  -0.682558  0  2.441405  0  0  -0.709415  0  2.432008  0  0  -0.393377  -0.66241  0  2.446599  0
