# generated using pymatgen
data_CdH8C10(S2N5)2
_symmetry_space_group_name_H-M   'P 1'
_cell_length_a   7.60233631
_cell_length_b   7.60235691
_cell_length_c   24.97627825
_cell_angle_alpha   89.99984915
_cell_angle_beta   90.00009150
_cell_angle_gamma   119.99915285
_symmetry_Int_Tables_number   1
_chemical_formula_structural   CdH8C10(S2N5)2
_chemical_formula_sum   'Cd3 H24 C30 S12 N30'
_cell_volume   1250.13638535
_cell_formula_units_Z   3
loop_
 _symmetry_equiv_pos_site_id
 _symmetry_equiv_pos_as_xyz
  1  'x, y, z'
loop_
 _atom_site_type_symbol
 _atom_site_label
 _atom_site_symmetry_multiplicity
 _atom_site_fract_x
 _atom_site_fract_y
 _atom_site_fract_z
 _atom_site_occupancy
 _atom_site_hle17_bader_spin_density
 _atom_site_hle17_ddec_charge
 _atom_site_hle17_ddec_spin_density
 _atom_site_hle17_ddec_sum_bond_order
 _atom_site_hle17_magmom
 _atom_site_hse06_10hf_bader_charge
 _atom_site_hse06_10hf_bader_spin_density
 _atom_site_hse06_10hf_ddec_charge
 _atom_site_hse06_10hf_ddec_spin_density
 _atom_site_hse06_10hf_ddec_sum_bond_order
 _atom_site_hse06_10hf_magmom
 _atom_site_hse06_bader_spin_density
 _atom_site_hse06_ddec_charge
 _atom_site_hse06_ddec_spin_density
 _atom_site_hse06_ddec_sum_bond_order
 _atom_site_hse06_magmom
 _atom_site_pbe_bader_spin_density
 _atom_site_pbe_cm5_charge
 _atom_site_pbe_ddec_charge
 _atom_site_pbe_ddec_spin_density
 _atom_site_pbe_ddec_sum_bond_order
 _atom_site_pbe_magmom
Cd  Cd0  1  0.93399805  0.93399786  0.99999992  1  0  0.884785  0  1.909651  0  1.068115  0  0.69731  0  2.383387  0  0  0.744116  0  2.347878  0  0  0.637242  0.664369  0  2.407439  0
Cd  Cd1  1  0.06600995  0.00000997  0.33333351  1  0  0.884754  0  1.909727  0  1.07024  0  0.697277  0  2.383458  0  0  0.744081  0  2.34795  0  0  0.637251  0.66434  0  2.407506  0
Cd  Cd2  1  0.00000535  0.06600518  0.66666655  1  0  0.88476  0  1.909663  0  1.070241  0  0.697279  0  2.383396  0  0  0.744084  0  2.347888  0  0  0.637232  0.664338  0  2.407443  0
H  H3  1  0.00358740  0.14697924  0.87244618  1  0  0.096039  0  0.994003  0  0.237011  0  0.093717  0  1.073401  0  0  0.097231  0  1.069154  0  0  0.126762  0.091063  0  1.076538  0
H  H4  1  0.85301657  0.85660927  0.20578192  1  0  0.096041  0  0.993991  0  0.237205  0  0.09372  0  1.073378  0  0  0.097234  0  1.069127  0  0  0.126787  0.091065  0  1.076518  0
H  H5  1  0.14338784  0.99640728  0.53911078  1  0  0.096018  0  0.994077  0  0.239732  0  0.093732  0  1.073428  0  0  0.097244  0  1.069181  0  0  0.126778  0.091078  0  1.076565  0
H  H6  1  0.14697558  0.00358648  0.12755387  1  0  0.096052  0  0.993949  0  0.237022  0  0.093693  0  1.073393  0  0  0.097205  0  1.06915  0  0  0.126762  0.091038  0  1.076532  0
H  H7  1  0.85660396  0.85301726  0.79421828  1  0  0.096067  0  0.993902  0  0.237247  0  0.093704  0  1.073335  0  0  0.097215  0  1.06909  0  0  0.126779  0.09105  0  1.076472  0
H  H8  1  0.99640793  0.14338945  0.46088911  1  0  0.096043  0  0.994062  0  0.239743  0  0.093751  0  1.073422  0  0  0.097263  0  1.069176  0  0  0.126785  0.091097  0  1.07656  0
H  H9  1  0.46775688  0.18391260  0.97313462  1  0  0.103873  0  0.962042  0  0.196702  0  0.107166  0  1.039336  0  0  0.110262  0  1.034904  0  0  0.124389  0.104816  0  1.041973  0
H  H10  1  0.81608506  0.28385637  0.30646768  1  0  0.103947  0  0.961831  0  0.193818  0  0.107126  0  1.039261  0  0  0.110269  0  1.034779  0  0  0.124358  0.104771  0  1.041926  0
H  H11  1  0.71616532  0.53225523  0.63980145  1  0  0.1039  0  0.962035  0  0.19277  0  0.107203  0  1.039323  0  0  0.110287  0  1.034901  0  0  0.124403  0.104849  0  1.041981  0
H  H12  1  0.18391743  0.46775899  0.02686455  1  0  0.103882  0  0.961955  0  0.196697  0  0.107146  0  1.039293  0  0  0.11026  0  1.03484  0  0  0.124374  0.104796  0  1.041935  0
H  H13  1  0.28385583  0.81608403  0.69353301  1  0  0.103884  0  0.961872  0  0.193844  0  0.107086  0  1.039293  0  0  0.11023  0  1.034808  0  0  0.124359  0.104735  0  1.041941  0
H  H14  1  0.53225690  0.71616623  0.36019842  1  0  0.103885  0  0.962031  0  0.192781  0  0.107192  0  1.039315  0  0  0.110275  0  1.034893  0  0  0.124403  0.104841  0  1.041962  0
H  H15  1  0.76033254  0.34544676  0.90533349  1  0  0.115258  0  0.91494  0  0.134581  0  0.130361  0  0.97593  0  0  0.131988  0  0.974173  0  0  0.120731  0.129159  0  0.976658  0
H  H16  1  0.65452265  0.41487014  0.23866686  1  0  0.115296  0  0.914943  0  0.117371  0  0.130397  0  0.97595  0  0  0.132026  0  0.974185  0  0  0.120759  0.129199  0  0.97668  0
H  H17  1  0.58512038  0.23967654  0.57200160  1  0  0.115294  0  0.915011  0  0.12216  0  0.130422  0  0.975969  0  0  0.132052  0  0.974203  0  0  0.120766  0.129219  0  0.976697  0
H  H18  1  0.34544934  0.76033310  0.09466600  1  0  0.115279  0  0.914969  0  0.134577  0  0.130388  0  0.975951  0  0  0.132015  0  0.974192  0  0  0.120757  0.129185  0  0.976679  0
H  H19  1  0.41487200  0.65452560  0.76133304  1  0  0.115303  0  0.91493  0  0.117364  0  0.130412  0  0.975925  0  0  0.13204  0  0.974161  0  0  0.120755  0.129212  0  0.976659  0
H  H20  1  0.23967792  0.58512024  0.42799914  1  0  0.115309  0  0.91495  0  0.12218  0  0.130441  0  0.975902  0  0  0.13207  0  0.974134  0  0  0.120764  0.129239  0  0.97663  0
H  H21  1  0.73375895  0.53384943  0.86980970  1  0  0.115866  0  0.939501  0  0.14395  0  0.121519  0  1.014763  0  0  0.123906  0  1.011543  0  0  0.119682  0.119835  0  1.016406  0
H  H22  1  0.46613751  0.19990360  0.20314119  1  0  0.115849  0  0.939537  0  0.152192  0  0.121556  0  1.014754  0  0  0.123931  0  1.011541  0  0  0.119708  0.11991  0  1.016366  0
H  H23  1  0.80009059  0.26623719  0.53647994  1  0  0.115859  0  0.939452  0  0.149081  0  0.121496  0  1.014743  0  0  0.123871  0  1.011532  0  0  0.119694  0.119826  0  1.016372  0
H  H24  1  0.53385130  0.73375851  0.13018977  1  0  0.115851  0  0.9395  0  0.143972  0  0.121514  0  1.014748  0  0  0.123901  0  1.011525  0  0  0.119678  0.119829  0  1.016391  0
H  H25  1  0.19990359  0.46613932  0.79685878  1  0  0.115867  0  0.939521  0  0.152199  0  0.121571  0  1.014746  0  0  0.123946  0  1.011532  0  0  0.119715  0.119924  0  1.016362  0
H  H26  1  0.26623684  0.80008829  0.46352076  1  0  0.115896  0  0.939459  0  0.149094  0  0.121538  0  1.014737  0  0  0.123911  0  1.011528  0  0  0.119699  0.119862  0  1.016372  0
C  C27  1  0.15002326  0.17697902  0.88754773  1  0  0.201788  0  3.703738  0  0.992257  0  0.146051  0  3.998483  0  0  0.15895  0  4.00688  0  0  0.139213  0.138135  0  3.990516  0
C  C28  1  0.82302158  0.97304180  0.22088260  1  0  0.201748  0  3.70344  0  0.990199  0  0.146031  0  3.998197  0  0  0.158934  0  4.006585  0  0  0.139147  0.138118  0  3.99022  0
C  C29  1  0.02696015  0.84998794  0.55421274  1  0  0.201889  0  3.703476  0  0.987109  0  0.146112  0  3.998273  0  0  0.159018  0  4.006649  0  0  0.139188  0.138193  0  3.990306  0
C  C30  1  0.17697976  0.15002793  0.11245229  1  0  0.201828  0  3.703781  0  0.992293  0  0.146102  0  3.998579  0  0  0.159005  0  4.006964  0  0  0.139237  0.138188  0  3.990605  0
C  C31  1  0.97304744  0.82301485  0.77911719  1  0  0.201641  0  3.703763  0  0.990743  0  0.145943  0  3.998543  0  0  0.158845  0  4.006928  0  0  0.139102  0.138026  0  3.990578  0
C  C32  1  0.84998438  0.02695802  0.44578679  1  0  0.201815  0  3.703667  0  0.987301  0  0.146027  0  3.998464  0  0  0.158933  0  4.00684  0  0  0.139162  0.138109  0  3.990498  0
C  C33  1  0.38206650  0.19616591  0.93990426  1  0  0.165864  0  3.655292  0  1.007979  0  0.088049  0  3.920324  0  0  0.112677  0  3.935476  0  0  0.153298  0.078606  0  3.912234  0
C  C34  1  0.80383374  0.18590400  0.27323619  1  0  0.165835  0  3.655269  0  1.001587  0  0.088112  0  3.920301  0  0  0.112693  0  3.935427  0  0  0.15339  0.078674  0  3.912192  0
C  C35  1  0.81410327  0.61793732  0.60657191  1  0  0.165755  0  3.655141  0  1.010361  0  0.087887  0  3.920164  0  0  0.112569  0  3.935332  0  0  0.153195  0.07844  0  3.912067  0
C  C36  1  0.19616875  0.38206828  0.06009492  1  0  0.165921  0  3.655121  0  1.007948  0  0.088103  0  3.920147  0  0  0.112743  0  3.935293  0  0  0.153331  0.078659  0  3.912057  0
C  C37  1  0.18590321  0.80382963  0.72676413  1  0  0.166096  0  3.655137  0  1.001736  0  0.088319  0  3.920158  0  0  0.112927  0  3.935288  0  0  0.153434  0.078873  0  3.912063  0
C  C38  1  0.61793902  0.81410387  0.39342834  1  0  0.165833  0  3.655069  0  1.010381  0  0.087957  0  3.920082  0  0  0.112639  0  3.935255  0  0  0.153243  0.078515  0  3.911988  0
C  C39  1  0.67322935  0.36951213  0.87412945  1  0  -0.07331  0  3.659288  0  0.334866  0  -0.15171  0  3.912334  0  0  -0.139688  0  3.923086  0  0  -0.03913  -0.153472  0  3.907175  0
C  C40  1  0.63047221  0.30370914  0.20746129  1  0  -0.073283  0  3.659245  0  0.328943  0  -0.151789  0  3.912369  0  0  -0.139754  0  3.923105  0  0  -0.039187  -0.153569  0  3.907158  0
C  C41  1  0.69628716  0.32677512  0.54079759  1  0  -0.073216  0  3.659292  0  0.318664  0  -0.151681  0  3.912355  0  0  -0.139608  0  3.923126  0  0  -0.039113  -0.153444  0  3.907156  0
C  C42  1  0.36951146  0.67322829  0.12587005  1  0  -0.073297  0  3.659419  0  0.334835  0  -0.151757  0  3.912479  0  0  -0.139711  0  3.923236  0  0  -0.03915  -0.153509  0  3.907283  0
C  C43  1  0.30370998  0.63047287  0.79253864  1  0  -0.073281  0  3.659216  0  0.328933  0  -0.151793  0  3.912316  0  0  -0.139737  0  3.92306  0  0  -0.039187  -0.15358  0  3.907116  0
C  C44  1  0.32677630  0.69628952  0.45920232  1  0  -0.073336  0  3.65919  0  0.318658  0  -0.151822  0  3.912288  0  0  -0.139748  0  3.923054  0  0  -0.039155  -0.153582  0  3.907108  0
C  C45  1  0.69584870  0.28234559  0.82259219  1  0  0.134668  0  3.701088  0  0.475176  0  0.123158  0  4.009575  0  0  0.132117  0  4.021682  0  0  0.115335  0.117397  0  3.999938  0
C  C46  1  0.71764055  0.41350126  0.15592516  1  0  0.134542  0  3.701297  0  0.480469  0  0.123118  0  4.009694  0  0  0.132074  0  4.021799  0  0  0.115378  0.117368  0  4.000055  0
C  C47  1  0.58650145  0.30415071  0.48926067  1  0  0.134692  0  3.701223  0  0.483922  0  0.123181  0  4.009729  0  0  0.13214  0  4.021827  0  0  0.115339  0.117427  0  4.000085  0
C  C48  1  0.28235096  0.69585380  0.17740732  1  0  0.134687  0  3.70118  0  0.475226  0  0.123247  0  4.009562  0  0  0.132205  0  4.021664  0  0  0.115421  0.117498  0  3.999906  0
C  C49  1  0.41350197  0.71764375  0.84407473  1  0  0.134581  0  3.701223  0  0.480459  0  0.123109  0  4.009684  0  0  0.132065  0  4.021785  0  0  0.115359  0.117353  0  4.000056  0
C  C50  1  0.30415467  0.58650378  0.51074046  1  0  0.134618  0  3.701188  0  0.483947  0  0.123106  0  4.0097  0  0  0.132064  0  4.021798  0  0  0.115249  0.117348  0  4.000062  0
C  C51  1  0.71089454  0.17282551  0.73285149  1  0  0.148028  0  3.857302  0  0.30158  0  0.142167  0  4.154118  0  0  0.15635  0  4.169886  0  0  0.095041  0.132545  0  4.14325  0
C  C52  1  0.82716870  0.53806652  0.06618559  1  0  0.148141  0  3.85717  0  0.311648  0  0.142284  0  4.153988  0  0  0.156468  0  4.169754  0  0  0.095132  0.132663  0  4.143121  0
C  C53  1  0.46193126  0.28911055  0.39952029  1  0  0.148105  0  3.857156  0  0.300115  0  0.14224  0  4.153985  0  0  0.156423  0  4.169752  0  0  0.095081  0.132618  0  4.143117  0
C  C54  1  0.17282677  0.71089721  0.26714804  1  0  0.148014  0  3.857365  0  0.301569  0  0.142153  0  4.154187  0  0  0.156336  0  4.169953  0  0  0.095052  0.132533  0  4.143316  0
C  C55  1  0.53806717  0.82717142  0.93381427  1  0  0.148167  0  3.857125  0  0.311669  0  0.142303  0  4.153947  0  0  0.156488  0  4.169712  0  0  0.09512  0.132682  0  4.143081  0
C  C56  1  0.28911002  0.46193543  0.60048006  1  0  0.148196  0  3.85711  0  0.300087  0  0.142366  0  4.153888  0  0  0.156549  0  4.169655  0  0  0.095169  0.132746  0  4.143016  0
S  S57  1  0.56096977  0.25769677  0.76432248  1  0  0.086744  0  2.485954  0  0.242586  0  0.092139  0  2.815196  0  0  0.092815  0  2.814898  0  0  0.094766  0.090982  0  2.815542  0
S  S58  1  0.74228461  0.30327213  0.09765472  1  0  0.08673  0  2.486002  0  0.231629  0  0.092102  0  2.815224  0  0  0.092773  0  2.814937  0  0  0.094672  0.090941  0  2.815562  0
S  S59  1  0.69672585  0.43902658  0.43099095  1  0  0.086623  0  2.485984  0  0.244543  0  0.092023  0  2.815226  0  0  0.092694  0  2.81494  0  0  0.094681  0.090865  0  2.815566  0
S  S60  1  0.25770210  0.56097512  0.23567746  1  0  0.086681  0  2.485982  0  0.242632  0  0.092043  0  2.815219  0  0  0.092719  0  2.814922  0  0  0.094682  0.090885  0  2.815555  0
S  S61  1  0.30327351  0.74228864  0.90234478  1  0  0.08672  0  2.485984  0  0.231611  0  0.092108  0  2.815229  0  0  0.09278  0  2.814942  0  0  0.094702  0.090947  0  2.815572  0
S  S62  1  0.43902648  0.69672671  0.56901054  1  0  0.08671  0  2.486064  0  0.244493  0  0.092102  0  2.815297  0  0  0.092773  0  2.815012  0  0  0.094726  0.090942  0  2.815637  0
S  S63  1  0.67806427  0.09189271  0.66745306  1  0  -0.436945  0  2.117155  0  -0.263402  0  -0.406648  0  2.477961  0  0  -0.428891  0  2.472092  0  0  -0.213369  -0.391029  0  2.481662  0
S  S64  1  0.90810770  0.58617055  0.00078633  1  0  -0.437049  0  2.117032  0  -0.263097  0  -0.406765  0  2.47784  0  0  -0.429005  0  2.471966  0  0  -0.213427  -0.391146  0  2.481537  0
S  S65  1  0.41382959  0.32193818  0.33412141  1  0  -0.436951  0  2.117127  0  -0.264226  0  -0.406658  0  2.477932  0  0  -0.428892  0  2.47205  0  0  -0.213377  -0.391039  0  2.481634  0
S  S66  1  0.09189482  0.67806801  0.33254769  1  0  -0.436975  0  2.117106  0  -0.263387  0  -0.406676  0  2.477909  0  0  -0.428918  0  2.472037  0  0  -0.213391  -0.391056  0  2.481613  0
S  S67  1  0.58617121  0.90810716  0.99921350  1  0  -0.437032  0  2.117045  0  -0.263091  0  -0.406749  0  2.477862  0  0  -0.428988  0  2.471984  0  0  -0.213406  -0.391132  0  2.481561  0
S  S68  1  0.32193500  0.41383114  0.66587935  1  0  -0.437018  0  2.117099  0  -0.264143  0  -0.406737  0  2.477891  0  0  -0.428973  0  2.472017  0  0  -0.213415  -0.39112  0  2.481593  0
N  N69  1  0.18241804  0.13021259  0.93809732  1  0  -0.409953  0  3.223935  0  -1.285915  0  -0.330061  0  3.514117  0  0  -0.352412  0  3.52442  0  0  -0.356575  -0.314591  0  3.504147  0
N  N70  1  0.86978902  0.05221315  0.27143135  1  0  -0.409923  0  3.223925  0  -1.27675  0  -0.330035  0  3.514091  0  0  -0.352387  0  3.524407  0  0  -0.356555  -0.314562  0  3.504111  0
N  N71  1  0.94779660  0.81758926  0.60476294  1  0  -0.409902  0  3.223738  0  -1.285016  0  -0.330014  0  3.513975  0  0  -0.35236  0  3.524248  0  0  -0.356515  -0.314543  0  3.504001  0
N  N72  1  0.13021499  0.18241834  0.06190270  1  0  -0.410042  0  3.223923  0  -1.285909  0  -0.33014  0  3.514107  0  0  -0.352484  0  3.524387  0  0  -0.356607  -0.314669  0  3.504137  0
N  N73  1  0.05221156  0.86978725  0.72856898  1  0  -0.410051  0  3.223852  0  -1.277242  0  -0.330144  0  3.514004  0  0  -0.352493  0  3.524306  0  0  -0.356586  -0.314673  0  3.504032  0
N  N74  1  0.81759122  0.94779991  0.39523725  1  0  -0.409947  0  3.223778  0  -1.285057  0  -0.330036  0  3.513989  0  0  -0.352379  0  3.524257  0  0  -0.356559  -0.314565  0  3.504016  0
N  N75  1  0.31815875  0.26802365  0.85843411  1  0  -0.268929  0  2.887133  0  -0.730821  0  -0.263122  0  3.160876  0  0  -0.264408  0  3.182432  0  0  -0.22  -0.256059  0  3.150191  0
N  N76  1  0.73196222  0.05013222  0.19176852  1  0  -0.269083  0  2.887057  0  -0.730411  0  -0.263297  0  3.16082  0  0  -0.264588  0  3.182374  0  0  -0.220074  -0.256221  0  3.150123  0
N  N77  1  0.94986302  0.68183752  0.52509981  1  0  -0.268939  0  2.886954  0  -0.719673  0  -0.263184  0  3.1607  0  0  -0.264427  0  3.182283  0  0  -0.219962  -0.256118  0  3.150008  0
N  N78  1  0.26802188  0.31815742  0.14156546  1  0  -0.26893  0  2.887238  0  -0.730865  0  -0.263151  0  3.160994  0  0  -0.264413  0  3.18256  0  0  -0.220033  -0.256088  0  3.150309  0
N  N79  1  0.05012811  0.73196579  0.80823142  1  0  -0.268865  0  2.887238  0  -0.730622  0  -0.263099  0  3.160982  0  0  -0.264368  0  3.182544  0  0  -0.220001  -0.256035  0  3.150291  0
N  N80  1  0.68183948  0.94986505  0.47489960  1  0  -0.268862  0  2.886988  0  -0.719573  0  -0.263095  0  3.160716  0  0  -0.264339  0  3.182294  0  0  -0.219939  -0.256025  0  3.150022  0
N  N81  1  0.46332696  0.27766643  0.89216615  1  0  0.052969  0  3.564607  0  -0.869828  0  0.171053  0  3.752417  0  0  0.131132  0  3.814477  0  0  -0.132143  0.177957  0  3.735863  0
N  N82  1  0.72232567  0.18565935  0.22550087  1  0  0.053127  0  3.564603  0  -0.854384  0  0.171249  0  3.752346  0  0  0.13133  0  3.814419  0  0  -0.13208  0.1781  0  3.735909  0
N  N83  1  0.81434422  0.53667545  0.55883344  1  0  0.052934  0  3.564666  0  -0.855386  0  0.17117  0  3.75231  0  0  0.131114  0  3.814517  0  0  -0.132134  0.178058  0  3.735786  0
N  N84  1  0.27766663  0.46332580  0.10783380  1  0  0.052983  0  3.564651  0  -0.869824  0  0.171146  0  3.752365  0  0  0.131147  0  3.814517  0  0  -0.132093  0.178038  0  3.735835  0
N  N85  1  0.18565759  0.72232528  0.77450025  1  0  0.052858  0  3.564723  0  -0.854453  0  0.171035  0  3.752451  0  0  0.13105  0  3.814584  0  0  -0.132128  0.177936  0  3.735923  0
N  N86  1  0.53667592  0.81434527  0.44116641  1  0  0.052908  0  3.564593  0  -0.855398  0  0.171146  0  3.752224  0  0  0.131094  0  3.814428  0  0  -0.132123  0.17803  0  3.735711  0
N  N87  1  0.83687133  0.23310714  0.81640317  1  0  -0.197861  0  3.08423  0  -0.732765  0  -0.173621  0  3.371596  0  0  -0.181701  0  3.387782  0  0  -0.208704  -0.168016  0  3.360561  0
N  N88  1  0.76688875  0.60376515  0.14973683  1  0  -0.197811  0  3.084357  0  -0.732134  0  -0.17359  0  3.371666  0  0  -0.181671  0  3.387862  0  0  -0.208709  -0.167989  0  3.360619  0
N  N89  1  0.39624307  0.16312867  0.48307160  1  0  -0.197896  0  3.084425  0  -0.735675  0  -0.173644  0  3.371753  0  0  -0.181723  0  3.38794  0  0  -0.208685  -0.16804  0  3.360707  0
N  N90  1  0.23311282  0.83687505  0.18359713  1  0  -0.197866  0  3.084257  0  -0.732814  0  -0.173644  0  3.371612  0  0  -0.181725  0  3.387804  0  0  -0.208716  -0.168043  0  3.360571  0
N  N91  1  0.60376533  0.76688794  0.85026303  1  0  -0.197863  0  3.084276  0  -0.732132  0  -0.173622  0  3.371597  0  0  -0.181703  0  3.387791  0  0  -0.20874  -0.168017  0  3.360551  0
N  N92  1  0.16313265  0.39624297  0.51692798  1  0  -0.197856  0  3.084375  0  -0.735997  0  -0.173597  0  3.371708  0  0  -0.181676  0  3.387894  0  0  -0.208633  -0.167994  0  3.360665  0
N  N93  1  0.84725893  0.17129960  0.76595453  1  0  -0.276474  0  3.059319  0  -0.719069  0  -0.238836  0  3.343111  0  0  -0.252354  0  3.359232  0  0  -0.237904  -0.229476  0  3.331933  0
N  N94  1  0.82870221  0.67595875  0.09928854  1  0  -0.276508  0  3.059407  0  -0.721841  0  -0.238877  0  3.343215  0  0  -0.252391  0  3.359326  0  0  -0.237928  -0.229517  0  3.33203  0
N  N95  1  0.32404496  0.15274019  0.43262332  1  0  -0.276526  0  3.059351  0  -0.724092  0  -0.238908  0  3.343161  0  0  -0.252424  0  3.359278  0  0  -0.237954  -0.229545  0  3.331976  0
N  N96  1  0.17130147  0.84726046  0.23404538  1  0  -0.276447  0  3.059366  0  -0.719077  0  -0.238823  0  3.343172  0  0  -0.252341  0  3.359292  0  0  -0.23792  -0.229462  0  3.331992  0
N  N97  1  0.67595966  0.82870037  0.90071169  1  0  -0.276485  0  3.059265  0  -0.721847  0  -0.238857  0  3.343071  0  0  -0.252368  0  3.359176  0  0  -0.237901  -0.229496  0  3.331886  0
N  N98  1  0.15274181  0.32404721  0.56737667  1  0  -0.276586  0  3.059363  0  -0.724125  0  -0.238979  0  3.343169  0  0  -0.252496  0  3.359289  0  0  -0.238004  -0.229617  0  3.331982  0
