# generated using pymatgen
data_GdH12C14NO8
_symmetry_space_group_name_H-M   'P 1'
_cell_length_a   5.97057646
_cell_length_b   8.72244445
_cell_length_c   31.01100880
_cell_angle_alpha   84.60920064
_cell_angle_beta   84.72455065
_cell_angle_gamma   70.00238491
_symmetry_Int_Tables_number   1
_chemical_formula_structural   GdH12C14NO8
_chemical_formula_sum   'Gd4 H48 C56 N4 O32'
_cell_volume   1507.81539601
_cell_formula_units_Z   4
loop_
 _symmetry_equiv_pos_site_id
 _symmetry_equiv_pos_as_xyz
  1  'x, y, z'
loop_
 _atom_site_type_symbol
 _atom_site_label
 _atom_site_symmetry_multiplicity
 _atom_site_fract_x
 _atom_site_fract_y
 _atom_site_fract_z
 _atom_site_occupancy
 _atom_site_hle17_bader_spin_density
 _atom_site_hle17_ddec_charge
 _atom_site_hle17_ddec_spin_density
 _atom_site_hle17_ddec_sum_bond_order
 _atom_site_hle17_magmom
 _atom_site_hse06_10hf_bader_spin_density
 _atom_site_hse06_10hf_ddec_charge
 _atom_site_hse06_10hf_ddec_spin_density
 _atom_site_hse06_10hf_ddec_sum_bond_order
 _atom_site_hse06_10hf_magmom
 _atom_site_hse06_bader_spin_density
 _atom_site_hse06_ddec_charge
 _atom_site_hse06_ddec_spin_density
 _atom_site_hse06_ddec_sum_bond_order
 _atom_site_hse06_magmom
 _atom_site_pbe_bader_charge
 _atom_site_pbe_bader_spin_density
 _atom_site_pbe_cm5_charge
 _atom_site_pbe_ddec_charge
 _atom_site_pbe_ddec_spin_density
 _atom_site_pbe_ddec_sum_bond_order
 _atom_site_pbe_magmom
Gd  Gd0  1  0.91424879  0.76033044  0.95918202  1  0  2.231214  0  1.753932  0  0  2.145285  0  2.103692  0  0  2.195407  0  2.052533  0  2.211825  0  1.483448  2.103497  0  2.149458  0
Gd  Gd1  1  0.63454876  0.73973553  0.54076191  1  0  2.230624  0  1.754684  0  0  2.145455  0  2.103344  0  0  2.195686  0  2.052013  0  2.209833  0  1.483962  2.104401  0  2.147972  0
Gd  Gd2  1  0.08574933  0.23966911  0.04081735  1  0  2.231297  0  1.753912  0  0  2.145349  0  2.103688  0  0  2.195474  0  2.052526  0  2.211827  0  1.483438  2.103516  0  2.149527  0
Gd  Gd3  1  0.36544190  0.26025913  0.45923900  1  0  2.230686  0  1.75467  0  0  2.145532  0  2.103355  0  0  2.195752  0  2.052041  0  2.20982  0  1.484  2.104445  0  2.148038  0
H  H4  1  0.41474009  0.89271844  0.92994085  1  0  0.446804  0  0.852319  0  0  0.418342  0  0.911488  0  0  0.429076  0  0.895755  0  0.647124  0  0.306561  0.410719  0  0.922623  0
H  H5  1  0.23894239  0.60757619  0.57030135  1  0  0.446358  0  0.852565  0  0  0.418  0  0.911481  0  0  0.42871  0  0.895794  0  0.643138  0  0.306698  0.410402  0  0.922574  0
H  H6  1  0.58525799  0.10727989  0.07005919  1  0  0.446849  0  0.85226  0  0  0.418353  0  0.91148  0  0  0.429088  0  0.895745  0  0.64714  0  0.30656  0.410729  0  0.922616  0
H  H7  1  0.76104654  0.39241726  0.42969855  1  0  0.446225  0  0.85275  0  0  0.417891  0  0.911618  0  0  0.428599  0  0.895938  0  0.64318  0  0.306661  0.410291  0  0.922713  0
H  H8  1  0.45097624  0.04397893  0.95190826  1  0  0.442316  0  0.859487  0  0  0.411297  0  0.922716  0  0  0.422268  0  0.906865  0  0.665993  0  0.301777  0.403534  0  0.933868  0
H  H9  1  0.44713913  0.45648855  0.54824579  1  0  0.442301  0  0.859525  0  0  0.411278  0  0.922759  0  0  0.422227  0  0.906944  0  0.649507  0  0.301921  0.403549  0  0.93388  0
H  H10  1  0.54901391  0.95601940  0.04809130  1  0  0.442326  0  0.859475  0  0  0.411301  0  0.922707  0  0  0.422279  0  0.906848  0  0.665989  0  0.301734  0.403537  0  0.933861  0
H  H11  1  0.55285098  0.54350856  0.45175443  1  0  0.44224  0  0.859601  0  0  0.411194  0  0.922882  0  0  0.422146  0  0.907058  0  0.649535  0  0.301873  0.403454  0  0.934014  0
H  H12  1  0.72416128  0.47860335  0.96121725  1  0  0.440095  0  0.860875  0  0  0.40727  0  0.927974  0  0  0.418125  0  0.912253  0  0.670446  0  0.301692  0.399562  0  0.939093  0
H  H13  1  0.16476081  0.02150953  0.53869828  1  0  0.440049  0  0.860918  0  0  0.407277  0  0.92786  0  0  0.418131  0  0.912146  0  0.663367  0  0.301785  0.399582  0  0.938952  0
H  H14  1  0.27584686  0.52139254  0.03878071  1  0  0.44006  0  0.860915  0  0  0.40724  0  0.928011  0  0  0.418096  0  0.91229  0  0.670457  0  0.301672  0.399533  0  0.939129  0
H  H15  1  0.83522945  0.97848391  0.46130197  1  0  0.440008  0  0.860976  0  0  0.407235  0  0.927915  0  0  0.418089  0  0.912203  0  0.663321  0  0.301797  0.399541  0  0.939006  0
H  H16  1  0.53066158  0.63098466  0.93605232  1  0  0.450356  0  0.837537  0  0  0.422331  0  0.895775  0  0  0.431707  0  0.882177  0  0.652717  0  0.314628  0.415663  0  0.905421  0
H  H17  1  0.09944438  0.86929163  0.56395390  1  0  0.449925  0  0.837937  0  0  0.421634  0  0.896717  0  0  0.431029  0  0.883063  0  0.655453  0  0.314501  0.414988  0  0.906337  0
H  H18  1  0.46934132  0.36901122  0.06394751  1  0  0.450386  0  0.837485  0  0  0.422365  0  0.895716  0  0  0.431743  0  0.882115  0  0.652744  0  0.31464  0.415696  0  0.905363  0
H  H19  1  0.90054830  0.13070426  0.43604606  1  0  0.449895  0  0.837992  0  0  0.421676  0  0.896689  0  0  0.431078  0  0.88302  0  0.655517  0  0.314499  0.415029  0  0.906311  0
H  H20  1  0.19576863  0.46314402  0.86441245  1  0  0.107929  0  0.940723  0  0  0.119141  0  0.998335  0  0  0.122224  0  0.997206  0  0.082834  0  0.11048  0.116716  0  0.999664  0
H  H21  1  0.52697210  0.03736871  0.63547886  1  0  0.107948  0  0.942284  0  0  0.11921  0  0.999935  0  0  0.122217  0  0.998924  0  0.082531  0  0.111059  0.116853  0  1.001175  0
H  H22  1  0.80423046  0.53685554  0.13558595  1  0  0.107928  0  0.940666  0  0  0.119132  0  0.998298  0  0  0.122216  0  0.997166  0  0.082864  0  0.110453  0.116707  0  0.999629  0
H  H23  1  0.47303621  0.96262963  0.36452106  1  0  0.108014  0  0.942199  0  0  0.119276  0  0.999846  0  0  0.122286  0  0.998835  0  0.082543  0  0.111072  0.116917  0  1.001086  0
H  H24  1  0.46863636  0.43055019  0.79850335  1  0  0.089996  0  0.978286  0  0  0.093771  0  1.051643  0  0  0.097396  0  1.049261  0  0.097584  0  0.097086  0.091259  0  1.053242  0
H  H25  1  0.70339343  0.07029024  0.70151878  1  0  0.090984  0  0.973841  0  0  0.094652  0  1.047026  0  0  0.09824  0  1.044703  0  0.10354  0  0.097479  0.092167  0  1.048588  0
H  H26  1  0.53137139  0.56945059  0.20149588  1  0  0.090003  0  0.978354  0  0  0.093724  0  1.051763  0  0  0.09735  0  1.04938  0  0.097587  0  0.097062  0.091211  0  1.053366  0
H  H27  1  0.29661046  0.92971176  0.29848201  1  0  0.090997  0  0.973953  0  0  0.094661  0  1.047134  0  0  0.098249  0  1.044809  0  0.103511  0  0.097514  0.092175  0  1.048696  0
H  H28  1  0.91234633  0.29037199  0.80479841  1  0  0.09142  0  0.949476  0  0  0.101377  0  1.009525  0  0  0.10409  0  1.008705  0  0.085583  0  0.10127  0.099437  0  1.010141  0
H  H29  1  0.01348398  0.20998911  0.69532958  1  0  0.0919  0  0.949791  0  0  0.102155  0  1.00959  0  0  0.104961  0  1.008637  0  0.085397  0  0.10152  0.100195  0  1.01024  0
H  H30  1  0.08766150  0.70962879  0.19520411  1  0  0.091516  0  0.949479  0  0  0.10143  0  1.009561  0  0  0.104157  0  1.008726  0  0.085427  0  0.101293  0.09949  0  1.010178  0
H  H31  1  0.98652092  0.79001412  0.30466957  1  0  0.091868  0  0.949848  0  0  0.102139  0  1.009622  0  0  0.104945  0  1.008669  0  0.085432  0  0.10152  0.10018  0  1.010272  0
H  H32  1  0.06634523  0.17454869  0.87653729  1  0  0.093262  0  0.956488  0  0  0.103467  0  1.019423  0  0  0.105776  0  1.019735  0  0.053609  0  0.102494  0.101587  0  1.019792  0
H  H33  1  0.12147556  0.32534165  0.62361676  1  0  0.093331  0  0.956784  0  0  0.103226  0  1.020138  0  0  0.105566  0  1.020365  0  0.061138  0  0.102337  0.10132  0  1.020566  0
H  H34  1  0.93365088  0.82544842  0.12346535  1  0  0.093296  0  0.956358  0  0  0.103456  0  1.019357  0  0  0.105765  0  1.019668  0  0.05356  0  0.102481  0.101575  0  1.019728  0
H  H35  1  0.87852398  0.67466036  0.37638164  1  0  0.093382  0  0.95679  0  0  0.103254  0  1.020161  0  0  0.105593  0  1.020389  0  0.060944  0  0.102314  0.101353  0  1.020577  0
H  H36  1  0.00951565  0.78655371  0.79801953  1  0  0.112407  0  0.958881  0  0  0.119337  0  1.024113  0  0  0.12281  0  1.022716  0  0.100382  0  0.109218  0.116609  0  1.025728  0
H  H37  1  0.59560036  0.71437309  0.70171777  1  0  0.11263  0  0.957117  0  0  0.119316  0  1.022502  0  0  0.122818  0  1.021053  0  0.109579  0  0.109051  0.116565  0  1.024154  0
H  H38  1  0.99048876  0.21344585  0.20198030  1  0  0.112437  0  0.958998  0  0  0.119408  0  1.024147  0  0  0.12288  0  1.02275  0  0.100294  0  0.109243  0.11668  0  1.025764  0
H  H39  1  0.40440001  0.28563747  0.29828386  1  0  0.112576  0  0.957226  0  0  0.119294  0  1.022579  0  0  0.122797  0  1.021129  0  0.1096  0  0.109083  0.116542  0  1.024233  0
H  H40  1  0.15008246  0.89812059  0.72712067  1  0  0.071469  0  0.937347  0  0  0.081126  0  0.997689  0  0  0.083295  0  0.997297  0  0.099091  0  0.110019  0.079579  0  0.998005  0
H  H41  1  0.77630635  0.60077888  0.77282987  1  0  0.071315  0  0.93618  0  0  0.081429  0  0.995917  0  0  0.083575  0  0.995541  0  0.074249  0  0.10997  0.079864  0  0.996275  0
H  H42  1  0.84992548  0.10188997  0.27288012  1  0  0.071596  0  0.93736  0  0  0.08124  0  0.997695  0  0  0.083408  0  0.997306  0  0.0991  0  0.110107  0.079695  0  0.998011  0
H  H43  1  0.22370948  0.39923169  0.22716976  1  0  0.071197  0  0.936365  0  0  0.081337  0  0.99607  0  0  0.08348  0  0.995699  0  0.074137  0  0.109931  0.079808  0  0.99639  0
H  H44  1  0.60673955  0.06161599  0.78821882  1  0  0.067296  0  0.939626  0  0  0.076662  0  1.00067  0  0  0.078673  0  1.000418  0  0.072649  0  0.10804  0.074971  0  1.001418  0
H  H45  1  0.45716171  0.43758960  0.71273299  1  0  0.06673  0  0.940132  0  0  0.07612  0  1.000915  0  0  0.07821  0  1.000595  0  0.078671  0  0.107779  0.074393  0  1.00169  0
H  H46  1  0.39326881  0.93838845  0.21178466  1  0  0.067335  0  0.939526  0  0  0.076679  0  1.000591  0  0  0.078691  0  1.000343  0  0.072743  0  0.108011  0.074994  0  1.001324  0
H  H47  1  0.54283715  0.56241240  0.28726441  1  0  0.066715  0  0.94024  0  0  0.076108  0  1.001017  0  0  0.078196  0  1.0007  0  0.078801  0  0.107782  0.074381  0  1.00179  0
H  H48  1  0.50473842  0.94331128  0.86030434  1  0  0.125464  0  0.953631  0  0  0.132907  0  1.016227  0  0  0.137317  0  1.013395  0  0.128323  0  0.114711  0.129705  0  1.018408  0
H  H49  1  0.30939669  0.55749080  0.64047857  1  0  0.125966  0  0.952007  0  0  0.133826  0  1.013934  0  0  0.138342  0  1.011012  0  0.129672  0  0.114969  0.130552  0  1.016158  0
H  H50  1  0.49527161  0.05668094  0.13969697  1  0  0.125475  0  0.95362  0  0  0.13291  0  1.016224  0  0  0.13732  0  1.013391  0  0.128316  0  0.114698  0.129703  0  1.018408  0
H  H51  1  0.69059602  0.44250020  0.35951879  1  0  0.125964  0  0.951959  0  0  0.133836  0  1.013867  0  0  0.138354  0  1.010943  0  0.129637  0  0.114962  0.130561  0  1.016092  0
C  C52  1  0.71967679  0.25082433  0.91081744  1  0  -0.06698  0  3.722072  0  0  -0.051938  0  3.948557  0  0  -0.055038  0  3.967321  0  0.005302  0  -0.004617  -0.050143  0  3.936358  0
C  C53  1  0.88427850  0.24899753  0.58920672  1  0  -0.069457  0  3.719391  0  0  -0.054528  0  3.946355  0  0  -0.057553  0  3.965024  0  -0.023755  0  -0.005176  -0.052713  0  3.934071  0
C  C54  1  0.28031649  0.74917033  0.08918253  1  0  -0.066992  0  3.722241  0  0  -0.051976  0  3.948687  0  0  -0.055072  0  3.967453  0  0.005614  0  -0.004657  -0.050181  0  3.936493  0
C  C55  1  0.11571495  0.75100080  0.41079291  1  0  -0.06937  0  3.719298  0  0  -0.054425  0  3.946304  0  0  -0.057452  0  3.964968  0  -0.023797  0  -0.005156  -0.052606  0  3.934023  0
C  C56  1  0.47408878  0.33478990  0.90747819  1  0  -0.092123  0  3.740258  0  0  -0.075496  0  3.968449  0  0  -0.080896  0  3.988259  0  -0.049445  0  -0.012432  -0.072086  0  3.955588  0
C  C57  1  0.71932197  0.16508822  0.59249319  1  0  -0.091209  0  3.738461  0  0  -0.074554  0  3.966608  0  0  -0.079959  0  3.986318  0  -0.035114  0  -0.012597  -0.071147  0  3.953759  0
C  C58  1  0.52591236  0.66520966  0.09252322  1  0  -0.092173  0  3.740388  0  0  -0.07554  0  3.96857  0  0  -0.080937  0  3.988379  0  -0.049387  0  -0.012445  -0.072128  0  3.955713  0
C  C59  1  0.28067699  0.83490767  0.40750721  1  0  -0.091183  0  3.738517  0  0  -0.074507  0  3.96657  0  0  -0.07991  0  3.98628  0  -0.034872  0  -0.012599  -0.071103  0  3.953724  0
C  C60  1  0.38683684  0.39988342  0.86687950  1  0  -0.068114  0  3.720398  0  0  -0.09193  0  3.96829  0  0  -0.092556  0  3.988719  0  -0.032537  0  -0.081208  -0.091394  0  3.954872  0
C  C61  1  0.65749339  0.10037253  0.63307972  1  0  -0.067307  0  3.721081  0  0  -0.09107  0  3.968684  0  0  -0.091649  0  3.989128  0  -0.046256  0  -0.081585  -0.090577  0  3.955223  0
C  C62  1  0.61316101  0.60011736  0.13311953  1  0  -0.0681  0  3.720455  0  0  -0.09191  0  3.96832  0  0  -0.092537  0  3.988749  0  -0.032575  0  -0.081184  -0.091374  0  3.954902  0
C  C63  1  0.34251040  0.89962091  0.36692048  1  0  -0.067536  0  3.72112  0  0  -0.091316  0  3.968754  0  0  -0.0919  0  3.9892  0  -0.046184  0  -0.08166  -0.090821  0  3.955293  0
C  C64  1  0.54266104  0.38205561  0.82981447  1  0  -0.077075  0  3.771823  0  0  -0.089352  0  4.023857  0  0  -0.092093  0  4.044867  0  -0.103073  0  -0.090978  -0.087455  0  4.009361  0
C  C65  1  0.75935880  0.11852437  0.67020621  1  0  -0.079932  0  3.77067  0  0  -0.091904  0  4.023159  0  0  -0.094677  0  4.044227  0  -0.060678  0  -0.091529  -0.089999  0  4.008665  0
C  C66  1  0.45734630  0.61794273  0.17018641  1  0  -0.07706  0  3.77193  0  0  -0.089291  0  4.023951  0  0  -0.092032  0  4.044963  0  -0.103158  0  -0.090988  -0.087397  0  4.009457  0
C  C67  1  0.24065193  0.88147641  0.32979341  1  0  -0.079854  0  3.770652  0  0  -0.091818  0  4.023138  0  0  -0.09459  0  4.044205  0  -0.060685  0  -0.091534  -0.089913  0  4.008646  0
C  C68  1  0.78768188  0.30198208  0.83333792  1  0  -0.061755  0  3.760638  0  0  -0.073852  0  4.007322  0  0  -0.074854  0  4.028157  0  -0.063992  0  -0.085372  -0.072919  0  3.993002  0
C  C69  1  0.92800994  0.19837902  0.66674791  1  0  -0.061428  0  3.759664  0  0  -0.073887  0  4.005898  0  0  -0.074932  0  4.026778  0  -0.031712  0  -0.085436  -0.072959  0  3.991555  0
C  C70  1  0.21232104  0.69801992  0.16666383  1  0  -0.061867  0  3.760628  0  0  -0.073919  0  4.007281  0  0  -0.074934  0  4.028112  0  -0.063852  0  -0.08535  -0.072985  0  3.992962  0
C  C71  1  0.07199446  0.80162053  0.33325192  1  0  -0.061311  0  3.759719  0  0  -0.073784  0  4.005948  0  0  -0.074828  0  4.026826  0  -0.031883  0  -0.085379  -0.072857  0  3.991607  0
C  C72  1  0.87528068  0.23625273  0.87368605  1  0  -0.076483  0  3.729489  0  0  -0.09902  0  3.977431  0  0  -0.101044  0  3.998434  0  0.027823  0  -0.08456  -0.097649  0  3.963693  0
C  C73  1  0.98927530  0.26369142  0.62640076  1  0  -0.074845  0  3.729139  0  0  -0.096975  0  3.976873  0  0  -0.098994  0  3.997847  0  -0.049846  0  -0.08373  -0.095615  0  3.963115  0
C  C74  1  0.12471933  0.76374438  0.12631437  1  0  -0.076469  0  3.729244  0  0  -0.098978  0  3.977218  0  0  -0.101002  0  3.998223  0  0.027907  0  -0.084533  -0.097608  0  3.963482  0
C  C75  1  0.01072304  0.73631303  0.37359759  1  0  -0.07497  0  3.729283  0  0  -0.097064  0  3.976999  0  0  -0.099085  0  3.997975  0  -0.049556  0  -0.08371  -0.095706  0  3.963244  0
C  C76  1  0.82069353  0.17946907  0.95381171  1  0  0.735053  0  3.825948  0  0  0.685679  0  4.122104  0  0  0.72091  0  4.110233  0  1.591641  0  0.246287  0.661539  0  4.129412  0
C  C77  1  0.95519628  0.32047263  0.54622041  1  0  0.737635  0  3.822193  0  0  0.687922  0  4.118969  0  0  0.723117  0  4.107053  0  1.585977  0  0.247568  0.663815  0  4.126296  0
C  C78  1  0.17930116  0.82052682  0.04618960  1  0  0.734965  0  3.826036  0  0  0.685731  0  4.121989  0  0  0.720946  0  4.110139  0  1.591032  0  0.246338  0.661586  0  4.129315  0
C  C79  1  0.04478476  0.67953549  0.45377823  1  0  0.73753  0  3.822177  0  0  0.687623  0  4.119281  0  0  0.722829  0  4.107348  0  1.586134  0  0.247387  0.663513  0  4.126611  0
C  C80  1  0.30818590  0.35258714  0.94730961  1  0  0.728133  0  3.834096  0  0  0.677865  0  4.129395  0  0  0.713017  0  4.117972  0  1.59239  0  0.243231  0.653771  0  4.136423  0
C  C81  1  0.60952375  0.14755998  0.55261072  1  0  0.725566  0  3.836584  0  0  0.675367  0  4.131735  0  0  0.710585  0  4.120253  0  1.603155  0  0.242941  0.651275  0  4.138766  0
C  C82  1  0.69181405  0.64741609  0.05268945  1  0  0.728177  0  3.833945  0  0  0.67789  0  4.129268  0  0  0.713041  0  4.117846  0  1.592574  0  0.243224  0.653787  0  4.136314  0
C  C83  1  0.39047993  0.85242490  0.44738888  1  0  0.725389  0  3.836784  0  0  0.675287  0  4.131768  0  0  0.71051  0  4.120283  0  1.602595  0  0.242951  0.651195  0  4.1388  0
C  C84  1  0.24376461  0.85764363  0.83480141  1  0  -0.019258  0  3.733958  0  0  0.00122  0  3.964124  0  0  -0.003075  0  3.985978  0  -0.041326  0  -0.001622  0.003973  0  3.949333  0
C  C85  1  0.93754300  0.64312665  0.66544020  1  0  -0.017008  0  3.735556  0  0  0.003663  0  3.965538  0  0  -0.000671  0  3.987538  0  -0.069587  0  6.9e-05  0.006398  0  3.950688  0
C  C86  1  0.75624425  0.14235226  0.16519919  1  0  -0.019217  0  3.733822  0  0  0.00123  0  3.964025  0  0  -0.003063  0  3.985874  0  -0.041655  0  -0.001607  0.003981  0  3.949235  0
C  C87  1  0.06245247  0.35687291  0.33455846  1  0  -0.016915  0  3.735507  0  0  0.003709  0  3.965513  0  0  -0.000606  0  3.987495  0  -0.069603  0  2.3e-05  0.006445  0  3.950663  0
C  C88  1  0.14438927  0.84521797  0.79669161  1  0  -0.121263  0  3.71609  0  0  -0.14385  0  3.960527  0  0  -0.148191  0  3.982872  0  -0.014871  0  -0.078447  -0.141015  0  3.945999  0
C  C89  1  0.78756259  0.65524663  0.70331658  1  0  -0.12149  0  3.713907  0  0  -0.144096  0  3.958794  0  0  -0.148388  0  3.98104  0  -0.001203  0  -0.078843  -0.141258  0  3.944293  0
C  C90  1  0.85561760  0.15478404  0.20330956  1  0  -0.121333  0  3.716019  0  0  -0.143928  0  3.960444  0  0  -0.148273  0  3.982795  0  -0.014369  0  -0.078488  -0.141092  0  3.945918  0
C  C91  1  0.21243568  0.34476271  0.29668272  1  0  -0.121314  0  3.714  0  0  -0.143939  0  3.958881  0  0  -0.148237  0  3.981123  0  -0.001278  0  -0.078818  -0.141104  0  3.94439  0
C  C92  1  0.22161015  0.90889309  0.75750903  1  0  0.09207  0  3.759398  0  0  0.07137  0  4.018908  0  0  0.074373  0  4.037551  0  0.458354  0  0.034396  0.069532  0  4.006093  0
C  C93  1  0.88894242  0.59052238  0.74261050  1  0  0.095613  0  3.758268  0  0  0.074447  0  4.018135  0  0  0.077507  0  4.036749  0  0.464952  0  0.037309  0.072584  0  4.005368  0
C  C94  1  0.77838962  0.09111870  0.24249258  1  0  0.091882  0  3.759422  0  0  0.071183  0  4.018954  0  0  0.074186  0  4.037593  0  0.458474  0  0.034278  0.069339  0  4.006145  0
C  C95  1  0.11106281  0.40948084  0.25738832  1  0  0.095548  0  3.758448  0  0  0.074361  0  4.018341  0  0  0.077423  0  4.036956  0  0.465449  0  0.037267  0.072468  0  4.005565  0
C  C96  1  0.47706069  0.99739141  0.79118210  1  0  0.105749  0  3.743155  0  0  0.084734  0  4.002704  0  0  0.087976  0  4.020993  0  0.455226  0  0.040775  0.082582  0  3.990505  0
C  C97  1  0.26639331  0.50207541  0.70949417  1  0  0.106322  0  3.744503  0  0  0.085445  0  4.003725  0  0  0.08861  0  4.02208  0  0.474933  0  0.041243  0.083332  0  3.991493  0
C  C98  1  0.52294483  0.00261548  0.20882131  1  0  0.10557  0  3.743103  0  0  0.084566  0  4.00265  0  0  0.087804  0  4.020944  0  0.455313  0  0.040836  0.082416  0  3.990451  0
C  C99  1  0.73360535  0.49792904  0.29050386  1  0  0.106413  0  3.744488  0  0  0.085529  0  4.003713  0  0  0.088696  0  4.022069  0  0.474745  0  0.041301  0.083416  0  3.99148  0
C  C100  1  0.41794190  0.93287015  0.83184019  1  0  -0.11304  0  3.670759  0  0  -0.134659  0  3.912426  0  0  -0.137739  0  3.931277  0  0.010784  0  -0.073337  -0.132496  0  3.89983  0
C  C101  1  0.18374286  0.56756266  0.66875666  1  0  -0.115599  0  3.674314  0  0  -0.137587  0  3.915975  0  0  -0.140779  0  3.934834  0  -0.001742  0  -0.074145  -0.135311  0  3.903368  0
C  C102  1  0.58206574  0.06713430  0.16816064  1  0  -0.113017  0  3.670843  0  0  -0.134618  0  3.91251  0  0  -0.137697  0  3.931359  0  0.010904  0  -0.073407  -0.13245  0  3.899911  0
C  C103  1  0.81625865  0.43243935  0.33124145  1  0  -0.115701  0  3.674265  0  0  -0.137674  0  3.915917  0  0  -0.140877  0  3.934777  0  -0.001593  0  -0.074134  -0.135402  0  3.903313  0
C  C104  1  0.15164943  0.79956630  0.87745451  1  0  0.650951  0  3.900852  0  0  0.598634  0  4.206436  0  0  0.63169  0  4.198556  0  1.543437  0  0.209268  0.576433  0  4.210296  0
C  C105  1  0.83017698  0.70139229  0.62262685  1  0  0.64821  0  3.902379  0  0  0.595721  0  4.208551  0  0  0.628767  0  4.200744  0  1.550939  0  0.208342  0.573545  0  4.212418  0
C  C106  1  0.84835673  0.20042837  0.12254605  1  0  0.651053  0  3.900715  0  0  0.598743  0  4.206287  0  0  0.631801  0  4.198405  0  1.543355  0  0.209348  0.576542  0  4.210143  0
C  C107  1  0.16981574  0.29860482  0.37737244  1  0  0.64815  0  3.902231  0  0  0.595717  0  4.208339  0  0  0.628756  0  4.200537  0  1.550844  0  0.208367  0.57354  0  4.212204  0
N  N108  1  0.38279463  0.98654800  0.75434768  1  0  -0.312307  0  3.070628  0  0  -0.279558  0  3.340327  0  0  -0.28835  0  3.354991  0  -1.201172  0  -0.320358  -0.27319  0  3.329934  0
N  N109  1  0.12433321  0.51229767  0.74608058  1  0  -0.313785  0  3.071972  0  0  -0.280816  0  3.341874  0  0  -0.289648  0  3.356582  0  -1.192003  0  -0.321556  -0.274433  0  3.331457  0
N  N110  1  0.61721048  0.01345767  0.24565507  1  0  -0.312108  0  3.07052  0  0  -0.279354  0  3.3402  0  0  -0.288143  0  3.354859  0  -1.201681  0  -0.320284  -0.272988  0  3.329811  0
N  N111  1  0.87567266  0.48770556  0.25391760  1  0  -0.313774  0  3.071929  0  0  -0.280804  0  3.341841  0  0  -0.289635  0  3.356545  0  -1.192438  0  -0.321569  -0.274424  0  3.331439  0
O  O112  1  0.91112133  0.02607042  0.95873168  1  0  -0.705988  0  2.079954  0  0  -0.667049  0  2.341366  0  0  -0.692261  0  2.329564  0  -1.190995  0  -0.388802  -0.648315  0  2.348668  0
O  O113  1  0.89627679  0.47393853  0.54128468  1  0  -0.706906  0  2.076824  0  0  -0.668101  0  2.338443  0  0  -0.693389  0  2.326792  0  -1.165945  0  -0.389873  -0.649429  0  2.345612  0
O  O114  1  0.08887063  0.97393036  0.04126986  1  0  -0.705937  0  2.079905  0  0  -0.667055  0  2.34127  0  0  -0.692262  0  2.329474  0  -1.190647  0  -0.388813  -0.648307  0  2.348575  0
O  O115  1  0.10371394  0.52605125  0.45871529  1  0  -0.706846  0  2.07642  0  0  -0.667988  0  2.33814  0  0  -0.693283  0  2.326485  0  -1.165806  0  -0.389836  -0.649307  0  2.345312  0
O  O116  1  0.81689400  0.27852469  0.98209319  1  0  -0.701964  0  2.016176  0  0  -0.652924  0  2.254639  0  0  -0.67842  0  2.242177  0  -1.186305  0  -0.348505  -0.634318  0  2.262734  0
O  O117  1  0.07803823  0.22156496  0.51796172  1  0  -0.702667  0  2.016448  0  0  -0.652898  0  2.253986  0  0  -0.678544  0  2.241972  0  -1.192643  0  -0.347208  -0.634378  0  2.261932  0
O  O118  1  0.18309407  0.72147731  0.01790827  1  0  -0.70192  0  2.016113  0  0  -0.652962  0  2.254559  0  0  -0.678459  0  2.242111  0  -1.186241  0  -0.348568  -0.634341  0  2.2626  0
O  O119  1  0.92195677  0.77842604  0.48203503  1  0  -0.702631  0  2.016807  0  0  -0.652737  0  2.254402  0  0  -0.678381  0  2.24238  0  -1.192989  0  -0.347108  -0.634227  0  2.262353  0
O  O120  1  0.31926151  0.22361186  0.97178428  1  0  -0.713429  0  2.067424  0  0  -0.658045  0  2.300067  0  0  -0.684233  0  2.288877  0  -1.195329  0  -0.355723  -0.639209  0  2.307566  0
O  O121  1  0.51537510  0.27683362  0.52822371  1  0  -0.713061  0  2.068986  0  0  -0.658065  0  2.301882  0  0  -0.684288  0  2.29066  0  -1.197456  0  -0.356998  -0.639316  0  2.309365  0
O  O122  1  0.68072491  0.77639137  0.02821484  1  0  -0.713374  0  2.067378  0  0  -0.657976  0  2.300021  0  0  -0.684165  0  2.288834  0  -1.195431  0  -0.355674  -0.63915  0  2.307524  0
O  O123  1  0.48461400  0.72316349  0.47177584  1  0  -0.712963  0  2.069373  0  0  -0.65801  0  2.302241  0  0  -0.684245  0  2.291032  0  -1.197522  0  -0.357002  -0.639268  0  2.309722  0
O  O124  1  0.16599043  0.49254279  0.95588612  1  0  -0.724669  0  2.092709  0  0  -0.684558  0  2.36053  0  0  -0.709077  0  2.347092  0  -1.200885  0  -0.388362  -0.666173  0  2.368959  0
O  O125  1  0.61519934  0.00780853  0.54389752  1  0  -0.72298  0  2.094801  0  0  -0.683134  0  2.362602  0  0  -0.707682  0  2.349239  0  -1.201708  0  -0.387335  -0.664867  0  2.370959  0
O  O126  1  0.83402204  0.50745921  0.04411451  1  0  -0.724759  0  2.092684  0  0  -0.684625  0  2.360482  0  0  -0.709146  0  2.347043  0  -1.200984  0  -0.388356  -0.666228  0  2.368924  0
O  O127  1  0.38479903  0.99219469  0.45610479  1  0  -0.722953  0  2.094519  0  0  -0.683164  0  2.362317  0  0  -0.707716  0  2.348954  0  -1.201301  0  -0.387379  -0.664887  0  2.370674  0
O  O128  1  0.26547098  0.78453005  0.91192941  1  0  -0.729183  0  2.099693  0  0  -0.671448  0  2.333973  0  0  -0.696737  0  2.323219  0  -1.206381  0  -0.355721  -0.653217  0  2.340586  0
O  O129  1  0.96343014  0.71595289  0.58833354  1  0  -0.72677  0  2.095852  0  0  -0.669281  0  2.330284  0  0  -0.694626  0  2.319715  0  -1.212619  0  -0.354705  -0.651137  0  2.336826  0
O  O130  1  0.73452957  0.21547073  0.08807198  1  0  -0.729336  0  2.099636  0  0  -0.671556  0  2.333893  0  0  -0.696853  0  2.323142  0  -1.206335  0  -0.35576  -0.653317  0  2.340505  0
O  O131  1  0.03656327  0.28404422  0.41166675  1  0  -0.726722  0  2.095681  0  0  -0.669293  0  2.330129  0  0  -0.694635  0  2.319556  0  -1.212586  0  -0.354705  -0.651147  0  2.336676  0
O  O132  1  0.95622231  0.77143064  0.87982784  1  0  -0.654422  0  1.957315  0  0  -0.615482  0  2.192959  0  0  -0.639302  0  2.184442  0  -1.164892  0  -0.354933  -0.598209  0  2.198131  0
O  O133  1  0.60899720  0.72989722  0.61997695  1  0  -0.654247  0  1.9589  0  0  -0.615239  0  2.194686  0  0  -0.639029  0  2.186071  0  -1.167053  0  -0.356422  -0.598093  0  2.199909  0
O  O134  1  0.04378250  0.22857014  0.12017264  1  0  -0.654493  0  1.957278  0  0  -0.615569  0  2.192928  0  0  -0.63939  0  2.184412  0  -1.164878  0  -0.354974  -0.598287  0  2.198101  0
O  O135  1  0.39099321  0.27010600  0.38002323  1  0  -0.654278  0  1.958928  0  0  -0.615279  0  2.194691  0  0  -0.639071  0  2.186086  0  -1.166913  0  -0.356452  -0.598129  0  2.199915  0
O  O136  1  0.53456227  0.93511513  0.93986227  1  0  -0.928864  0  1.874371  0  0  -0.889022  0  2.073055  0  0  -0.909209  0  2.041351  0  -1.301823  0  -0.661612  -0.873824  0  2.09531  0
O  O137  1  0.41039751  0.56534335  0.56028513  1  0  -0.927516  0  1.873342  0  0  -0.887725  0  2.071784  0  0  -0.907837  0  2.040037  0  -1.279311  0  -0.661485  -0.872707  0  2.093946  0
O  O138  1  0.46543397  0.06488565  0.06013837  1  0  -0.928921  0  1.87431  0  0  -0.889056  0  2.073063  0  0  -0.909245  0  2.041335  0  -1.301823  0  -0.661585  -0.873854  0  2.095341  0
O  O139  1  0.58959058  0.43465254  0.43971604  1  0  -0.927368  0  1.873496  0  0  -0.88756  0  2.071931  0  0  -0.907672  0  2.040182  0  -1.279461  0  -0.661421  -0.872525  0  2.094118  0
O  O140  1  0.68685068  0.59337508  0.94858868  1  0  -0.916521  0  1.893392  0  0  -0.87526  0  2.086866  0  0  -0.894697  0  2.056353  0  -1.300459  0  -0.650397  -0.860662  0  2.108309  0
O  O141  1  0.22994712  0.90652460  0.55119529  1  0  -0.915756  0  1.893929  0  0  -0.874663  0  2.087743  0  0  -0.894017  0  2.057145  0  -1.296991  0  -0.650247  -0.860231  0  2.109171  0
O  O142  1  0.31316800  0.40661592  0.05140460  1  0  -0.916481  0  1.893354  0  0  -0.875218  0  2.086807  0  0  -0.894653  0  2.056288  0  -1.300467  0  -0.650395  -0.860613  0  2.108257  0
O  O143  1  0.77004225  0.09347128  0.44880460  1  0  -0.915692  0  1.894064  0  0  -0.874688  0  2.087746  0  0  -0.894042  0  2.057148  0  -1.297055  0  -0.650225  -0.86025  0  2.109174  0
