# generated using pymatgen
data_SrH8C2(N2O)4
_symmetry_space_group_name_H-M   'P 1'
_cell_length_a   5.41258678
_cell_length_b   14.04079811
_cell_length_c   21.10613244
_cell_angle_alpha   90.00196051
_cell_angle_beta   90.00054132
_cell_angle_gamma   89.99922591
_symmetry_Int_Tables_number   1
_chemical_formula_structural   SrH8C2(N2O)4
_chemical_formula_sum   'Sr4 H32 C8 N32 O16'
_cell_volume   1604.00355100
_cell_formula_units_Z   4
loop_
 _symmetry_equiv_pos_site_id
 _symmetry_equiv_pos_as_xyz
  1  'x, y, z'
loop_
 _atom_site_type_symbol
 _atom_site_label
 _atom_site_symmetry_multiplicity
 _atom_site_fract_x
 _atom_site_fract_y
 _atom_site_fract_z
 _atom_site_occupancy
 _atom_site_hle17_bader_spin_density
 _atom_site_hle17_ddec_charge
 _atom_site_hle17_ddec_spin_density
 _atom_site_hle17_ddec_sum_bond_order
 _atom_site_hle17_magmom
 _atom_site_hse06_10hf_bader_spin_density
 _atom_site_hse06_10hf_ddec_charge
 _atom_site_hse06_10hf_ddec_spin_density
 _atom_site_hse06_10hf_ddec_sum_bond_order
 _atom_site_hse06_10hf_magmom
 _atom_site_hse06_bader_spin_density
 _atom_site_hse06_ddec_charge
 _atom_site_hse06_ddec_spin_density
 _atom_site_hse06_ddec_sum_bond_order
 _atom_site_hse06_magmom
 _atom_site_pbe_bader_spin_density
 _atom_site_pbe_cm5_charge
 _atom_site_pbe_ddec_charge
 _atom_site_pbe_ddec_spin_density
 _atom_site_pbe_ddec_sum_bond_order
 _atom_site_pbe_magmom
Sr  Sr0  1  0.49997919  0.16485464  0.25000375  1  0  1.528267  0  1.155875  0  0  1.353792  0  1.55181  0  0  1.389785  0  1.509177  0  0  0.932192  1.327726  0  1.581539  0
Sr  Sr1  1  0.50001555  0.33515392  0.75000874  1  0  1.528245  0  1.155898  0  0  1.35372  0  1.551926  0  0  1.389842  0  1.509072  0  0  0.932223  1.327652  0  1.581653  0
Sr  Sr2  1  0.50000673  0.83514686  0.75001072  1  0  1.528317  0  1.15572  0  0  1.35376  0  1.551748  0  0  1.389879  0  1.508914  0  0  0.932225  1.327701  0  1.581464  0
Sr  Sr3  1  0.49999438  0.66485328  0.25000005  1  0  1.528278  0  1.155853  0  0  1.353812  0  1.551793  0  0  1.389979  0  1.508851  0  0  0.932221  1.327754  0  1.58151  0
H  H4  1  0.12594582  0.04183746  0.15727861  1  0  0.384102  0  0.941465  0  0  0.334808  0  1.033836  0  0  0.347139  0  1.016215  0  0  0.291608  0.326176  0  1.046147  0
H  H5  1  0.87404462  0.04185091  0.34272272  1  0  0.384061  0  0.941586  0  0  0.334722  0  1.034029  0  0  0.347051  0  1.016411  0  0  0.291566  0.32609  0  1.046339  0
H  H6  1  0.87404714  0.45815857  0.65728445  1  0  0.384041  0  0.941563  0  0  0.334719  0  1.033989  0  0  0.347048  0  1.016371  0  0  0.291554  0.326089  0  1.046297  0
H  H7  1  0.12598147  0.45816021  0.84271407  1  0  0.384207  0  0.941345  0  0  0.334911  0  1.033736  0  0  0.347242  0  1.016115  0  0  0.291608  0.326278  0  1.046045  0
H  H8  1  0.87406781  0.95815122  0.84272259  1  0  0.384088  0  0.941547  0  0  0.334725  0  1.034012  0  0  0.347057  0  1.01639  0  0  0.291577  0.326092  0  1.046323  0
H  H9  1  0.12596347  0.95816057  0.65728370  1  0  0.384095  0  0.941468  0  0  0.334811  0  1.033842  0  0  0.347141  0  1.016224  0  0  0.291586  0.326179  0  1.046151  0
H  H10  1  0.12591476  0.54183297  0.34270538  1  0  0.384166  0  0.941358  0  0  0.33489  0  1.033703  0  0  0.347218  0  1.016086  0  0  0.29164  0.326259  0  1.046012  0
H  H11  1  0.87401923  0.54184842  0.15727387  1  0  0.384025  0  0.94161  0  0  0.334717  0  1.03401  0  0  0.347047  0  1.016391  0  0  0.29156  0.326085  0  1.046319  0
H  H12  1  0.86619407  0.27572544  0.15946162  1  0  0.389113  0  0.929297  0  0  0.345819  0  1.013715  0  0  0.357322  0  0.996861  0  0  0.286048  0.337683  0  1.025626  0
H  H13  1  0.13373454  0.27574260  0.34053802  1  0  0.388987  0  0.929439  0  0  0.345744  0  1.013781  0  0  0.357238  0  0.996935  0  0  0.286088  0.337609  0  1.025693  0
H  H14  1  0.13378604  0.22426571  0.65946795  1  0  0.388868  0  0.929616  0  0  0.345595  0  1.014014  0  0  0.357095  0  0.997163  0  0  0.285983  0.33746  0  1.025924  0
H  H15  1  0.86625452  0.22426627  0.84054838  1  0  0.38894  0  0.929502  0  0  0.345689  0  1.01385  0  0  0.357189  0  0.996996  0  0  0.286073  0.337555  0  1.025758  0
H  H16  1  0.13380109  0.72427820  0.84053485  1  0  0.389126  0  0.929253  0  0  0.345852  0  1.013644  0  0  0.357351  0  0.996793  0  0  0.286111  0.337717  0  1.025552  0
H  H17  1  0.86624030  0.72426318  0.65945892  1  0  0.388972  0  0.929498  0  0  0.345711  0  1.013867  0  0  0.357209  0  0.997019  0  0  0.286039  0.337576  0  1.025778  0
H  H18  1  0.86622574  0.77573152  0.34053562  1  0  0.388853  0  0.929654  0  0  0.345559  0  1.014065  0  0  0.35706  0  0.997211  0  0  0.285937  0.337423  0  1.025976  0
H  H19  1  0.13373879  0.77574093  0.15945851  1  0  0.388959  0  0.929497  0  0  0.345699  0  1.013868  0  0  0.357194  0  0.997021  0  0  0.286072  0.337564  0  1.025779  0
H  H20  1  0.31761382  0.10370775  0.11578829  1  0  0.432248  0  0.811631  0  0  0.419317  0  0.854749  0  0  0.426893  0  0.846802  0  0  0.339418  0.413821  0  0.860439  0
H  H21  1  0.68238552  0.10369723  0.38421685  1  0  0.432432  0  0.811539  0  0  0.419501  0  0.854649  0  0  0.427074  0  0.846593  0  0  0.339479  0.414009  0  0.860334  0
H  H22  1  0.68237381  0.39629258  0.61578421  1  0  0.432079  0  0.81148  0  0  0.419176  0  0.854574  0  0  0.426752  0  0.846891  0  0  0.339255  0.413677  0  0.860259  0
H  H23  1  0.31764774  0.39629178  0.88422284  1  0  0.432435  0  0.811364  0  0  0.419529  0  0.854446  0  0  0.4271  0  0.846507  0  0  0.339511  0.414035  0  0.860134  0
H  H24  1  0.68240535  0.89630515  0.88421008  1  0  0.432202  0  0.811874  0  0  0.41927  0  0.854965  0  0  0.426842  0  0.84691  0  0  0.339382  0.413776  0  0.860649  0
H  H25  1  0.31764289  0.89628362  0.61577915  1  0  0.432456  0  0.811228  0  0  0.419526  0  0.854348  0  0  0.427107  0  0.846461  0  0  0.339441  0.414028  0  0.860043  0
H  H26  1  0.31761765  0.60369895  0.38421558  1  0  0.432403  0  0.811551  0  0  0.419462  0  0.85469  0  0  0.427042  0  0.846628  0  0  0.339482  0.413967  0  0.860381  0
H  H27  1  0.68236220  0.60371329  0.11578263  1  0  0.432463  0  0.811326  0  0  0.419542  0  0.854431  0  0  0.427119  0  0.84649  0  0  0.339523  0.414046  0  0.860122  0
H  H28  1  0.93462151  0.17000533  0.15307323  1  0  0.415723  0  0.885895  0  0  0.387825  0  0.944466  0  0  0.398614  0  0.928291  0  0  0.292133  0.380136  0  0.955999  0
H  H29  1  0.06533670  0.17001035  0.34693628  1  0  0.415901  0  0.885615  0  0  0.388009  0  0.944212  0  0  0.398797  0  0.928039  0  0  0.292269  0.380309  0  0.955771  0
H  H30  1  0.06536944  0.32999547  0.65307996  1  0  0.41581  0  0.885765  0  0  0.38792  0  0.944335  0  0  0.39871  0  0.928159  0  0  0.292254  0.380226  0  0.955879  0
H  H31  1  0.93468032  0.32997962  0.84693550  1  0  0.415959  0  0.885504  0  0  0.388116  0  0.94404  0  0  0.398904  0  0.927867  0  0  0.292317  0.380413  0  0.955606  0
H  H32  1  0.06536811  0.83000116  0.84692750  1  0  0.415958  0  0.885565  0  0  0.388061  0  0.944174  0  0  0.398852  0  0.927994  0  0  0.292326  0.380361  0  0.955731  0
H  H33  1  0.93464922  0.82998617  0.65306493  1  0  0.41601  0  0.885474  0  0  0.388083  0  0.9441  0  0  0.398872  0  0.927926  0  0  0.292329  0.380387  0  0.95565  0
H  H34  1  0.93464234  0.67001315  0.34692267  1  0  0.415738  0  0.885835  0  0  0.387799  0  0.944477  0  0  0.398587  0  0.928306  0  0  0.292125  0.380109  0  0.956013  0
H  H35  1  0.06532592  0.67001049  0.15306760  1  0  0.415826  0  0.885708  0  0  0.387958  0  0.944278  0  0  0.398746  0  0.928105  0  0  0.292271  0.380256  0  0.955841  0
C  C36  1  0.39454604  0.41492350  0.22912254  1  0  0.220484  0  3.875333  0  0  0.20129  0  4.143949  0  0  0.209298  0  4.160548  0  0  0.22554  0.195929  0  4.132659  0
C  C37  1  0.60543493  0.41489054  0.27086657  1  0  0.220194  0  3.875095  0  0  0.201124  0  4.143907  0  0  0.209148  0  4.1605  0  0  0.225458  0.195764  0  4.132615  0
C  C38  1  0.60542202  0.08517730  0.72911630  1  0  0.220208  0  3.87518  0  0  0.201062  0  4.144085  0  0  0.209109  0  4.160701  0  0  0.225291  0.195698  0  4.132785  0
C  C39  1  0.39464378  0.08502008  0.77088686  1  0  0.22039  0  3.874945  0  0  0.201278  0  4.143463  0  0  0.209184  0  4.160212  0  0  0.225356  0.19594  0  4.132139  0
C  C40  1  0.60545466  0.58508014  0.77089525  1  0  0.221055  0  3.874566  0  0  0.201762  0  4.14341  0  0  0.209816  0  4.160013  0  0  0.225785  0.196375  0  4.132112  0
C  C41  1  0.39462859  0.58509316  0.72913795  1  0  0.220111  0  3.875307  0  0  0.200814  0  4.144165  0  0  0.208717  0  4.160919  0  0  0.225222  0.195532  0  4.132765  0
C  C42  1  0.39458422  0.91495383  0.27088822  1  0  0.219855  0  3.874823  0  0  0.201396  0  4.143124  0  0  0.209329  0  4.159859  0  0  0.225534  0.196036  0  4.131834  0
C  C43  1  0.60539203  0.91486747  0.22911529  1  0  0.220719  0  3.874152  0  0  0.200936  0  4.143351  0  0  0.208928  0  4.160039  0  0  0.225232  0.195578  0  4.132058  0
N  N44  1  0.28457740  0.33564782  0.20704592  1  0  -0.3398  0  3.004954  0  0  -0.301492  0  3.277243  0  0  -0.314304  0  3.292197  0  0  -0.243098  -0.29267  0  3.266977  0
N  N45  1  0.71541930  0.33561897  0.29295414  1  0  -0.339836  0  3.004201  0  0  -0.30168  0  3.276714  0  0  -0.314488  0  3.29164  0  0  -0.243341  -0.292859  0  3.266455  0
N  N46  1  0.71555607  0.16444403  0.70703845  1  0  -0.340053  0  3.003873  0  0  -0.301858  0  3.276344  0  0  -0.314686  0  3.291281  0  0  -0.243297  -0.293038  0  3.266086  0
N  N47  1  0.28470277  0.16430701  0.79293054  1  0  -0.339996  0  3.005481  0  0  -0.301728  0  3.277865  0  0  -0.314526  0  3.292855  0  0  -0.243229  -0.292912  0  3.267593  0
N  N48  1  0.71549535  0.66437006  0.79292212  1  0  -0.339958  0  3.004433  0  0  -0.301602  0  3.276814  0  0  -0.314431  0  3.291748  0  0  -0.243251  -0.292782  0  3.266559  0
N  N49  1  0.28456478  0.66434693  0.70706317  1  0  -0.339927  0  3.005314  0  0  -0.301578  0  3.27775  0  0  -0.314371  0  3.292733  0  0  -0.243227  -0.292781  0  3.267461  0
N  N50  1  0.28461645  0.83566716  0.29294143  1  0  -0.339734  0  3.004791  0  0  -0.301725  0  3.277208  0  0  -0.314528  0  3.292185  0  0  -0.243269  -0.292905  0  3.266943  0
N  N51  1  0.71547899  0.83559834  0.20703466  1  0  -0.340163  0  3.004024  0  0  -0.301715  0  3.276485  0  0  -0.314536  0  3.291449  0  0  -0.243167  -0.292896  0  3.266222  0
N  N52  1  0.09413672  0.36765060  0.17242723  1  0  -0.083797  0  3.053592  0  0  -0.063378  0  3.338456  0  0  -0.064657  0  3.350003  0  0  -0.080981  -0.062261  0  3.330578  0
N  N53  1  0.90583853  0.36766098  0.32757121  1  0  -0.083502  0  3.052963  0  0  -0.063023  0  3.337862  0  0  -0.064298  0  3.349401  0  0  -0.080812  -0.061907  0  3.329985  0
N  N54  1  0.90591780  0.13233337  0.67242040  1  0  -0.083295  0  3.053802  0  0  -0.062823  0  3.338667  0  0  -0.064094  0  3.350215  0  0  -0.080851  -0.061709  0  3.330787  0
N  N55  1  0.09425903  0.13235863  0.82755970  1  0  -0.083023  0  3.053297  0  0  -0.062687  0  3.338129  0  0  -0.06396  0  3.349666  0  0  -0.08063  -0.061572  0  3.330254  0
N  N56  1  0.90582149  0.63234734  0.82757587  1  0  -0.083566  0  3.053192  0  0  -0.063165  0  3.338019  0  0  -0.064439  0  3.349564  0  0  -0.080911  -0.062049  0  3.330142  0
N  N57  1  0.09420836  0.63233127  0.67242004  1  0  -0.083438  0  3.05297  0  0  -0.063052  0  3.337845  0  0  -0.064327  0  3.349378  0  0  -0.080816  -0.061936  0  3.329974  0
N  N58  1  0.09416234  0.86764819  0.32756233  1  0  -0.083278  0  3.053609  0  0  -0.062935  0  3.338553  0  0  -0.06421  0  3.350099  0  0  -0.080755  -0.061818  0  3.330672  0
N  N59  1  0.90587654  0.86766638  0.17241971  1  0  -0.083252  0  3.053522  0  0  -0.062798  0  3.338342  0  0  -0.06407  0  3.349887  0  0  -0.080804  -0.061682  0  3.330462  0
N  N60  1  0.09207137  0.46169586  0.17345550  1  0  -0.093834  0  3.104704  0  0  -0.064624  0  3.38876  0  0  -0.068026  0  3.401046  0  0  -0.085833  -0.062114  0  3.380391  0
N  N61  1  0.90783958  0.46170546  0.32653042  1  0  -0.093945  0  3.104569  0  0  -0.06484  0  3.388796  0  0  -0.068246  0  3.401078  0  0  -0.085875  -0.062328  0  3.380427  0
N  N62  1  0.90779105  0.03829031  0.67348109  1  0  -0.093899  0  3.105227  0  0  -0.064742  0  3.389404  0  0  -0.068148  0  3.401685  0  0  -0.085714  -0.062229  0  3.381034  0
N  N63  1  0.09208426  0.03831125  0.82654705  1  0  -0.094292  0  3.104721  0  0  -0.064989  0  3.38875  0  0  -0.068391  0  3.401017  0  0  -0.085982  -0.062479  0  3.380385  0
N  N64  1  0.90787206  0.53829995  0.82654712  1  0  -0.094114  0  3.104686  0  0  -0.064916  0  3.388758  0  0  -0.068321  0  3.401038  0  0  -0.085889  -0.062403  0  3.380387  0
N  N65  1  0.09217774  0.53828679  0.67345704  1  0  -0.093972  0  3.104451  0  0  -0.06478  0  3.388569  0  0  -0.068175  0  3.400832  0  0  -0.08592  -0.062273  0  3.380209  0
N  N66  1  0.09204522  0.96169339  0.32654570  1  0  -0.094153  0  3.104915  0  0  -0.064779  0  3.388964  0  0  -0.068181  0  3.401231  0  0  -0.085831  -0.062268  0  3.380595  0
N  N67  1  0.90782591  0.96171020  0.17347453  1  0  -0.094048  0  3.104853  0  0  -0.064934  0  3.388993  0  0  -0.06834  0  3.401266  0  0  -0.085849  -0.062421  0  3.380622  0
N  N68  1  0.28012575  0.49422647  0.20878563  1  0  -0.346442  0  3.016169  0  0  -0.312251  0  3.292474  0  0  -0.324412  0  3.307389  0  0  -0.25051  -0.303883  0  3.282249  0
N  N69  1  0.71978775  0.49420463  0.29119109  1  0  -0.34628  0  3.016577  0  0  -0.312158  0  3.293069  0  0  -0.324329  0  3.307999  0  0  -0.250438  -0.303789  0  3.282837  0
N  N70  1  0.71972512  0.00585194  0.70882710  1  0  -0.346267  0  3.01795  0  0  -0.312127  0  3.294441  0  0  -0.324281  0  3.309356  0  0  -0.250356  -0.30376  0  3.284205  0
N  N71  1  0.28008852  0.00573052  0.79120929  1  0  -0.346557  0  3.015593  0  0  -0.312369  0  3.291804  0  0  -0.324499  0  3.306749  0  0  -0.250524  -0.304009  0  3.281581  0
N  N72  1  0.71992299  0.50576008  0.79117956  1  0  -0.346579  0  3.016099  0  0  -0.312289  0  3.292409  0  0  -0.324447  0  3.307314  0  0  -0.250541  -0.303922  0  3.282194  0
N  N73  1  0.28016676  0.50578904  0.70881959  1  0  -0.346643  0  3.016626  0  0  -0.31238  0  3.293033  0  0  -0.324502  0  3.307974  0  0  -0.250521  -0.304035  0  3.282787  0
N  N74  1  0.28007050  0.99424857  0.29121343  1  0  -0.346234  0  3.015714  0  0  -0.312357  0  3.291959  0  0  -0.324467  0  3.306888  0  0  -0.250595  -0.303991  0  3.281742  0
N  N75  1  0.71975699  0.99418338  0.20881513  1  0  -0.346414  0  3.016813  0  0  -0.312037  0  3.293333  0  0  -0.324164  0  3.308264  0  0  -0.250354  -0.303669  0  3.283098  0
O  O76  1  0.78916735  0.21123074  0.15991089  1  0  -0.887155  0  1.815421  0  0  -0.832855  0  1.992111  0  0  -0.851013  0  1.958721  0  0  -0.649113  -0.819876  0  2.015474  0
O  O77  1  0.21076353  0.21124677  0.34009531  1  0  -0.887261  0  1.81548  0  0  -0.83303  0  1.992044  0  0  -0.851174  0  1.958674  0  0  -0.649311  -0.820048  0  2.015414  0
O  O78  1  0.21081462  0.28876115  0.65990704  1  0  -0.887051  0  1.815503  0  0  -0.832775  0  1.992121  0  0  -0.850955  0  1.958745  0  0  -0.649204  -0.819797  0  2.015489  0
O  O79  1  0.78921812  0.28875852  0.84009704  1  0  -0.887299  0  1.815348  0  0  -0.833084  0  1.991844  0  0  -0.851251  0  1.95846  0  0  -0.649358  -0.820102  0  2.015217  0
O  O80  1  0.21081487  0.78877290  0.84008795  1  0  -0.887396  0  1.815262  0  0  -0.833135  0  1.991874  0  0  -0.851309  0  1.958478  0  0  -0.649387  -0.820159  0  2.015247  0
O  O81  1  0.78920022  0.78875545  0.65989358  1  0  -0.887316  0  1.815193  0  0  -0.833026  0  1.991817  0  0  -0.851199  0  1.958437  0  0  -0.649278  -0.820048  0  2.015185  0
O  O82  1  0.78918608  0.71123680  0.34008184  1  0  -0.886985  0  1.815653  0  0  -0.832628  0  1.99238  0  0  -0.850807  0  1.958997  0  0  -0.649031  -0.819652  0  2.015745  0
O  O83  1  0.21076595  0.71124584  0.15990275  1  0  -0.887197  0  1.815458  0  0  -0.832983  0  1.991986  0  0  -0.851154  0  1.958611  0  0  -0.649311  -0.82  0  2.015349  0
O  O84  1  0.22577497  0.10341271  0.15536483  1  0  -0.854726  0  1.885813  0  0  -0.791245  0  2.076459  0  0  -0.811654  0  2.047164  0  0  -0.591224  -0.776696  0  2.09642  0
O  O85  1  0.77416527  0.10341823  0.34463461  1  0  -0.854901  0  1.885713  0  0  -0.791386  0  2.076411  0  0  -0.811799  0  2.047024  0  0  -0.591279  -0.776833  0  2.096379  0
O  O86  1  0.77426041  0.39658108  0.65537139  1  0  -0.85442  0  1.88582  0  0  -0.790945  0  2.076449  0  0  -0.81138  0  2.047431  0  0  -0.590908  -0.776388  0  2.096405  0
O  O87  1  0.22582211  0.39658302  0.84464988  1  0  -0.854943  0  1.885404  0  0  -0.7915  0  2.076017  0  0  -0.811931  0  2.04673  0  0  -0.591293  -0.776941  0  2.095994  0
O  O88  1  0.77419802  0.89658523  0.84462595  1  0  -0.854587  0  1.885975  0  0  -0.791046  0  2.076733  0  0  -0.811474  0  2.04732  0  0  -0.591171  -0.776488  0  2.096689  0
O  O89  1  0.22578740  0.89658470  0.65535427  1  0  -0.854982  0  1.88542  0  0  -0.79149  0  2.075965  0  0  -0.811922  0  2.046756  0  0  -0.59119  -0.776938  0  2.095936  0
O  O90  1  0.22579572  0.60340262  0.34464072  1  0  -0.855006  0  1.885452  0  0  -0.791492  0  2.076064  0  0  -0.811931  0  2.046675  0  0  -0.591332  -0.776944  0  2.096025  0
O  O91  1  0.77417859  0.60342276  0.15536128  1  0  -0.854854  0  1.885598  0  0  -0.791379  0  2.076246  0  0  -0.81182  0  2.046974  0  0  -0.59128  -0.776822  0  2.096212  0
