# generated using pymatgen
data_Ho2MnH28(C8O9)2
_symmetry_space_group_name_H-M   'P 1'
_cell_length_a   8.89212366
_cell_length_b   9.10442313
_cell_length_c   10.64587697
_cell_angle_alpha   81.56960829
_cell_angle_beta   72.51372148
_cell_angle_gamma   77.76131580
_symmetry_Int_Tables_number   1
_chemical_formula_structural   Ho2MnH28(C8O9)2
_chemical_formula_sum   'Ho2 Mn1 H28 C16 O18'
_cell_volume   800.17067902
_cell_formula_units_Z   1
loop_
 _symmetry_equiv_pos_site_id
 _symmetry_equiv_pos_as_xyz
  1  'x, y, z'
loop_
 _atom_site_type_symbol
 _atom_site_label
 _atom_site_symmetry_multiplicity
 _atom_site_fract_x
 _atom_site_fract_y
 _atom_site_fract_z
 _atom_site_occupancy
 _atom_site_hle17_ddec_charge
 _atom_site_hle17_ddec_spin_density
 _atom_site_hle17_ddec_sum_bond_order
 _atom_site_hle17_magmom
 _atom_site_hse06_10hf_ddec_charge
 _atom_site_hse06_10hf_ddec_spin_density
 _atom_site_hse06_10hf_ddec_sum_bond_order
 _atom_site_hse06_10hf_magmom
 _atom_site_hse06_ddec_charge
 _atom_site_hse06_ddec_spin_density
 _atom_site_hse06_ddec_sum_bond_order
 _atom_site_hse06_magmom
 _atom_site_pbe_cm5_charge
 _atom_site_pbe_ddec_charge
 _atom_site_pbe_ddec_spin_density
 _atom_site_pbe_ddec_sum_bond_order
 _atom_site_pbe_magmom
Ho  Ho0  1  0.90838723  0.07093232  0.68604878  1  2.215903  -0.001448  1.630127  0.0  2.06354  -0.001149  2.105879  0.001  2.11511  -0.001666  2.064401  0.0  1.515953  2.023317  -0.000644  2.140127  0.002
Ho  Ho1  1  0.09161674  0.92907478  0.31394949  1  2.21594  -0.00145  1.630083  0.0  2.063595  -0.001151  2.105841  0.001  2.1152  -0.001661  2.064299  0.0  1.515936  2.023369  -0.000645  2.140085  0.002
Mn  Mn2  1  0.00000113  0.99999824  0.00000336  1  1.275011  4.77135  1.810544  4.675  1.129953  4.687942  2.315105  4.531  1.184194  4.736035  2.240602  4.597  0.62612  1.088287  4.637382  2.369382  4.464
H  H3  1  0.82800113  0.36695287  0.04375180  1  0.147984  -0.000196  0.925065  0.0  0.167459  -0.00021  0.978851  0.0  0.170497  -0.000224  0.977228  0.0  0.105925  0.165138  -0.00019  0.980258  0.0
H  H4  1  0.17199642  0.63304985  0.95625703  1  0.147977  -0.0002  0.925062  0.0  0.167461  -0.00021  0.978831  0.0  0.170498  -0.000224  0.97721  0.0  0.105949  0.165141  -0.00019  0.980238  0.0
H  H5  1  0.62751470  0.40046926  0.02798618  1  0.1355  0.000182  0.939896  0.0  0.154906  0.000321  0.998931  0.0  0.157319  0.000215  0.997861  0.0  0.102622  0.153082  0.000456  0.999826  0.0
H  H6  1  0.37248436  0.59952556  0.97202336  1  0.135489  0.000181  0.939828  0.0  0.154889  0.000321  0.998885  0.0  0.157302  0.000216  0.997815  0.0  0.102611  0.153065  0.000456  0.999779  0.0
H  H7  1  0.76764114  0.50968986  0.92526949  1  0.135385  0.00014  0.953286  0.0  0.15525  0.000285  1.014438  0.0  0.156682  0.000181  1.015042  0.0  0.103319  0.154134  0.00042  1.014153  0.0
H  H8  1  0.23235219  0.49030484  0.07473485  1  0.135335  0.000141  0.953321  0.0  0.155215  0.000285  1.014454  0.0  0.15665  0.000181  1.015054  0.0  0.103311  0.154099  0.00042  1.014171  0.0
H  H9  1  0.73444934  0.73400358  0.08019584  1  0.143956  -0.000164  0.923094  0.0  0.164208  -0.000186  0.9755  0.0  0.166969  -0.000184  0.974089  0.0  0.103481  0.162083  -0.00018  0.976781  0.0
H  H10  1  0.26554908  0.26599088  0.91979229  1  0.143982  -0.000168  0.923042  0.0  0.164257  -0.000186  0.975427  0.0  0.16702  -0.000184  0.974016  0.0  0.103509  0.162131  -0.00018  0.97671  0.0
H  H11  1  0.58916018  0.73532492  0.99277089  1  0.135046  0.000122  0.941356  0.0  0.153561  0.000251  1.002979  0.0  0.155433  0.00015  1.002766  0.0  0.100845  0.152122  0.000382  1.003275  0.0
H  H12  1  0.41084108  0.26467965  0.00721239  1  0.134996  0.00012  0.941356  0.0  0.153492  0.000251  1.003028  0.0  0.155357  0.00015  1.002825  0.0  0.10085  0.152054  0.000382  1.003325  0.0
H  H13  1  0.56585376  0.88483334  0.08763387  1  0.174922  0.000233  0.936315  0.0  0.191107  0.00047  0.995099  0.001  0.195052  0.000292  0.992984  0.0  0.112669  0.188121  0.000692  0.996824  0.001
H  H14  1  0.43415286  0.11516687  0.91235718  1  0.174979  0.000231  0.936471  0.0  0.191151  0.00047  0.995262  0.001  0.19512  0.000292  0.993121  0.0  0.112714  0.188167  0.000692  0.996986  0.001
H  H15  1  0.48046485  0.87126925  0.57488399  1  0.133674  0.000287  0.948133  0.0  0.152228  0.000435  1.006633  0.0  0.154757  0.000349  1.005553  0.0  0.095504  0.150407  0.000528  1.007486  0.0
H  H16  1  0.51953317  0.12872547  0.42512018  1  0.133639  0.000282  0.948157  0.0  0.152197  0.000436  1.006653  0.0  0.154725  0.000349  1.005573  0.0  0.095494  0.150375  0.000528  1.007506  0.0
H  H17  1  0.46818370  0.74550379  0.72220117  1  0.129775  3e-05  0.942453  0.0  0.149383  0.000195  1.002598  0.0  0.151055  0.000132  1.00264  0.0  0.099598  0.148264  0.000264  1.002561  0.0
H  H18  1  0.53181774  0.25449102  0.27780687  1  0.129774  2.4e-05  0.942461  0.0  0.149394  0.000195  1.002586  0.0  0.151067  0.000132  1.002626  0.0  0.099602  0.148274  0.000265  1.002552  0.0
H  H19  1  0.52138585  0.92240119  0.71673180  1  0.172163  -2.3e-05  0.95257  0.0  0.188881  0.000124  1.011622  0.0  0.192514  7.2e-05  1.009762  0.0  0.109491  0.18634  0.000183  1.012919  0.0
H  H20  1  0.47861018  0.07759801  0.28327036  1  0.172191  -2.6e-05  0.95252  0.0  0.188869  0.000124  1.011637  0.0  0.1925  7.2e-05  1.009782  0.0  0.109514  0.186335  0.000182  1.012925  0.0
H  H21  1  0.20232564  0.31812826  0.26307511  1  0.131149  7e-06  0.963437  0.0  0.14896  9.5e-05  1.024672  0.0  0.150781  4.1e-05  1.024686  0.0  0.098352  0.147623  0.000156  1.024748  0.0
H  H22  1  0.79768081  0.68185966  0.73692515  1  0.131168  6e-06  0.963361  0.0  0.148967  9.5e-05  1.024615  0.0  0.150787  4.1e-05  1.024628  0.0  0.098354  0.147628  0.000156  1.024694  0.0
H  H23  1  0.26950110  0.38020319  0.38538746  1  0.138962  2.1e-05  0.929086  0.0  0.159013  5.2e-05  0.985825  0.0  0.161569  3.8e-05  0.984573  0.0  0.103931  0.15717  6.8e-05  0.986806  0.0
H  H24  1  0.73049764  0.61979480  0.61460858  1  0.138983  2.1e-05  0.929064  0.0  0.159033  5.2e-05  0.985799  0.0  0.161587  3.8e-05  0.984546  0.0  0.10391  0.157188  6.8e-05  0.986782  0.0
H  H25  1  0.08451162  0.47116132  0.36044596  1  0.166096  3e-06  0.942626  0.0  0.182949  8e-06  1.001396  0.0  0.186538  1e-06  0.999526  0.0  0.107503  0.180349  1.7e-05  1.002833  0.0
H  H26  1  0.91549297  0.52884439  0.63953638  1  0.166058  1e-06  0.942672  0.0  0.182928  8e-06  1.001416  0.0  0.186515  1e-06  0.999542  0.0  0.107512  0.180327  1.7e-05  1.002852  0.0
H  H27  1  0.75146414  0.11955021  0.47329507  1  0.438128  6e-06  0.867575  0.0  0.404153  2.1e-05  0.935758  0.0  0.416021  1.9e-05  0.918704  0.0  0.298882  0.395774  2.7e-05  0.947764  0.0
H  H28  1  0.24852812  0.88045013  0.52670877  1  0.438071  6e-06  0.867646  0.0  0.404105  2.1e-05  0.935811  0.0  0.415972  1.8e-05  0.91876  0.0  0.298847  0.395728  2.7e-05  0.947814  0.0
H  H29  1  0.67416630  0.26250285  0.56173603  1  0.443228  -3e-06  0.803757  0.0  0.431808  4e-06  0.84318  0.0  0.439431  -0.0  0.832455  0.0  0.341116  0.426305  2e-05  0.851009  0.0
H  H30  1  0.32582838  0.73749745  0.43826442  1  0.443311  -3e-06  0.80366  0.0  0.431892  4e-06  0.843067  0.0  0.439516  -0.0  0.832339  0.0  0.341164  0.426387  2e-05  0.850899  0.0
C  C31  1  0.27191768  0.92880932  0.74117520  1  0.800732  0.004119  3.766778  0.005  0.761427  0.007483  4.054243  0.008  0.796639  0.005817  4.045007  0.006  0.241235  0.737148  0.009139  4.059314  0.009
C  C32  1  0.72807982  0.07119441  0.25882693  1  0.800874  0.004119  3.766846  0.005  0.761519  0.007483  4.05438  0.008  0.796738  0.005817  4.045133  0.006  0.241216  0.737238  0.009138  4.059452  0.009
C  C33  1  0.75456329  0.39658321  0.97456466  1  -0.445272  -0.000571  3.650163  0.0  -0.521451  -0.000103  3.879304  0.0  -0.528181  -0.000301  3.881473  0.0  -0.234888  -0.51669  6.8e-05  3.878148  0.0
C  C34  1  0.24543461  0.60341160  0.02544422  1  -0.445172  -0.000555  3.650063  0.0  -0.521362  -0.000106  3.87925  0.0  -0.528095  -0.000302  3.881417  0.0  -0.234847  -0.516599  6.8e-05  3.878096  0.0
C  C35  1  0.65632428  0.80443746  0.02419299  1  -0.459369  -0.000697  3.639727  0.0  -0.533777  -8e-05  3.874066  0.0  -0.541189  -0.000351  3.874788  0.0  -0.24178  -0.528557  0.000168  3.87412  0.0
C  C36  1  0.34368206  0.19556491  0.97579220  1  -0.459316  -0.000675  3.639732  0.0  -0.533786  -8e-05  3.874084  0.0  -0.541216  -0.000351  3.874794  0.0  -0.241834  -0.528561  0.000168  3.874122  0.0
C  C37  1  0.80473424  0.28641727  0.87113504  1  0.775632  0.005805  3.799611  0.006  0.738576  0.009526  4.089385  0.009  0.773664  0.006675  4.079851  0.007  0.211925  0.714065  0.012778  4.095323  0.012
C  C38  1  0.19526266  0.71357643  0.12887610  1  0.77593  0.005806  3.799348  0.006  0.738825  0.009527  4.08918  0.009  0.773915  0.006677  4.079645  0.007  0.212066  0.714311  0.012778  4.095121  0.012
C  C39  1  0.74971443  0.89037414  0.90624268  1  0.756668  0.007509  3.830321  0.007  0.714841  0.012127  4.130302  0.011  0.750112  0.008732  4.120357  0.008  0.206639  0.69008  0.015999  4.136724  0.014
C  C40  1  0.25029511  0.10962275  0.09375188  1  0.756704  0.007502  3.830593  0.007  0.715001  0.012124  4.130401  0.011  0.750274  0.00873  4.120463  0.008  0.206678  0.690239  0.015997  4.136823  0.014
C  C41  1  0.44622210  0.86434224  0.68304489  1  -0.476561  0.001011  3.647359  0.001  -0.552538  0.00126  3.876663  0.001  -0.560493  0.000886  3.878996  0.001  -0.24654  -0.546946  0.00159  3.874913  0.001
C  C42  1  0.55377573  0.13565360  0.31695822  1  -0.476613  0.001032  3.647355  0.001  -0.552546  0.001259  3.87671  0.001  -0.560503  0.000886  3.879042  0.001  -0.246559  -0.546959  0.00159  3.874952  0.001
C  C43  1  0.16451009  0.36113129  0.36039529  1  -0.453411  2.2e-05  3.630233  0.0  -0.52647  0.000111  3.856743  0.0  -0.533951  6.8e-05  3.858631  0.0  -0.238216  -0.521203  0.000145  3.855383  0.0
C  C44  1  0.83549036  0.63887008  0.63959988  1  -0.453506  2.4e-05  3.63021  0.0  -0.526544  0.00011  3.856715  0.0  -0.534017  6.8e-05  3.858594  0.0  -0.238226  -0.521275  0.000145  3.855357  0.0
C  C45  1  0.08228651  0.25264648  0.46497584  1  0.800916  8.9e-05  3.799989  0.0  0.766394  0.000162  4.085132  0.0  0.801291  0.000107  4.073807  0.0  0.222658  0.742687  0.000201  4.091716  0.0
C  C46  1  0.91770642  0.74736286  0.53502474  1  0.801108  9.7e-05  3.799873  0.0  0.766523  0.000161  4.085105  0.0  0.801421  0.000108  4.073778  0.0  0.222739  0.742815  0.000201  4.091693  0.0
O  O47  1  0.17884474  0.95936339  0.66459847  1  -0.76046  0.001308  2.044372  0.002  -0.698663  0.002918  2.282467  0.004  -0.726205  0.002085  2.270948  0.003  -0.382417  -0.678718  0.003718  2.289578  0.005
O  O48  1  0.82115811  0.04064939  0.33540118  1  -0.760516  0.001306  2.044438  0.002  -0.698695  0.002919  2.282541  0.004  -0.726247  0.002083  2.271022  0.003  -0.382401  -0.678746  0.003718  2.289649  0.005
O  O49  1  0.02690607  0.28583811  0.58366775  1  -0.703102  -0.000152  1.951225  0.0  -0.657961  -5e-05  2.17981  0.0  -0.682979  -0.000104  2.170582  0.0  -0.378223  -0.640308  2e-06  2.18564  0.0
O  O50  1  0.97308296  0.71417343  0.41633065  1  -0.703259  -0.00016  1.95111  0.0  -0.658098  -4.8e-05  2.179734  0.0  -0.683123  -0.000107  2.170505  0.0  -0.378311  -0.640442  2e-06  2.185568  0.0
O  O51  1  0.90262963  0.88294323  0.88475867  1  -0.7711  0.026213  2.036088  0.011  -0.712611  0.033367  2.305204  0.015  -0.741594  0.030361  2.289898  0.013  -0.368974  -0.691211  0.036437  2.315393  0.017
O  O52  1  0.09738040  0.11705610  0.11524579  1  -0.77125  0.026213  2.036336  0.011  -0.712773  0.033369  2.305374  0.015  -0.74176  0.030362  2.290066  0.013  -0.369083  -0.691374  0.036438  2.315564  0.017
O  O53  1  0.93344804  0.18497983  0.86515214  1  -0.77901  0.029053  2.08292  0.013  -0.715964  0.036266  2.35524  0.017  -0.746066  0.033214  2.339196  0.015  -0.389248  -0.693665  0.039287  2.365606  0.02
O  O54  1  0.06655200  0.81501611  0.13485607  1  -0.779092  0.029053  2.082744  0.013  -0.716026  0.036267  2.355105  0.017  -0.746128  0.033216  2.339054  0.015  -0.389317  -0.693729  0.039288  2.365479  0.02
O  O55  1  0.68089237  0.97277969  0.82509018  1  -0.695732  0.004758  1.983705  0.006  -0.64524  0.007846  2.220287  0.009  -0.671186  0.006007  2.212481  0.007  -0.37178  -0.62699  0.009803  2.225422  0.011
O  O56  1  0.31913240  0.02721256  0.17489199  1  -0.69569  0.004758  1.983623  0.006  -0.64532  0.007845  2.220283  0.009  -0.67126  0.006007  2.21245  0.007  -0.371755  -0.62707  0.009802  2.225417  0.011
O  O57  1  0.72659633  0.29135959  0.78872926  1  -0.681383  0.004769  1.892757  0.006  -0.63936  0.007665  2.11551  0.009  -0.66408  0.005944  2.106897  0.007  -0.367905  -0.621984  0.009567  2.121226  0.01
O  O58  1  0.27340129  0.70863639  0.21128234  1  -0.681652  0.004766  1.892788  0.006  -0.639608  0.007666  2.115565  0.009  -0.664334  0.005942  2.106945  0.007  -0.368022  -0.62223  0.009567  2.121284  0.01
O  O59  1  0.06510808  0.12568611  0.43577337  1  -0.842227  2.4e-05  2.096  0.0  -0.78116  0.000153  2.353439  0.0  -0.808694  0.000109  2.342769  0.0  -0.444383  -0.761093  0.000256  2.359915  0.0
O  O60  1  0.93489036  0.87431878  0.56422932  1  -0.842173  2.4e-05  2.096037  0.0  -0.781084  0.000153  2.353486  0.0  -0.808621  0.00011  2.342836  0.0  -0.444354  -0.761017  0.000256  2.359962  0.0
O  O61  1  0.71980887  0.15580537  0.56478417  1  -0.898853  5.8e-05  1.871631  0.0  -0.852067  0.000121  2.056815  0.0  -0.870666  9e-05  2.026682  0.0  -0.633927  -0.838399  0.000181  2.077806  0.0
O  O62  1  0.28018033  0.84419838  0.43522181  1  -0.898878  5.8e-05  1.871664  0.0  -0.852095  0.000121  2.056836  0.0  -0.870702  9e-05  2.026701  0.0  -0.633925  -0.838427  0.000181  2.077826  0.0
O  O63  1  0.22606264  0.94760084  0.86296969  1  -0.646856  0.0318  2.008388  0.019  -0.576343  0.036544  2.257184  0.02  -0.60824  0.033225  2.24524  0.017  -0.296425  -0.552577  0.039771  2.264292  0.023
O  O64  1  0.77393664  0.05239955  0.13703435  1  -0.646884  0.0318  2.008419  0.019  -0.576362  0.036542  2.257263  0.02  -0.60826  0.033225  2.245311  0.017  -0.296404  -0.552597  0.03977  2.264372  0.023
