# generated using pymatgen
data_CoH14C20(NO)4
_symmetry_space_group_name_H-M   'P 1'
_cell_length_a   10.07071322
_cell_length_b   15.21611546
_cell_length_c   16.27676544
_cell_angle_alpha   89.99910451
_cell_angle_beta   90.00006626
_cell_angle_gamma   89.17022269
_symmetry_Int_Tables_number   1
_chemical_formula_structural   CoH14C20(NO)4
_chemical_formula_sum   'Co4 H56 C80 N16 O16'
_cell_volume   2493.94334460
_cell_formula_units_Z   4
loop_
 _symmetry_equiv_pos_site_id
 _symmetry_equiv_pos_as_xyz
  1  'x, y, z'
loop_
 _atom_site_type_symbol
 _atom_site_label
 _atom_site_symmetry_multiplicity
 _atom_site_fract_x
 _atom_site_fract_y
 _atom_site_fract_z
 _atom_site_occupancy
 _atom_site_pbe_bader_charge
 _atom_site_pbe_bader_spin_density
 _atom_site_pbe_cm5_charge
 _atom_site_pbe_ddec_charge
 _atom_site_pbe_ddec_spin_density
 _atom_site_pbe_ddec_sum_bond_order
 _atom_site_pbe_magmom
Co  Co0  1  0.16240614  0.99513518  0.76224251  1  1.105968  0.948598  0.624673  0.655203  1.016385  2.872592  0.919
Co  Co1  1  0.31758253  0.49957839  0.75221531  1  1.214018  2.555338  0.683127  0.821457  2.777417  2.591529  2.502
Co  Co2  1  0.81756891  0.99957965  0.24778420  1  1.213969  2.555343  0.683132  0.821495  2.777419  2.591365  2.502
Co  Co3  1  0.66238377  0.49514096  0.23775329  1  1.105829  0.948592  0.624698  0.655296  1.01638  2.872733  0.919
H  H4  1  0.34102521  0.84694086  0.46898207  1  0.079013  -2.6e-05  0.103574  0.106541  -9e-06  0.99764  0.0
H  H5  1  0.33718522  0.15821908  0.03281628  1  0.072964  -4e-06  0.10545  0.109494  0.0  0.998103  0.0
H  H6  1  0.14571684  0.34897423  0.03045072  1  0.068705  8.5e-05  0.105113  0.107298  2.2e-05  0.99524  0.0
H  H7  1  0.14674870  0.65069702  0.47584107  1  0.067324  7.3e-05  0.106504  0.108993  1.4e-05  0.993662  0.0
H  H8  1  0.64674983  0.15070249  0.52415975  1  0.06745  7.3e-05  0.106487  0.108984  1.3e-05  0.993656  0.0
H  H9  1  0.64574272  0.84896585  0.96956440  1  0.06825  8.5e-05  0.10519  0.107349  2.2e-05  0.995106  0.0
H  H10  1  0.83718423  0.65821546  0.96717963  1  0.072827  -4e-06  0.10546  0.109547  0.0  0.998035  0.0
H  H11  1  0.84100842  0.34695091  0.53101601  1  0.078544  -2.6e-05  0.103541  0.106475  -9e-06  0.997597  0.0
H  H12  1  0.39563647  0.75817986  0.34673055  1  0.088919  0.000137  0.102226  0.103437  1.1e-05  1.01055  0.0
H  H13  1  0.40933770  0.24862954  0.14924725  1  0.048672  -2.4e-05  0.103759  0.105008  -8.3e-05  1.002865  0.0
H  H14  1  0.09697408  0.25807707  0.15232755  1  0.054389  0.000104  0.103902  0.10428  2.6e-05  1.008065  0.0
H  H15  1  0.08662824  0.73535388  0.35134579  1  0.093332  0.000126  0.104997  0.107131  3.9e-05  1.003228  0.0
H  H16  1  0.58661382  0.23535407  0.64865130  1  0.093744  0.000126  0.104994  0.107133  3.9e-05  1.003337  0.0
H  H17  1  0.59698357  0.75808856  0.84767904  1  0.054392  0.000104  0.103896  0.104225  2.6e-05  1.007962  0.0
H  H18  1  0.90933841  0.74862787  0.85074800  1  0.04904  -2.4e-05  0.103819  0.105209  -8.3e-05  1.002821  0.0
H  H19  1  0.89565061  0.25820349  0.65327438  1  0.088861  0.000137  0.102243  0.103568  1.1e-05  1.0105  0.0
H  H20  1  0.59639461  0.56715027  0.49874501  1  0.093912  -2e-05  0.104522  0.108168  -9.2e-05  1.001766  0.0
H  H21  1  0.61065260  0.42139373  0.98191395  1  0.092218  2.6e-05  0.108621  0.113965  -0.000107  0.992634  0.0
H  H22  1  0.91936518  0.06318991  0.99789526  1  0.092316  0.000491  0.10493  0.109651  0.000158  1.000807  0.0
H  H23  1  0.91861313  0.94103873  0.50152734  1  0.102395  0.000469  0.105904  0.110504  0.000163  1.004696  0.0
H  H24  1  0.41862208  0.44104765  0.49846695  1  0.102327  0.000469  0.105958  0.110582  0.000163  1.004721  0.0
H  H25  1  0.41936192  0.56318908  0.00210270  1  0.092265  0.000491  0.104915  0.109612  0.000157  1.000876  0.0
H  H26  1  0.11064640  0.92139266  0.01807552  1  0.092474  2.6e-05  0.108616  0.113976  -0.000107  0.992619  0.0
H  H27  1  0.09639057  0.06716775  0.50126928  1  0.094165  -2e-05  0.104551  0.108198  -9.2e-05  1.001779  0.0
H  H28  1  0.53382272  0.65098936  0.62239241  1  0.095782  1.3e-05  0.107423  0.122669  -6.7e-05  1.008222  0.0
H  H29  1  0.53077475  0.33567860  0.86460623  1  0.102204  -1.5e-05  0.109374  0.126164  -7.4e-05  1.016101  0.0
H  H30  1  0.97321647  0.15059450  0.87444567  1  0.079623  0.000523  0.108069  0.122088  0.000311  1.018772  0.0
H  H31  1  0.98179212  0.85927670  0.62711310  1  0.072491  -2e-06  0.109094  0.11861  -8.5e-05  1.000961  0.0
H  H32  1  0.48180570  0.35929033  0.37288427  1  0.072278  -2e-06  0.109141  0.118741  -8.5e-05  1.000886  0.0
H  H33  1  0.47322857  0.65057773  0.12555658  1  0.079749  0.000523  0.108055  0.122044  0.000311  1.018801  0.0
H  H34  1  0.03077378  0.83567817  0.13538506  1  0.102644  -1.5e-05  0.109317  0.126161  -7.4e-05  1.016249  0.0
H  H35  1  0.03378291  0.15098280  0.37761509  1  0.095138  1.3e-05  0.107366  0.122525  -6.7e-05  1.008187  0.0
H  H36  1  0.36450461  0.83928920  0.82430825  1  0.154926  0.000714  0.132705  0.094786  3.5e-05  1.005668  0.0
H  H37  1  0.32797535  0.15064985  0.67629676  1  0.104704  1.6e-05  0.140545  0.103941  -0.000219  0.98865  0.0
H  H38  1  0.13212580  0.34149891  0.67604034  1  0.094756  0.000553  0.13799  0.09829  3.5e-05  0.992722  0.0
H  H39  1  0.15308219  0.67238996  0.82931347  1  0.137658  0.000502  0.138781  0.098754  -2e-05  0.993956  0.0
H  H40  1  0.65309919  0.17241377  0.17068335  1  0.137803  0.000502  0.138789  0.098777  -2e-05  0.993907  0.0
H  H41  1  0.63212133  0.84149623  0.32396751  1  0.094655  0.000553  0.138002  0.098322  3.5e-05  0.992561  0.0
H  H42  1  0.82796982  0.65065309  0.32369926  1  0.104747  1.6e-05  0.140536  0.103943  -0.000219  0.98864  0.0
H  H43  1  0.86450378  0.33930907  0.17568810  1  0.154814  0.000714  0.132686  0.0948  3.5e-05  1.005573  0.0
H  H44  1  0.27317254  0.92506649  0.58522324  1  0.105396  0.000987  0.118977  0.118534  0.000278  1.010997  0.001
H  H45  1  0.26698937  0.07313400  0.92165195  1  0.144459  0.000186  0.123597  0.127579  -7.4e-05  1.015016  0.0
H  H46  1  0.22011641  0.42252109  0.91703176  1  0.098676  0.000981  0.124194  0.123543  0.00021  1.001765  0.001
H  H47  1  0.21637649  0.57707144  0.58949320  1  0.131452  0.001006  0.125065  0.125092  0.000227  1.001803  0.001
H  H48  1  0.71636347  0.07707560  0.41050075  1  0.131162  0.001006  0.125074  0.125056  0.000227  1.001822  0.001
H  H49  1  0.72012943  0.92250264  0.08296943  1  0.098936  0.000981  0.124229  0.12344  0.00021  1.001796  0.001
H  H50  1  0.76697632  0.57313809  0.07834762  1  0.144407  0.000187  0.123576  0.127558  -7.3e-05  1.015041  0.0
H  H51  1  0.77311897  0.42505565  0.41477058  1  0.106068  0.000986  0.118972  0.118484  0.000278  1.010934  0.001
H  H52  1  0.46559055  0.72595700  0.72836622  1  0.549795  0.000646  0.307027  0.28701  0.000286  1.009808  0.001
H  H53  1  0.44136730  0.26480811  0.76556063  1  0.557156  7.5e-05  0.307863  0.288152  -2.5e-05  1.012035  0.0
H  H54  1  0.03113970  0.22797178  0.77082901  1  0.56126  0.000473  0.307805  0.287289  0.000109  1.009291  0.001
H  H55  1  0.05468428  0.78652125  0.73246167  1  0.543917  0.000533  0.313894  0.283495  0.000191  0.990986  0.001
H  H56  1  0.55469956  0.28654016  0.26753465  1  0.543878  0.000533  0.313804  0.283392  0.000191  0.990946  0.001
H  H57  1  0.53114702  0.72796076  0.22918289  1  0.561035  0.000473  0.307852  0.28729  0.000109  1.009432  0.001
H  H58  1  0.94136958  0.76480492  0.23443502  1  0.557486  7.5e-05  0.307886  0.288253  -2.5e-05  1.011972  0.0
H  H59  1  0.96557219  0.22596549  0.27163370  1  0.549937  0.000647  0.306928  0.286811  0.000286  1.009856  0.001
C  C60  1  0.43513902  0.75721876  0.55541761  1  -0.022598  -0.001025  -0.004424  0.055179  -0.001292  4.042401  -0.001
C  C61  1  0.43033944  0.23840587  0.93952351  1  0.038652  -0.003065  -0.000879  0.059293  -0.003368  4.033172  -0.002
C  C62  1  0.06179753  0.25710580  0.94356461  1  -0.032433  0.000967  -0.003374  0.055603  0.000456  4.05191  0.001
C  C63  1  0.06682325  0.74793206  0.56056417  1  -0.003294  0.001028  -0.00326  0.053735  0.000537  4.059512  0.001
C  C64  1  0.56683704  0.24794218  0.43943518  1  -0.003448  0.001028  -0.003277  0.053818  0.000537  4.059177  0.001
C  C65  1  0.56181043  0.75709305  0.05644259  1  -0.033032  0.000967  -0.003192  0.05592  0.000456  4.051573  0.001
C  C66  1  0.93034133  0.73840165  0.06047374  1  0.038547  -0.003066  -0.000872  0.059232  -0.003368  4.033152  -0.002
C  C67  1  0.93511515  0.25722306  0.44458367  1  -0.022967  -0.001025  -0.00439  0.055274  -0.001292  4.042402  -0.001
C  C68  1  0.39824452  0.78607559  0.47618728  1  -0.04109  0.000494  -0.0921  -0.130133  0.000193  3.992642  0.0
C  C69  1  0.39820039  0.21541700  0.02112437  1  -0.047739  0.000545  -0.089052  -0.127328  0.000176  3.981944  0.0
C  C70  1  0.09498173  0.28674491  0.02284891  1  -0.007506  0.000327  -0.088907  -0.126284  0.000103  3.990519  0.0
C  C71  1  0.09501000  0.71371921  0.48193517  1  -0.056944  0.000293  -0.087672  -0.123691  6.9e-05  3.985565  0.0
C  C72  1  0.59500813  0.21372480  0.51806470  1  -0.057641  0.000294  -0.087654  -0.12366  6.9e-05  3.985444  0.0
C  C73  1  0.59499867  0.78673776  0.97716033  1  -0.007125  0.000328  -0.08918  -0.126647  0.000103  3.990297  0.0
C  C74  1  0.89820239  0.71541515  0.97887013  1  -0.047772  0.000545  -0.089095  -0.127446  0.000176  3.981917  0.0
C  C75  1  0.89823069  0.28608706  0.52381541  1  -0.040991  0.000494  -0.092077  -0.130047  0.000193  3.9927  0.0
C  C76  1  0.42968893  0.73657930  0.40709960  1  -0.063667  -0.001248  -0.092503  -0.105379  -0.001406  4.018505  -0.001
C  C77  1  0.43949615  0.26612666  0.08705664  1  -0.034559  -0.002432  -0.089942  -0.105304  -0.00265  4.008012  -0.001
C  C78  1  0.06739107  0.23617160  0.09136842  1  -0.049201  0.001418  -0.089424  -0.101037  0.000691  4.018542  0.001
C  C79  1  0.06121150  0.76081529  0.41200630  1  -0.04758  0.001433  -0.087354  -0.097363  0.000699  4.009036  0.001
C  C80  1  0.56120878  0.26082169  0.58799470  1  -0.047941  0.001433  -0.087311  -0.097322  0.000699  4.00914  0.001
C  C81  1  0.56739685  0.73617222  0.90863725  1  -0.048629  0.001418  -0.089295  -0.100716  0.000691  4.01804  0.001
C  C82  1  0.93949799  0.76612460  0.91293407  1  -0.034921  -0.002431  -0.089983  -0.105534  -0.002649  4.007949  -0.001
C  C83  1  0.92969801  0.23659739  0.59290629  1  -0.063126  -0.001248  -0.092495  -0.105509  -0.001406  4.0188  -0.001
C  C84  1  0.50284701  0.65748809  0.41378211  1  -0.004202  -0.000702  -0.029979  -0.057994  -0.00125  4.01138  -0.001
C  C85  1  0.51847688  0.34035511  0.07383114  1  -0.01943  -8.3e-05  -0.029836  -0.06151  -0.000864  4.041974  0.0
C  C86  1  0.00342767  0.15540181  0.08290539  1  -0.018261  0.002514  -0.029511  -0.0598  0.001233  4.020948  0.002
C  C87  1  0.99678184  0.84281771  0.41870450  1  -0.034227  0.002422  -0.027655  -0.054894  0.001194  4.018094  0.002
C  C88  1  0.49677517  0.34282007  0.58129373  1  -0.034299  0.00242  -0.027726  -0.055062  0.001193  4.018316  0.002
C  C89  1  0.50341253  0.65541028  0.91709650  1  -0.018957  0.002514  -0.029541  -0.059855  0.001232  4.020671  0.002
C  C90  1  0.01848073  0.84035259  0.92616130  1  -0.019151  -8.3e-05  -0.029876  -0.061282  -0.000864  4.041845  0.0
C  C91  1  0.00285211  0.15750476  0.58622958  1  -0.004226  -0.000702  -0.030092  -0.058172  -0.00125  4.011561  -0.001
C  C92  1  0.54086427  0.62875141  0.49246934  1  -0.067503  -0.001098  -0.084777  -0.085311  -0.001306  3.982238  -0.001
C  C93  1  0.55146179  0.36317957  0.99258416  1  -0.079454  -0.002119  -0.08009  -0.077427  -0.002477  3.968683  -0.001
C  C94  1  0.96853351  0.12611336  0.00415192  1  -0.027777  0.001421  -0.083665  -0.081322  0.000694  3.980217  0.001
C  C95  1  0.96781213  0.87707375  0.49680698  1  -0.006747  0.001467  -0.082216  -0.081824  0.000742  3.979047  0.001
C  C96  1  0.46781812  0.37708261  0.50319135  1  -0.006821  0.001468  -0.082246  -0.081757  0.000743  3.978868  0.001
C  C97  1  0.46853355  0.62611165  0.99585252  1  -0.028424  0.001421  -0.083596  -0.081236  0.000694  3.980172  0.001
C  C98  1  0.05146055  0.86317668  0.00740428  1  -0.079595  -0.002118  -0.080149  -0.077589  -0.002477  3.968644  -0.001
C  C99  1  0.04085730  0.12876552  0.50754340  1  -0.067469  -0.001098  -0.084859  -0.085399  -0.001305  3.982334  -0.001
C  C100  1  0.50650005  0.67701428  0.56220151  1  -0.051337  0.000651  -0.090471  -0.129145  0.000245  3.937575  0.001
C  C101  1  0.50711986  0.31397769  0.92661379  1  0.025151  0.00018  -0.086584  -0.124683  -0.00014  3.938764  0.0
C  C102  1  0.99781230  0.17588353  0.93514920  1  0.007373  0.000208  -0.089316  -0.130313  0.000147  3.950273  0.0
C  C103  1  0.00279486  0.83046796  0.56707897  1  -0.052606  1.1e-05  -0.087708  -0.127049  -0.000123  3.95676  0.0
C  C104  1  0.50279972  0.33047626  0.43291299  1  -0.053041  1.2e-05  -0.087682  -0.127276  -0.000123  3.956233  0.0
C  C105  1  0.49781621  0.67587571  0.06485516  1  0.008256  0.000208  -0.089316  -0.130362  0.000148  3.95035  0.0
C  C106  1  0.00712372  0.81397629  0.07337965  1  0.024684  0.000181  -0.086437  -0.124481  -0.000139  3.938596  0.0
C  C107  1  0.00647420  0.17701518  0.43780867  1  -0.049689  0.000651  -0.090321  -0.128879  0.000245  3.937261  0.001
C  C108  1  0.39403792  0.80832280  0.62693082  1  0.347673  0.003826  0.080082  0.100522  0.001945  4.008733  0.003
C  C109  1  0.38024074  0.18678607  0.87131438  1  0.344758  0.000486  0.083942  0.104817  1.9e-05  4.00989  0.001
C  C110  1  0.10100621  0.30850615  0.87282783  1  0.326068  0.002915  0.084893  0.108155  0.001369  4.015107  0.002
C  C111  1  0.10956428  0.69879390  0.63226429  1  0.365294  0.002959  0.087289  0.111375  0.001428  4.019433  0.002
C  C112  1  0.60957195  0.19880393  0.36773335  1  0.366905  0.002958  0.087182  0.111367  0.001428  4.018978  0.002
C  C113  1  0.60101835  0.80848763  0.12718233  1  0.325997  0.002914  0.084842  0.10799  0.001369  4.015466  0.002
C  C114  1  0.88023783  0.68678139  0.12868606  1  0.344752  0.000486  0.08392  0.104777  1.9e-05  4.010103  0.001
C  C115  1  0.89400596  0.30832571  0.37307092  1  0.371023  0.003824  0.080041  0.100444  0.001945  4.008763  0.003
C  C116  1  0.36109806  0.84323030  0.75781958  1  0.947539  -0.004508  0.134648  0.136526  -0.005478  3.955884  -0.003
C  C117  1  0.33240222  0.14920129  0.74278480  1  1.007535  -0.003192  0.143677  0.144821  -0.004273  3.909565  -0.002
C  C118  1  0.13451868  0.34461130  0.74260269  1  1.009763  0.000605  0.141943  0.148842  -0.000111  3.94309  0.001
C  C119  1  0.15042977  0.66650076  0.76294591  1  0.981853  0.000274  0.144121  0.150554  -0.000386  3.938015  0.001
C  C120  1  0.65044400  0.16651887  0.23705223  1  0.98194  0.000273  0.144068  0.150551  -0.000384  3.938098  0.001
C  C121  1  0.63451609  0.84460512  0.25740328  1  1.009542  0.000609  0.141835  0.14871  -0.000109  3.942895  0.001
C  C122  1  0.83239654  0.64920433  0.25721124  1  1.007243  -0.003191  0.143711  0.144844  -0.004272  3.909566  -0.002
C  C123  1  0.86107861  0.34324125  0.24217671  1  0.947761  -0.00451  0.134725  0.136624  -0.005479  3.956039  -0.003
C  C124  1  0.31734869  0.88487950  0.63319991  1  0.390635  -0.001165  0.00228  -0.078806  -0.001631  3.937613  0.0
C  C125  1  0.30376184  0.11169860  0.87091371  1  0.40032  -0.002515  0.006646  -0.08139  -0.002771  3.910787  -0.001
C  C126  1  0.17607614  0.38403745  0.86841856  1  0.440809  0.001089  0.005853  -0.075843  0.000484  3.941479  0.002
C  C127  1  0.17912507  0.61985070  0.63770331  1  0.431446  0.00101  0.007675  -0.074007  0.000492  3.93542  0.001
C  C128  1  0.67912783  0.11985494  0.36229122  1  0.431682  0.00101  0.007593  -0.074124  0.000493  3.93529  0.001
C  C129  1  0.67608429  0.88402084  0.13158624  1  0.441571  0.001089  0.005807  -0.07567  0.000485  3.941617  0.002
C  C130  1  0.80374796  0.61169791  0.12908654  1  0.400523  -0.002514  0.006626  -0.0814  -0.00277  3.911067  -0.001
C  C131  1  0.81731076  0.38488123  0.36679759  1  0.389124  -0.001166  0.002311  -0.078726  -0.001632  3.937473  0.0
C  C132  1  0.53790604  0.60771101  0.33756710  1  1.530941  -0.003677  0.198591  0.542965  -0.004407  4.200533  -0.002
C  C133  1  0.56771847  0.39479848  0.14146950  1  1.41942  -0.004877  0.19297  0.515905  -0.005743  4.153506  -0.003
C  C134  1  0.96944524  0.10345284  0.15706699  1  1.518165  0.004018  0.200899  0.558948  0.003262  4.218511  0.002
C  C135  1  0.95772365  0.89152160  0.34335562  1  1.518283  0.003857  0.202453  0.559501  0.003076  4.219173  0.002
C  C136  1  0.45772503  0.39152988  0.65664126  1  1.518957  0.003859  0.202397  0.559567  0.003077  4.219272  0.002
C  C137  1  0.46944882  0.60345829  0.84293840  1  1.518118  0.004018  0.200827  0.558848  0.003261  4.218471  0.002
C  C138  1  0.06772917  0.89479180  0.85851848  1  1.419179  -0.004873  0.192807  0.515474  -0.005739  4.153643  -0.003
C  C139  1  0.03792819  0.10772829  0.66244288  1  1.5304  -0.00368  0.198481  0.542877  -0.004405  4.200055  -0.002
N  N140  1  0.29697249  0.90526131  0.71460106  1  -1.178222  0.071003  -0.353444  -0.283056  0.036313  3.621617  0.061
N  N141  1  0.27404544  0.08954878  0.79092992  1  -1.160243  -0.000326  -0.365034  -0.245052  -0.004081  3.714978  -0.003
N  N142  1  0.19647001  0.40528291  0.78741645  1  -1.210561  0.071205  -0.370443  -0.314039  0.037407  3.697798  0.048
N  N143  1  0.20393877  0.60095789  0.71885902  1  -1.243189  0.070442  -0.368318  -0.30905  0.036961  3.690375  0.047
N  N144  1  0.70394027  0.10096874  0.28113519  1  -1.24421  0.07044  -0.368281  -0.309117  0.036955  3.690486  0.047
N  N145  1  0.69646932  0.90527419  0.21258621  1  -1.210285  0.071199  -0.370306  -0.313975  0.0374  3.697615  0.048
N  N146  1  0.77402872  0.58955268  0.20906880  1  -1.159837  -0.00032  -0.365047  -0.245015  -0.004076  3.715059  -0.003
N  N147  1  0.79694233  0.40526304  0.28539306  1  -1.178376  0.071007  -0.35351  -0.283266  0.036314  3.621844  0.061
N  N148  1  0.42075039  0.78406723  0.70740646  1  -1.269005  0.001315  -0.377126  -0.254279  4.8e-05  3.641816  0.001
N  N149  1  0.39726733  0.20830265  0.78921622  1  -1.2984  0.000341  -0.37187  -0.251235  -0.000213  3.636551  0.0
N  N150  1  0.07575905  0.28556600  0.79208160  1  -1.288027  0.004235  -0.368714  -0.243074  0.001745  3.627244  0.003
N  N151  1  0.09240956  0.72650336  0.71266888  1  -1.280537  0.003945  -0.372608  -0.245779  0.001654  3.643377  0.003
N  N152  1  0.59242889  0.22651928  0.28732773  1  -1.279813  0.003945  -0.372375  -0.245517  0.001654  3.642963  0.003
N  N153  1  0.57576534  0.78555404  0.20792888  1  -1.288351  0.004236  -0.368767  -0.243024  0.001746  3.62733  0.003
N  N154  1  0.89726856  0.70830052  0.21078023  1  -1.298876  0.000341  -0.371913  -0.251386  -0.000213  3.636737  0.0
N  N155  1  0.92073011  0.28407471  0.29259074  1  -1.291748  0.001317  -0.377006  -0.254045  4.8e-05  3.641725  0.001
O  O156  1  0.62081566  0.54210583  0.34440311  1  -1.099448  -0.009141  -0.306631  -0.493927  -0.010937  2.372879  -0.008
O  O157  1  0.65964777  0.45127863  0.12760519  1  -1.080462  -0.006991  -0.294881  -0.464516  -0.010214  2.344103  -0.009
O  O158  1  0.89970487  0.03362249  0.14517015  1  -1.138003  0.10132  -0.326778  -0.541353  0.051456  2.340434  0.077
O  O159  1  0.89116354  0.96413644  0.35329009  1  -1.133005  0.098716  -0.323082  -0.536637  0.050213  2.341193  0.075
O  O160  1  0.39115105  0.46414035  0.64670139  1  -1.13277  0.098717  -0.323127  -0.536759  0.050213  2.341204  0.075
O  O161  1  0.39969249  0.53363569  0.85483069  1  -1.137872  0.101307  -0.326711  -0.541255  0.05145  2.340613  0.077
O  O162  1  0.15966651  0.95126577  0.87239248  1  -1.080443  -0.006988  -0.294821  -0.464442  -0.010211  2.343969  -0.009
O  O163  1  0.12082591  0.04212000  0.65559497  1  -1.099408  -0.00914  -0.306587  -0.49385  -0.010937  2.372821  -0.008
O  O164  1  0.48980791  0.63099956  0.26877069  1  -1.197794  0.02161  -0.325294  -0.572288  0.011107  2.208856  0.015
O  O165  1  0.52608465  0.39155466  0.21659378  1  -1.135122  -0.001915  -0.305692  -0.516205  -0.004234  2.204693  -0.003
O  O166  1  0.00335688  0.12797600  0.22814698  1  -1.190688  0.028213  -0.320106  -0.567174  0.013948  2.197318  0.022
O  O167  1  0.98570718  0.86199166  0.27264646  1  -1.189274  0.02875  -0.316953  -0.568423  0.014187  2.22203  0.022
O  O168  1  0.48571065  0.36200532  0.72735025  1  -1.190099  0.028761  -0.31682  -0.568319  0.014193  2.222054  0.022
O  O169  1  0.50336626  0.62798153  0.77185470  1  -1.190662  0.028214  -0.320181  -0.567291  0.013948  2.197228  0.022
O  O170  1  0.02609716  0.89154791  0.78339546  1  -1.134989  -0.001916  -0.305506  -0.515847  -0.004235  2.204738  -0.003
O  O171  1  0.98982035  0.13101269  0.73123984  1  -1.198011  0.021603  -0.32526  -0.572248  0.011103  2.208158  0.015
