# generated using pymatgen
data_KH24C18N3O2
_symmetry_space_group_name_H-M   'P 1'
_cell_length_a   7.51964432
_cell_length_b   10.46559798
_cell_length_c   13.18710253
_cell_angle_alpha   109.04572416
_cell_angle_beta   89.72405323
_cell_angle_gamma   107.73655287
_symmetry_Int_Tables_number   1
_chemical_formula_structural   KH24C18N3O2
_chemical_formula_sum   'K2 H48 C36 N6 O4'
_cell_volume   929.18232495
_cell_formula_units_Z   2
loop_
 _symmetry_equiv_pos_site_id
 _symmetry_equiv_pos_as_xyz
  1  'x, y, z'
loop_
 _atom_site_type_symbol
 _atom_site_label
 _atom_site_symmetry_multiplicity
 _atom_site_fract_x
 _atom_site_fract_y
 _atom_site_fract_z
 _atom_site_occupancy
 _atom_site_hle17_bader_spin_density
 _atom_site_hle17_ddec_charge
 _atom_site_hle17_ddec_spin_density
 _atom_site_hle17_ddec_sum_bond_order
 _atom_site_hle17_magmom
 _atom_site_hse06_10hf_bader_spin_density
 _atom_site_hse06_10hf_ddec_charge
 _atom_site_hse06_10hf_ddec_spin_density
 _atom_site_hse06_10hf_ddec_sum_bond_order
 _atom_site_hse06_10hf_magmom
 _atom_site_hse06_bader_spin_density
 _atom_site_hse06_ddec_charge
 _atom_site_hse06_ddec_spin_density
 _atom_site_hse06_ddec_sum_bond_order
 _atom_site_hse06_magmom
 _atom_site_pbe_bader_spin_density
 _atom_site_pbe_cm5_charge
 _atom_site_pbe_ddec_charge
 _atom_site_pbe_ddec_spin_density
 _atom_site_pbe_ddec_sum_bond_order
 _atom_site_pbe_magmom
K  K0  1  0.21391896  0.97405227  0.47557136  1  0  0.862085  0  0.587777  0  0  0.772566  0  0.813439  0  0  0.790766  0  0.791468  0  0  0.913916  0.75916  0  0.828968  0
K  K1  1  0.78607813  0.02593953  0.52442266  1  0  0.862078  0  0.587782  0  0  0.772615  0  0.813343  0  0  0.790809  0  0.791379  0  0  0.913902  0.759131  0  0.829005  0
H  H2  1  0.03969277  0.40374622  0.38779050  1  0  0.097886  0  0.957365  0  0  0.103569  0  1.026149  0  0  0.107503  0  1.022907  0  0  0.099351  0.100585  0  1.02877  0
H  H3  1  0.96031144  0.59625304  0.61220700  1  0  0.097887  0  0.957271  0  0  0.103567  0  1.026064  0  0  0.107502  0  1.022823  0  0  0.09936  0.100578  0  1.028693  0
H  H4  1  0.93835549  0.41941717  0.21468271  1  0  0.0841  0  0.984861  0  0  0.096134  0  1.046513  0  0  0.097649  0  1.047813  0  0  0.093138  0.094964  0  1.045743  0
H  H5  1  0.06164828  0.58058422  0.78531610  1  0  0.084111  0  0.984885  0  0  0.096159  0  1.046521  0  0  0.097661  0  1.047834  0  0  0.093153  0.094989  0  1.045748  0
H  H6  1  0.88126103  0.97762018  0.05396007  1  0  0.083385  0  0.984688  0  0  0.097253  0  1.045803  0  0  0.099092  0  1.045924  0  0  0.094714  0.095842  0  1.045925  0
H  H7  1  0.11873118  0.02237909  0.94603888  1  0  0.08337  0  0.984654  0  0  0.097199  0  1.045828  0  0  0.099047  0  1.045922  0  0  0.094705  0.095792  0  1.045951  0
H  H8  1  0.98040676  0.96101396  0.22740129  1  0  0.086877  0  0.970181  0  0  0.094758  0  1.040767  0  0  0.099065  0  1.036823  0  0  0.100175  0.091796  0  1.043408  0
H  H9  1  0.01959255  0.03898317  0.77259564  1  0  0.086839  0  0.970248  0  0  0.09475  0  1.040804  0  0  0.099058  0  1.036858  0  0  0.100166  0.091788  0  1.043441  0
H  H10  1  0.41969252  0.48357538  0.57856645  1  0  0.086537  0  0.989699  0  0  0.093737  0  1.061119  0  0  0.096852  0  1.058824  0  0  0.097241  0.091435  0  1.062982  0
H  H11  1  0.58031528  0.51643561  0.42143637  1  0  0.086576  0  0.989691  0  0  0.093776  0  1.061096  0  0  0.096889  0  1.058804  0  0  0.097265  0.091474  0  1.062959  0
H  H12  1  0.61235483  0.68219280  0.73642930  1  0  0.087981  0  0.967001  0  0  0.100645  0  1.027263  0  0  0.10263  0  1.027647  0  0  0.095355  0.098865  0  1.027728  0
H  H13  1  0.38765236  0.31781389  0.26357696  1  0  0.088047  0  0.966958  0  0  0.100705  0  1.027208  0  0  0.102689  0  1.027592  0  0  0.095389  0.098918  0  1.027682  0
H  H14  1  0.31230131  0.47529329  0.94821791  1  0  0.082146  0  0.964084  0  0  0.097599  0  1.020565  0  0  0.099992  0  1.019755  0  0  0.094057  0.095892  0  1.021133  0
H  H15  1  0.68770278  0.52470275  0.05178179  1  0  0.082198  0  0.964038  0  0  0.097618  0  1.02055  0  0  0.100011  0  1.01974  0  0  0.094069  0.095912  0  1.021119  0
H  H16  1  0.12356436  0.27350275  0.78936784  1  0  0.090358  0  0.963333  0  0  0.102274  0  1.026543  0  0  0.105794  0  1.024008  0  0  0.09913  0.099842  0  1.028343  0
H  H17  1  0.87643900  0.72649757  0.21062917  1  0  0.090321  0  0.963383  0  0  0.102231  0  1.026599  0  0  0.105753  0  1.024063  0  0  0.099093  0.0998  0  1.028401  0
H  H18  1  0.83422023  0.31662353  0.02781574  1  0  0.100341  0  0.968375  0  0  0.121051  0  1.032577  0  0  0.122444  0  1.032485  0  0  0.086626  0.119923  0  1.032828  0
H  H19  1  0.16577643  0.68337360  0.97218117  1  0  0.100347  0  0.968362  0  0  0.121056  0  1.032572  0  0  0.122451  0  1.032477  0  0  0.086643  0.119928  0  1.032821  0
H  H20  1  0.71363434  0.12987416  0.97774941  1  0  0.095155  0  0.957395  0  0  0.117414  0  1.019175  0  0  0.118881  0  1.018625  0  0  0.085545  0.116333  0  1.019584  0
H  H21  1  0.28636047  0.87012190  0.02224949  1  0  0.095149  0  0.957398  0  0  0.117409  0  1.019179  0  0  0.118878  0  1.018629  0  0  0.085583  0.116329  0  1.019588  0
H  H22  1  0.95102563  0.19509563  0.95659838  1  0  0.099314  0  0.953621  0  0  0.123026  0  1.013754  0  0  0.123715  0  1.014227  0  0  0.087662  0.122428  0  1.013566  0
H  H23  1  0.04896965  0.80490150  0.04340003  1  0  0.099325  0  0.95358  0  0  0.123044  0  1.013706  0  0  0.123733  0  1.01418  0  0  0.087678  0.122446  0  1.013519  0
H  H24  1  0.55996743  0.70055697  0.02561743  1  0  0.096987  0  0.971191  0  0  0.115156  0  1.041001  0  0  0.116172  0  1.041527  0  0  0.085123  0.114304  0  1.040823  0
H  H25  1  0.44003614  0.29944119  0.97438585  1  0  0.097084  0  0.971178  0  0  0.11522  0  1.041006  0  0  0.116231  0  1.041531  0  0  0.085146  0.114368  0  1.040826  0
H  H26  1  0.57258533  0.81846148  0.95247303  1  0  0.099921  0  0.947223  0  0  0.12281  0  1.007143  0  0  0.124032  0  1.006812  0  0  0.087537  0.121928  0  1.007376  0
H  H27  1  0.42741828  0.18153988  0.04753107  1  0  0.099897  0  0.947268  0  0  0.122781  0  1.00719  0  0  0.123998  0  1.006864  0  0  0.087496  0.121897  0  1.007424  0
H  H28  1  0.74318351  0.73173351  0.94179382  1  0  0.103999  0  0.970194  0  0  0.125804  0  1.03201  0  0  0.126202  0  1.033624  0  0  0.087764  0.125499  0  1.030883  0
H  H29  1  0.25681881  0.26826466  0.05820718  1  0  0.104034  0  0.97023  0  0  0.125815  0  1.032059  0  0  0.126212  0  1.033674  0  0  0.087759  0.12551  0  1.030933  0
H  H30  1  0.71977898  0.32231030  0.43200590  1  0  0.084294  0  0.957555  0  0  0.09935  0  1.02688  0  0  0.09971  0  1.027335  0  0  0.097341  0.098987  0  1.02671  0
H  H31  1  0.28021131  0.67769108  0.56799965  1  0  0.084292  0  0.957498  0  0  0.099361  0  1.026796  0  0  0.099719  0  1.027256  0  0  0.097349  0.098996  0  1.026635  0
H  H32  1  0.47504551  0.29346578  0.44885592  1  0  0.08274  0  0.960481  0  0  0.096256  0  1.031335  0  0  0.096563  0  1.031495  0  0  0.098533  0.095841  0  1.031483  0
H  H33  1  0.52494870  0.70653239  0.55114958  1  0  0.082721  0  0.960348  0  0  0.096246  0  1.031189  0  0  0.096551  0  1.031356  0  0  0.098547  0.095833  0  1.031334  0
H  H34  1  0.62689907  0.28765992  0.54989923  1  0  0.089771  0  0.944098  0  0  0.110104  0  1.003846  0  0  0.110349  0  1.004338  0  0  0.10828  0.109783  0  1.003679  0
H  H35  1  0.37309517  0.71233505  0.45010317  1  0  0.089839  0  0.943922  0  0  0.110161  0  1.00369  0  0  0.110409  0  1.004177  0  0  0.108289  0.10984  0  1.003528  0
H  H36  1  0.38674382  0.09072760  0.28051705  1  0  0.056378  0  0.925219  0  0  0.068616  0  0.992458  0  0  0.068971  0  0.992141  0  0  0.102969  0.068152  0  0.993218  0
H  H37  1  0.61325816  0.90927272  0.71948147  1  0  0.056394  0  0.925215  0  0  0.068626  0  0.992458  0  0  0.06898  0  0.99214  0  0  0.102971  0.068164  0  0.993216  0
H  H38  1  0.63144909  0.12655622  0.26248840  1  0  0.063064  0  0.959612  0  0  0.075171  0  1.02686  0  0  0.073831  0  1.030431  0  0  0.103906  0.076038  0  1.024458  0
H  H39  1  0.36855544  0.87344408  0.73751392  1  0  0.063098  0  0.959606  0  0  0.075202  0  1.026853  0  0  0.073862  0  1.030423  0  0  0.10392  0.076068  0  1.024451  0
H  H40  1  0.46597875  0.87937247  0.15969502  1  0  0.047166  0  0.944269  0  0  0.063976  0  1.00841  0  0  0.063385  0  1.00908  0  0  0.100631  0.0643  0  1.008045  0
H  H41  1  0.53402808  0.12062997  0.84030559  1  0  0.047166  0  0.944205  0  0  0.063977  0  1.008343  0  0  0.063387  0  1.009014  0  0  0.100647  0.064298  0  1.007983  0
H  H42  1  0.60915891  0.88343236  0.26869204  1  0  0.053748  0  0.926968  0  0  0.067031  0  0.993885  0  0  0.067348  0  0.993825  0  0  0.10471  0.066465  0  0.994443  0
H  H43  1  0.39084251  0.11656688  0.73130999  1  0  0.053764  0  0.92694  0  0  0.067041  0  0.993862  0  0  0.06736  0  0.993804  0  0  0.104722  0.066472  0  0.994426  0
H  H44  1  0.23310577  0.65040659  0.14726304  1  0  0.06964  0  0.93853  0  0  0.08827  0  1.004147  0  0  0.088749  0  1.003619  0  0  0.090639  0.087759  0  1.004644  0
H  H45  1  0.76689222  0.34959055  0.85273388  1  0  0.069656  0  0.938571  0  0  0.088294  0  1.004171  0  0  0.088775  0  1.003642  0  0  0.090659  0.087781  0  1.004668  0
H  H46  1  0.15448969  0.63259456  0.27178744  1  0  0.090032  0  0.950582  0  0  0.107348  0  1.014235  0  0  0.107365  0  1.014868  0  0  0.103754  0.107216  0  1.013876  0
H  H47  1  0.84550831  0.36740257  0.72820872  1  0  0.090008  0  0.950558  0  0  0.107335  0  1.014216  0  0  0.107348  0  1.014853  0  0  0.103728  0.107204  0  1.013853  0
H  H48  1  0.39239294  0.64383750  0.24510446  1  0  0.074039  0  0.987608  0  0  0.087524  0  1.06049  0  0  0.086857  0  1.063743  0  0  0.091375  0.087904  0  1.058274  0
H  H49  1  0.60760596  0.35615857  0.75489067  1  0  0.074057  0  0.987595  0  0  0.087537  0  1.06049  0  0  0.086873  0  1.063739  0  0  0.09136  0.087914  0  1.05828  0
C  C50  1  0.01989445  0.18129573  0.31948753  1  0  0.197459  0  3.882605  0  0  0.197794  0  4.134852  0  0  0.204995  0  4.156777  0  0  0.078092  0.19293  0  4.119933  0
C  C51  1  0.98010843  0.81870352  0.68050996  1  0  0.197407  0  3.882621  0  0  0.197764  0  4.134839  0  0  0.204965  0  4.156767  0  0  0.078092  0.192897  0  4.119921  0
C  C52  1  0.00814894  0.31107821  0.31411798  1  0  -0.162403  0  3.749938  0  0  -0.179181  0  4.001919  0  0  -0.184037  0  4.021732  0  0  -0.101538  -0.175952  0  3.988584  0
C  C53  1  0.99185705  0.68892211  0.68587981  1  0  -0.1624  0  3.749918  0  0  -0.179187  0  4.001904  0  0  -0.184043  0  4.021712  0  0  -0.10157  -0.175961  0  3.988567  0
C  C54  1  0.95273061  0.31946871  0.21641443  1  0  -0.122113  0  3.770183  0  0  -0.138399  0  4.008497  0  0  -0.139677  0  4.031359  0  0  -0.098669  -0.137172  0  3.992646  0
C  C55  1  0.04727002  0.68053161  0.78358484  1  0  -0.122157  0  3.770264  0  0  -0.138456  0  4.008565  0  0  -0.139723  0  4.031434  0  0  -0.098672  -0.137227  0  3.992709  0
C  C56  1  0.90738925  0.20115266  0.12073404  1  0  0.102718  0  3.792997  0  0  0.131713  0  4.026247  0  0  0.130147  0  4.051935  0  0  -0.029529  0.132589  0  4.008743  0
C  C57  1  0.09260562  0.79884661  0.87926492  1  0  0.10272  0  3.793081  0  0  0.131721  0  4.026325  0  0  0.130158  0  4.052004  0  0  -0.029561  0.132596  0  4.008821  0
C  C58  1  0.91824446  0.07204027  0.12661080  1  0  -0.139131  0  3.796136  0  0  -0.156758  0  4.036888  0  0  -0.158153  0  4.059511  0  0  -0.105327  -0.155572  0  4.021603  0
C  C59  1  0.08175659  0.92795791  0.87338792  1  0  -0.139085  0  3.795964  0  0  -0.156694  0  4.036724  0  0  -0.158086  0  4.059349  0  0  -0.105298  -0.155515  0  4.021444  0
C  C60  1  0.97358112  0.06203674  0.22342009  1  0  -0.164971  0  3.772762  0  0  -0.182277  0  4.027646  0  0  -0.186915  0  4.047004  0  0  -0.100664  -0.179132  0  4.014425  0
C  C61  1  0.02641509  0.93796253  0.77657813  1  0  -0.164913  0  3.772637  0  0  -0.182251  0  4.027511  0  0  -0.18689  0  4.046869  0  0  -0.100645  -0.179104  0  4.014287  0
C  C62  1  0.25610164  0.36498511  0.67245952  1  0  0.195521  0  3.887839  0  0  0.19806  0  4.138432  0  0  0.204828  0  4.160597  0  0  0.079405  0.19337  0  4.123538  0
C  C63  1  0.74389865  0.63502056  0.32753961  1  0  0.195498  0  3.88782  0  0  0.198021  0  4.138459  0  0  0.204794  0  4.160618  0  0  0.079366  0.193328  0  4.123576  0
C  C64  1  0.39535745  0.48299859  0.65983852  1  0  -0.165015  0  3.773803  0  0  -0.184099  0  4.024496  0  0  -0.189078  0  4.045976  0  0  -0.102859  -0.180635  0  4.009752  0
C  C65  1  0.60464498  0.51700600  0.34016262  1  0  -0.165014  0  3.773838  0  0  -0.18408  0  4.024523  0  0  -0.189059  0  4.046002  0  0  -0.10283  -0.180615  0  4.009782  0
C  C66  1  0.50182713  0.59448601  0.74881728  1  0  -0.116946  0  3.766204  0  0  -0.132678  0  4.004224  0  0  -0.133943  0  4.026531  0  0  -0.09782  -0.13153  0  3.988982  0
C  C67  1  0.49816906  0.40551965  0.25118562  1  0  -0.117037  0  3.766377  0  0  -0.132772  0  4.004419  0  0  -0.134038  0  4.026724  0  0  -0.097904  -0.131617  0  3.989181  0
C  C68  1  0.47458271  0.59517060  0.85442207  1  0  0.115443  0  3.78163  0  0  0.144722  0  4.011885  0  0  0.143372  0  4.038022  0  0  -0.024383  0.145741  0  3.993722  0
C  C69  1  0.52542269  0.40483182  0.14558232  1  0  0.115462  0  3.781795  0  0  0.144746  0  4.012008  0  0  0.143398  0  4.038139  0  0  -0.024325  0.145765  0  3.993844  0
C  C70  1  0.33654143  0.47794784  0.86708126  1  0  -0.14666  0  3.811233  0  0  -0.164533  0  4.055542  0  0  -0.166042  0  4.077281  0  0  -0.106215  -0.163342  0  4.04073  0
C  C71  1  0.66345696  0.52205035  0.13291744  1  0  -0.14667  0  3.811123  0  0  -0.164521  0  4.055434  0  0  -0.166031  0  4.077173  0  0  -0.106213  -0.163331  0  4.040626  0
C  C72  1  0.23009705  0.36421277  0.77817315  1  0  -0.168944  0  3.773556  0  0  -0.188787  0  4.030393  0  0  -0.19306  0  4.049616  0  0  -0.103391  -0.185944  0  4.017693  0
C  C73  1  0.76990943  0.63579182  0.22182574  1  0  -0.168861  0  3.773426  0  0  -0.188683  0  4.030235  0  0  -0.192958  0  4.04946  0  0  -0.103312  -0.18584  0  4.017542  0
C  C74  1  0.84881049  0.21161401  0.01562173  1  0  -0.324197  0  3.743402  0  0  -0.405222  0  3.977882  0  0  -0.406994  0  3.98835  0  0  -0.24024  -0.403698  0  3.97089  0
C  C75  1  0.15118479  0.78838312  0.98437668  1  0  -0.324212  0  3.74337  0  0  -0.405246  0  3.977855  0  0  -0.407022  0  3.98832  0  0  -0.240311  -0.403721  0  3.970865  0
C  C76  1  0.59298954  0.71727498  0.94885848  1  0  -0.334835  0  3.749846  0  0  -0.415595  0  3.986525  0  0  -0.417444  0  3.997181  0  0  -0.243647  -0.414037  0  3.979144  0
C  C77  1  0.40701362  0.28272531  0.05114535  1  0  -0.334983  0  3.750052  0  0  -0.415679  0  3.986737  0  0  -0.41752  0  3.997394  0  0  -0.243664  -0.41412  0  3.979355  0
C  C78  1  0.59782333  0.26268635  0.46297588  1  0  -0.085684  0  3.638232  0  0  -0.171884  0  3.892411  0  0  -0.166436  0  3.898149  0  0  -0.151466  -0.175468  0  3.888623  0
C  C79  1  0.40216604  0.73731290  0.53702911  1  0  -0.085731  0  3.637915  0  0  -0.171926  0  3.89211  0  0  -0.166478  0  3.897847  0  0  -0.151514  -0.175514  0  3.888328  0
C  C80  1  0.51522582  0.06752798  0.29769083  1  0  0.047674  0  3.654557  0  0  -0.006514  0  3.918465  0  0  -0.000432  0  3.924835  0  0  -0.078847  -0.010644  0  3.914257  0
C  C81  1  0.48477696  0.93247446  0.70231203  1  0  0.047573  0  3.6546  0  0  -0.006609  0  3.918504  0  0  -0.000527  0  3.924877  0  0  -0.078859  -0.010738  0  3.914293  0
C  C82  1  0.48519746  0.90977904  0.24838332  1  0  0.059916  0  3.673881  0  0  0.002637  0  3.941394  0  0  0.009218  0  3.947247  0  0  -0.071711  -0.001601  0  3.937382  0
C  C83  1  0.51480222  0.09021914  0.75161691  1  0  0.060004  0  3.673774  0  0  0.00273  0  3.941263  0  0  0.009303  0  3.947129  0  0  -0.071729  -0.001509  0  3.937251  0
C  C84  1  0.27452673  0.68167595  0.23436953  1  0  -0.082961  0  3.66986  0  0  -0.172278  0  3.933137  0  0  -0.166547  0  3.938663  0  0  -0.146263  -0.175823  0  3.929175  0
C  C85  1  0.72547252  0.31832117  0.76562967  1  0  -0.082958  0  3.669898  0  0  -0.172304  0  3.933173  0  0  -0.166572  0  3.938703  0  0  -0.146258  -0.175844  0  3.9292  0
N  N86  1  0.06188539  0.15758456  0.41349608  1  0  -0.45897  0  3.158658  0  0  -0.422844  0  3.459867  0  0  -0.440336  0  3.473344  0  0  -0.411746  -0.410718  0  3.45009  0
N  N87  1  0.93811702  0.84241683  0.58650347  1  0  -0.458918  0  3.158692  0  0  -0.422802  0  3.459889  0  0  -0.440294  0  3.473367  0  0  -0.411762  -0.410672  0  3.450107  0
N  N88  1  0.13836759  0.27398599  0.49654184  1  0  -0.003883  0  3.225376  0  0  0.020119  0  3.519356  0  0  0.03229  0  3.528219  0  0  -0.126542  0.012922  0  3.512372  0
N  N89  1  0.86163529  0.72601647  0.50345724  1  0  -0.003795  0  3.225294  0  0  0.020213  0  3.519251  0  0  0.032385  0  3.528115  0  0  -0.126491  0.013015  0  3.51227  0
N  N90  1  0.14998670  0.24628618  0.58612485  1  0  -0.444717  0  3.10688  0  0  -0.411882  0  3.405651  0  0  -0.428758  0  3.418692  0  0  -0.369218  -0.400198  0  3.396226  0
N  N91  1  0.85001535  0.75372055  0.41387533  1  0  -0.444876  0  3.106889  0  0  -0.41204  0  3.405675  0  0  -0.42892  0  3.418715  0  0  -0.369346  -0.400357  0  3.396257  0
O  O92  1  0.55902822  0.11180091  0.41246802  1  0  -0.344844  0  2.318422  0  0  -0.265206  0  2.571397  0  0  -0.281312  0  2.573381  0  0  -0.348019  -0.253653  0  2.569686  0
O  O93  1  0.44096919  0.88819833  0.58753474  1  0  -0.344823  0  2.318346  0  0  -0.265187  0  2.571315  0  0  -0.281294  0  2.573298  0  0  -0.347997  -0.253635  0  2.569604  0
O  O94  1  0.32216829  0.83273439  0.28564152  1  0  -0.320417  0  2.3031  0  0  -0.244392  0  2.561471  0  0  -0.259644  0  2.561709  0  0  -0.308847  -0.233671  0  2.560877  0
O  O95  1  0.67783148  0.16726381  0.71435568  1  0  -0.320478  0  2.303115  0  0  -0.244441  0  2.561482  0  0  -0.259691  0  2.561721  0  0  -0.308824  -0.233714  0  2.560883  0
