# generated using pymatgen
data_Zn4H6C24O19
_symmetry_space_group_name_H-M   'P 1'
_cell_length_a   18.22504683
_cell_length_b   18.33170598
_cell_length_c   18.30881193
_cell_angle_alpha   61.41978271
_cell_angle_beta   61.21996051
_cell_angle_gamma   61.29421147
_symmetry_Int_Tables_number   1
_chemical_formula_structural   Zn4H6C24O19
_chemical_formula_sum   'Zn8 H12 C48 O38'
_cell_volume   4452.76388839
_cell_formula_units_Z   2
loop_
 _symmetry_equiv_pos_site_id
 _symmetry_equiv_pos_as_xyz
  1  'x, y, z'
loop_
 _atom_site_type_symbol
 _atom_site_label
 _atom_site_symmetry_multiplicity
 _atom_site_fract_x
 _atom_site_fract_y
 _atom_site_fract_z
 _atom_site_occupancy
 _atom_site_pbe_bader_charge
 _atom_site_pbe_bader_spin_density
 _atom_site_pbe_cm5_charge
 _atom_site_pbe_ddec_charge
 _atom_site_pbe_ddec_spin_density
 _atom_site_pbe_ddec_sum_bond_order
 _atom_site_pbe_magmom
Zn  Zn0  1  0.94087526  0.14905140  0.94214233  1  1.327113  0  0.682298  0.972762  0  2.341166  0
Zn  Zn1  1  0.94174561  0.97519458  0.93682294  1  1.314031  0  0.681816  0.977148  0  2.315256  0
Zn  Zn2  1  0.94235198  0.97705418  0.11225737  1  1.30145  0  0.68061  0.971002  0  2.343438  0
Zn  Zn3  1  0.11567019  0.97869137  0.94042502  1  1.300568  0  0.683651  0.977544  0  2.326609  0
Zn  Zn4  1  0.52554791  0.38998447  0.52656635  1  1.32411  0  0.683104  0.975439  0  2.334804  0
Zn  Zn5  1  0.53296195  0.56321284  0.52548027  1  1.315004  0  0.681577  0.976885  0  2.317099  0
Zn  Zn6  1  0.35490548  0.56386222  0.52624336  1  1.30775  0  0.683098  0.975556  0  2.328254  0
Zn  Zn7  1  0.52744527  0.55994035  0.35357539  1  1.311241  0  0.68073  0.971825  0  2.341159  0
H  H8  1  0.66060416  0.21533250  0.89566372  1  0.133456  0  0.128967  0.150273  0  0.952386  0
H  H9  1  0.81233281  0.32265959  0.56740574  1  0.128778  0  0.128808  0.149936  0  0.951867  0
H  H10  1  0.89771687  0.22534487  0.19464595  1  0.117997  0  0.131795  0.154785  0  0.946873  0
H  H11  1  0.56661848  0.30856062  0.27700912  1  0.116692  0  0.131996  0.155187  0  0.94624  0
H  H12  1  0.18622644  0.22002890  0.66182743  1  0.11254  0  0.131777  0.154348  0  0.948791  0
H  H13  1  0.27558738  0.32719965  0.80559269  1  0.123608  0  0.131462  0.154156  0  0.947103  0
H  H14  1  0.66010216  0.93306409  0.18450169  1  0.130988  0  0.12941  0.151245  0  0.951643  0
H  H15  1  0.81234787  0.60444851  0.27452224  1  0.128342  0  0.129286  0.15121  0  0.951828  0
H  H16  1  0.17770517  0.69709465  0.89558051  1  0.126382  0  0.129089  0.150155  0  0.952579  0
H  H17  1  0.30249832  0.84344313  0.56897140  1  0.135256  0  0.129228  0.150639  0  0.952912  0
H  H18  1  0.18106719  0.69848645  0.18801336  1  0.11453  0  0.129252  0.150825  0  0.953238  0
H  H19  1  0.28801478  0.84064021  0.27917812  1  0.102587  0  0.129049  0.150068  0  0.953125  0
C  C20  1  0.84360854  0.15430866  0.84858706  1  1.613344  0  0.239598  0.63439  0  4.177149  0
C  C21  1  0.78534416  0.21196000  0.79186041  1  -0.012428  0  0.010599  -0.076525  0  3.86478  0
C  C22  1  0.69626019  0.23638316  0.82526286  1  -0.088606  0  -0.062205  -0.175007  0  3.845723  0
C  C23  1  0.64105630  0.29453545  0.76777213  1  0.969484  0  0.162137  0.399891  0  4.021948  0
C  C24  1  0.68757276  0.32530979  0.67112228  1  -0.065516  0  0.010102  -0.077272  0  3.864599  0
C  C25  1  0.77666927  0.30114446  0.63776111  1  -0.002244  0  -0.061362  -0.174053  0  3.843277  0
C  C26  1  0.83188434  0.24315882  0.69528946  1  0.954956  0  0.161697  0.400469  0  4.018303  0
C  C27  1  0.62882700  0.38321410  0.61489577  1  1.612871  0  0.239317  0.636303  0  4.172137  0
C  C28  1  0.85173298  0.15596563  0.12302817  1  1.628179  0  0.239222  0.634176  0  4.176414  0
C  C29  1  0.79407725  0.21276108  0.18115025  1  -0.008286  0  0.010438  -0.078018  0  3.865777  0
C  C30  1  0.82685368  0.24161177  0.21071428  1  -0.007069  0  -0.059827  -0.172497  0  3.839132  0
C  C31  1  0.76762270  0.29800311  0.26693630  1  0.917171  0  0.162318  0.40196  0  4.019363  0
C  C32  1  0.67031265  0.32149670  0.29009583  1  -0.113294  0  0.010659  -0.076326  0  3.865627  0
C  C33  1  0.63748689  0.29226353  0.26094735  1  0.056406  0  -0.060423  -0.174409  0  3.837448  0
C  C34  1  0.69673830  0.23591027  0.20463896  1  0.941816  0  0.162638  0.403306  0  4.015123  0
C  C35  1  0.61318829  0.37948416  0.34703929  1  1.671346  0  0.239767  0.635583  0  4.177859  0
C  C36  1  0.12092847  0.15924670  0.84392233  1  1.639566  0  0.24164  0.637758  0  4.170509  0
C  C37  1  0.17732739  0.21763662  0.78410626  1  -0.028806  0  0.010282  -0.078706  0  3.865792  0
C  C38  1  0.20392234  0.24153618  0.69566954  1  -0.037169  0  -0.060249  -0.172453  0  3.838546  0
C  C39  1  0.25950434  0.29880921  0.63896880  1  0.939117  0  0.161632  0.399373  0  4.019876  0
C  C40  1  0.28474662  0.32934631  0.68334665  1  -0.054737  0  0.010513  -0.078436  0  3.868049  0
C  C41  1  0.25769169  0.30585641  0.77177924  1  0.048832  0  -0.060413  -0.173909  0  3.841948  0
C  C42  1  0.20202598  0.24871525  0.82845891  1  0.930613  0  0.162291  0.401263  0  4.018823  0
C  C43  1  0.34297331  0.38598182  0.62386844  1  1.61731  0  0.241462  0.63785  0  4.169299  0
C  C44  1  0.84316861  0.88612885  0.11650470  1  1.622147  0  0.238699  0.63382  0  4.17955  0
C  C45  1  0.78489143  0.82935708  0.17362623  1  -0.034928  0  0.010624  -0.075641  0  3.864628  0
C  C46  1  0.69578498  0.86262715  0.20193417  1  -0.047885  0  -0.062221  -0.176741  0  3.844402  0
C  C47  1  0.64077777  0.80488100  0.25970555  1  0.946097  0  0.162171  0.403579  0  4.01463  0
C  C48  1  0.68753032  0.70815755  0.28535436  1  -0.058992  0  0.010409  -0.075713  0  3.862788  0
C  C49  1  0.77663419  0.67488252  0.25683045  1  -0.024886  0  -0.06158  -0.176002  0  3.844762  0
C  C50  1  0.83163248  0.73263780  0.19916540  1  0.960574  0  0.162356  0.403828  0  4.014187  0
C  C51  1  0.62928514  0.65137485  0.34393043  1  1.607936  0  0.237805  0.632759  0  4.181734  0
C  C52  1  0.12291546  0.87865783  0.84830519  1  1.60554  0  0.239805  0.636175  0  4.173703  0
C  C53  1  0.18185150  0.81988160  0.79212246  1  -0.003303  0  0.00996  -0.078064  0  3.865666  0
C  C54  1  0.20289504  0.73168092  0.82553065  1  -0.051217  0  -0.0614  -0.173379  0  3.843333  0
C  C55  1  0.26251328  0.67584668  0.76864593  1  0.945097  0  0.162062  0.39978  0  4.019352  0
C  C56  1  0.29795379  0.72071275  0.67235919  1  -0.059929  0  0.009731  -0.077831  0  3.866802  0
C  C57  1  0.27748531  0.80885127  0.63902732  1  -0.025342  0  -0.061519  -0.17446  0  3.84425  0
C  C58  1  0.21798941  0.86469901  0.69596197  1  0.932611  0  0.161796  0.400536  0  4.015782  0
C  C59  1  0.35480625  0.66195922  0.61608442  1  1.632327  0  0.239878  0.635316  0  4.174424  0
C  C60  1  0.12314630  0.88021973  0.12062730  1  1.615892  0  0.239121  0.635109  0  4.17575  0
C  C61  1  0.18020622  0.82022487  0.17831772  1  -0.016829  0  0.009676  -0.078594  0  3.86818  0
C  C62  1  0.20283325  0.73202419  0.20579828  1  -0.019073  0  -0.061818  -0.175165  0  3.847706  0
C  C63  1  0.25912071  0.67504391  0.26231928  1  0.939736  0  0.162143  0.400184  0  4.018591  0
C  C64  1  0.28922831  0.71890550  0.28857340  1  -0.100515  0  0.01039  -0.076226  0  3.865273  0
C  C65  1  0.26650585  0.80709828  0.26116953  1  0.07491  0  -0.06188  -0.175093  0  3.847659  0
C  C66  1  0.21021253  0.86404615  0.20471547  1  0.93219  0  0.162325  0.402345  0  4.018355  0
C  C67  1  0.34653321  0.65925502  0.34608447  1  1.637881  0  0.238844  0.633595  0  4.177138  0
O  O68  1  0.98505417  0.01954970  0.98264279  1  -1.202085  0  -0.568282  -1.039443  0  2.508106  0
O  O69  1  0.86677241  0.07212734  0.86568242  1  -1.153385  0  -0.300435  -0.526774  0  2.296654  0
O  O70  1  0.86311238  0.19467143  0.87334999  1  -1.143267  0  -0.300007  -0.525657  0  2.309607  0
O  O71  1  0.55946128  0.31758944  0.79796508  1  -0.993497  0  -0.239345  -0.358273  0  1.979755  0
O  O72  1  0.91344246  0.22126699  0.66529668  1  -1.012561  0  -0.239598  -0.359087  0  1.975859  0
O  O73  1  0.61021927  0.46537628  0.59376545  1  -1.139065  0  -0.301108  -0.528395  0  2.294927  0
O  O74  1  0.60409999  0.34319783  0.59490882  1  -1.150744  0  -0.298603  -0.525716  0  2.307259  0
O  O75  1  0.87339642  0.07374597  0.16233142  1  -1.155568  0  -0.299545  -0.52526  0  2.303924  0
O  O76  1  0.87209551  0.19647327  0.04092410  1  -1.151157  0  -0.298707  -0.523529  0  2.302428  0
O  O77  1  0.79683457  0.32526766  0.29403103  1  -1.016874  0  -0.244613  -0.367142  0  1.977801  0
O  O78  1  0.66754921  0.20848423  0.17769347  1  -1.018699  0  -0.244422  -0.366885  0  1.974382  0
O  O79  1  0.59392154  0.46142603  0.30629086  1  -1.156186  0  -0.300072  -0.526176  0  2.305357  0
O  O80  1  0.59125420  0.34036268  0.42937972  1  -1.164652  0  -0.298835  -0.524595  0  2.302838  0
O  O81  1  0.16216523  0.07735447  0.86634591  1  -1.149784  0  -0.298897  -0.524158  0  2.301802  0
O  O82  1  0.03802047  0.19831694  0.86563267  1  -1.154839  0  -0.299528  -0.525225  0  2.308265  0
O  O83  1  0.28475681  0.32074879  0.55793958  1  -1.008638  0  -0.239134  -0.358465  0  1.975438  0
O  O84  1  0.17645480  0.22705290  0.90949892  1  -1.004469  0  -0.239845  -0.359656  0  1.974987  0
O  O85  1  0.30384213  0.46829609  0.60092084  1  -1.153925  0  -0.298585  -0.52331  0  2.299393  0
O  O86  1  0.42550341  0.34488854  0.60307877  1  -1.152029  0  -0.299519  -0.525986  0  2.307376  0
O  O87  1  0.86550070  0.90726801  0.15764216  1  -1.160633  0  -0.300602  -0.525678  0  2.306154  0
O  O88  1  0.86382772  0.90644220  0.03407361  1  -1.128828  0  -0.301716  -0.529492  0  2.298591  0
O  O89  1  0.55913811  0.83477079  0.28644846  1  -1.010661  0  -0.244588  -0.366487  0  1.974957  0
O  O90  1  0.91328359  0.70277274  0.17281105  1  -1.009641  0  -0.244272  -0.366259  0  1.974408  0
O  O91  1  0.60566299  0.62940806  0.30458898  1  -1.137807  0  -0.300303  -0.525527  0  2.303996  0
O  O92  1  0.60989263  0.63187748  0.42603999  1  -1.142144  0  -0.301115  -0.529159  0  2.301396  0
O  O93  1  0.16287927  0.90209361  0.86977627  1  -1.143118  0  -0.300332  -0.529314  0  2.309395  0
O  O94  1  0.04011440  0.89827385  0.86829648  1  -1.139205  0  -0.299867  -0.525394  0  2.293233  0
O  O95  1  0.28281963  0.59504744  0.79919689  1  -1.004254  0  -0.239846  -0.358664  0  1.977667  0
O  O96  1  0.19805624  0.94547843  0.66543666  1  -1.016159  0  -0.239289  -0.358373  0  1.975407  0
O  O97  1  0.31247927  0.64008975  0.59581469  1  -1.157986  0  -0.300517  -0.528666  0  2.308403  0
O  O98  1  0.43799413  0.64076220  0.59487360  1  -1.125606  0  -0.299608  -0.524612  0  2.292841  0
O  O99  1  0.04028482  0.89995367  0.16042770  1  -1.142099  0  -0.300615  -0.525843  0  2.304038  0
O  O100  1  0.16377086  0.90452030  0.03858088  1  -1.150356  0  -0.298922  -0.526052  0  2.302953  0
O  O101  1  0.28105555  0.59421983  0.28691253  1  -1.007534  0  -0.238811  -0.357552  0  1.974957  0
O  O102  1  0.18775946  0.94488998  0.18060531  1  -1.006975  0  -0.239429  -0.358885  0  1.975103  0
O  O103  1  0.42922209  0.63644495  0.30575465  1  -1.160648  0  -0.299688  -0.525281  0  2.307086  0
O  O104  1  0.30633711  0.63850305  0.42840613  1  -1.160459  0  -0.299679  -0.525374  0  2.300913  0
O  O105  1  0.48547962  0.51953673  0.48321443  1  -1.219779  0  -0.567937  -1.039475  0  2.508433  0
