# generated using pymatgen
data_Zn2H20C45(N2O15)2
_symmetry_space_group_name_H-M   'P 1'
_cell_length_a   10.18055141
_cell_length_b   11.11285796
_cell_length_c   23.45536044
_cell_angle_alpha   87.01865581
_cell_angle_beta   90.67055235
_cell_angle_gamma   91.64301464
_symmetry_Int_Tables_number   1
_chemical_formula_structural   Zn2H20C45(N2O15)2
_chemical_formula_sum   'Zn2 H20 C45 N4 O30'
_cell_volume   2648.80298074
_cell_formula_units_Z   1
loop_
 _symmetry_equiv_pos_site_id
 _symmetry_equiv_pos_as_xyz
  1  'x, y, z'
loop_
 _atom_site_type_symbol
 _atom_site_label
 _atom_site_symmetry_multiplicity
 _atom_site_fract_x
 _atom_site_fract_y
 _atom_site_fract_z
 _atom_site_occupancy
 _atom_site_pbe_bader_charge
 _atom_site_pbe_bader_spin_density
 _atom_site_pbe_cm5_charge
 _atom_site_pbe_ddec_charge
 _atom_site_pbe_ddec_spin_density
 _atom_site_pbe_ddec_sum_bond_order
 _atom_site_pbe_magmom
Zn  Zn0  1  0.62807971  0.46350026  0.50806719  1  1.301992  0  0.692555  0.843011  0  2.307891  0
Zn  Zn1  1  0.34408951  0.48109173  0.49939371  1  1.299665  0  0.687769  0.829013  0  2.39689  0
H  H2  1  0.63852512  0.39467593  0.21571285  1  0.135457  0  0.126077  0.137321  0  0.965025  0
H  H3  1  0.64216718  0.81933095  0.50738895  1  0.610343  0  0.323703  0.365795  0  0.898283  0
H  H4  1  0.89939072  0.31364199  0.62601269  1  0.143566  0  0.12119  0.076254  0  0.970886  0
H  H5  1  0.80500455  0.52910405  0.43009479  1  0.654753  0  0.332706  0.359906  0  0.93314  0
H  H6  1  0.22564078  0.29120941  0.56489968  1  0.141416  0  0.120121  0.081888  0  1.002755  0
H  H7  1  0.79822347  0.84249369  0.07636056  1  0.099202  0  0.110029  0.048338  0  0.94993  0
H  H8  1  0.16852553  0.65335766  0.49980677  1  0.657288  0  0.336326  0.364766  0  0.92228  0
H  H9  1  0.23685392  0.29753911  0.10165966  1  0.097705  0  0.110179  0.047146  0  0.948475  0
H  H10  1  0.21271188  0.38883865  0.91278248  1  0.650951  0  0.316999  0.361078  0  0.94633  0
H  H11  1  0.63365917  0.32542883  0.37332701  1  0.087765  0  0.103974  0.055444  0  0.992223  0
H  H12  1  0.43651445  0.73272379  0.38133942  1  0.062267  0  0.097995  0.034479  0  1.019675  0
H  H13  1  0.43925230  0.73251774  0.22091085  1  0.135534  0  0.125083  0.138852  0  0.963895  0
H  H14  1  0.31920052  0.68978066  0.80979936  1  0.599128  0  0.341097  0.360924  0  0.87717  0
H  H15  1  0.75723021  0.75380369  0.88971942  1  0.643548  0  0.317419  0.361334  0  0.945178  0
H  H16  1  0.29900503  0.57202268  0.62599828  1  0.631776  0  0.308626  0.35037  0  0.960828  0
H  H17  1  0.61980585  0.28353072  0.65950451  1  0.077976  0  0.096202  0.034007  0  1.000989  0
H  H18  1  0.64238862  0.42292712  0.84880059  1  0.586186  0  0.330663  0.352055  0  0.897094  0
H  H19  1  0.32395561  0.02360335  0.36102659  1  0.110007  0  0.111959  0.059751  0  0.981304  0
H  H20  1  0.58567626  0.09704493  0.55967581  1  0.156795  0  0.120988  0.078156  0  0.957206  0
H  H21  1  0.18724317  0.93664853  0.44789970  1  0.622911  0  0.348703  0.37564  0  0.854638  0
C  C22  1  0.45120210  0.71203398  0.50044629  1  1.535424  0  0.203063  0.558215  0  4.213895  0
C  C23  1  0.41675711  0.50977870  0.12711373  1  1.376221  0  0.254862  0.447533  0  4.074229  0
C  C24  1  0.59534699  0.46525027  0.23951885  1  0.048629  0  -0.045358  -0.120609  0  3.857054  0
C  C25  1  0.53112213  0.52553728  0.39456939  1  1.597658  0  0.227202  0.600642  0  4.178171  0
C  C26  1  0.59667092  0.45324435  0.29921408  1  -0.026286  0  -0.004311  0.019109  0  3.9367  0
C  C27  1  0.53926540  0.54216495  0.33070135  1  -0.071643  0  0.016567  -0.056125  0  3.866431  0
C  C28  1  0.48439935  0.64398681  0.30216985  1  0.119404  0  -0.006783  0.009573  0  3.958325  0
C  C29  1  0.48364919  0.65405064  0.24239411  1  -0.076685  0  -0.047807  -0.125758  0  3.863853  0
C  C30  1  0.53720663  0.56399544  0.21183059  1  0.396873  0  0.097757  0.188973  0  4.038289  0
C  C31  1  0.39502105  0.59364926  0.75381813  1  0.575015  0  0.095647  0.186814  0  4.055763  0
C  C32  1  0.39033022  0.56185226  0.69603284  1  0.588043  0  0.08368  0.202397  0  4.041738  0
C  C33  1  0.69507042  0.70232695  0.96249843  1  0.574801  0  0.127759  0.319254  0  4.00094  0
C  C34  1  0.48467940  0.48352598  0.67708597  1  0.01062  0  -0.027417  -0.185483  0  3.987751  0
C  C35  1  0.57874296  0.42973156  0.71510485  1  0.030319  0  -0.034295  -0.103453  0  3.985895  0
C  C36  1  0.57882493  0.45855521  0.77257928  1  0.579368  0  0.094975  0.238389  0  4.06317  0
C  C37  1  0.45041442  0.25307942  0.48176776  1  1.62778  0  0.22542  0.604471  0  4.199239  0
C  C38  1  0.48730606  0.54098811  0.79102006  1  0.342836  0  0.052637  -0.074204  0  4.067248  0
C  C39  1  0.39347178  0.04358568  0.45012468  1  0.029183  0  -0.015287  -0.089028  0  3.984323  0
C  C40  1  0.43943586  0.11904488  0.48964841  1  -0.08427  0  0.024306  -0.044577  0  3.787239  0
C  C41  1  0.37050746  0.91424660  0.46392358  1  0.551874  0  0.07727  0.191854  0  4.054532  0
C  C42  1  0.46639725  0.84134251  0.48549625  1  0.518498  0  0.042098  0.000728  0  4.060022  0
C  C43  1  0.91369064  0.39924903  0.53728677  1  0.593982  0  0.134782  0.080863  0  3.890536  0
C  C44  1  0.70670286  0.70043949  0.02330678  1  0.055962  0  0.002751  -0.071853  0  3.8532  0
C  C45  1  0.05719388  0.40160446  0.53421032  1  0.555969  0  0.127414  0.065212  0  3.924321  0
C  C46  1  0.49080371  0.46729044  0.61466521  1  1.546192  0  0.225088  0.621359  0  4.124686  0
C  C47  1  0.38416511  0.50005648  0.88365463  1  1.248553  0  0.235503  0.436435  0  4.106837  0
C  C48  1  0.58316914  0.63632216  0.87481900  1  1.261602  0  0.234374  0.432308  0  4.109054  0
C  C49  1  0.58996512  0.63795038  0.93658117  1  0.005576  0  -0.03502  -0.236154  0  4.030144  0
C  C50  1  0.49497578  0.57359245  0.97049890  1  -0.011825  0  0.006577  0.09424  0  4.062413  0
C  C51  1  0.39085430  0.50793664  0.94499492  1  0.039387  0  -0.035187  -0.237311  0  4.035117  0
C  C52  1  0.66274918  0.33431028  0.69520942  1  0.953916  0  0.085451  0.288198  0  3.978509  0
C  C53  1  0.36638484  0.09035556  0.39038021  1  0.950383  0  0.105492  0.271613  0  3.930974  0
C  C54  1  0.48066126  0.07704812  0.54934479  1  0.966041  0  0.115924  0.299372  0  3.90847  0
C  C55  1  0.61184511  0.63706906  0.05602785  1  -0.021541  0  0.008431  -0.062123  0  3.967889  0
C  C56  1  0.85098658  0.31608336  0.58349808  1  0.989893  0  0.111113  0.248863  0  3.938767  0
C  C57  1  0.11884530  0.28839798  0.55678080  1  0.959976  0  0.11232  0.240266  0  3.906677  0
C  C58  1  0.82251471  0.76681083  0.04950593  1  1.004097  0  0.109006  0.303738  0  3.950888  0
C  C59  1  0.20103286  0.37597809  0.07510313  1  0.990251  0  0.108571  0.303986  0  3.955568  0
C  C60  1  0.65335357  0.34219388  0.32707312  1  0.950057  0  0.09961  0.271343  0  3.937078  0
C  C61  1  0.42912792  0.74270647  0.33400704  1  0.954351  0  0.103115  0.28163  0  3.935221  0
C  C62  1  0.50484978  0.57388631  0.03076430  1  0.065762  0  -0.010074  -0.006542  0  4.042158  0
C  C63  1  0.40843219  0.50912939  0.06414254  1  -0.067315  0  0.007893  -0.063115  0  3.977568  0
C  C64  1  0.30407067  0.44575608  0.03981424  1  0.008216  0  0.004224  -0.070015  0  3.854967  0
C  C65  1  0.29498337  0.44439364  0.97910358  1  0.647193  0  0.128426  0.320942  0  4.00114  0
C  C66  1  0.62674710  0.63214702  0.11910213  1  1.370475  0  0.256386  0.450401  0  4.073946  0
N  N67  1  0.48314186  0.56262074  0.85098092  1  -1.185242  0  -0.238552  -0.21184  0  3.647264  0
N  N68  1  0.52693639  0.56969300  0.15029661  1  -1.234103  0  -0.227413  -0.220661  0  3.591111  0
N  N69  1  0.83301822  0.45029486  0.50083798  1  -0.565847  0  -0.195989  -0.028445  0  3.441973  0
N  N70  1  0.13771556  0.49073422  0.51874187  1  -0.535644  0  -0.187321  -0.023013  0  3.41942  0
O  O71  1  0.55619648  0.65722945  0.51384211  1  -1.172559  0  -0.314582  -0.558751  0  2.248564  0
O  O72  1  0.60246516  0.45727808  0.59184774  1  -1.138865  0  -0.296512  -0.507907  0  2.38124  0
O  O73  1  0.38144765  0.46928477  0.58659786  1  -1.179348  0  -0.313627  -0.582144  0  2.395979  0
O  O74  1  0.29721194  0.44039024  0.85880988  1  -1.101215  0  -0.26158  -0.427641  0  2.124558  0
O  O75  1  0.78312455  0.76547871  0.93112330  1  -1.115837  0  -0.3077  -0.382559  0  2.266799  0
O  O76  1  0.29628458  0.61308696  0.66251193  1  -1.124999  0  -0.349151  -0.402717  0  2.26131  0
O  O77  1  0.77067628  0.30802700  0.71524612  1  -1.076629  0  -0.274002  -0.360491  0  2.104287  0
O  O78  1  0.66260224  0.40222184  0.81006381  1  -1.083505  0  -0.331439  -0.395607  0  2.291422  0
O  O79  1  0.39410185  0.19420483  0.37366969  1  -1.061268  0  -0.240768  -0.320807  0  2.137415  0
O  O80  1  0.40347555  0.03081534  0.58379153  1  -1.059473  0  -0.244049  -0.324859  0  2.082087  0
O  O81  1  0.24676132  0.86945302  0.45196778  1  -1.10486  0  -0.33399  -0.418009  0  2.28848  0
O  O82  1  0.66245830  0.69317281  0.84264158  1  -1.102777  0  -0.261249  -0.422656  0  2.110796  0
O  O83  1  0.59076899  0.88904857  0.49370270  1  -1.10794  0  -0.356958  -0.423843  0  2.307282  0
O  O84  1  0.74880747  0.26024379  0.57427166  1  -1.065516  0  -0.233052  -0.321835  0  2.260317  0
O  O85  1  0.88521583  0.50643088  0.45312029  1  -0.681131  0  -0.218289  -0.275729  0  2.226396  0
O  O86  1  0.04974718  0.19829170  0.56802350  1  -1.029754  0  -0.217331  -0.286066  0  2.120882  0
O  O87  1  0.93529964  0.74227354  0.03914674  1  -1.049391  0  -0.254054  -0.33303  0  2.085992  0
O  O88  1  0.08760325  0.60038619  0.50722625  1  -0.666107  0  -0.20008  -0.253807  0  2.233763  0
O  O89  1  0.08527508  0.40024457  0.07173121  1  -1.045125  0  -0.252557  -0.330195  0  2.084401  0
O  O90  1  0.19857533  0.38015201  0.95569976  1  -1.12152  0  -0.306734  -0.38175  0  2.262643  0
O  O91  1  0.71703846  0.27188197  0.30086422  1  -1.071482  0  -0.262119  -0.346465  0  2.07926  0
O  O92  1  0.37906866  0.83189523  0.31087498  1  -1.075066  0  -0.256525  -0.353124  0  2.109828  0
O  O93  1  0.72046386  0.67941893  0.14377214  1  -1.063186  0  -0.241633  -0.396333  0  2.0828  0
O  O94  1  0.30628910  0.67353224  0.76963767  1  -1.085357  0  -0.322094  -0.372172  0  2.271976  0
O  O95  1  0.33330966  0.46016352  0.15845577  1  -1.074166  0  -0.237486  -0.391685  0  2.08663  0
O  O96  1  0.33608960  0.66056738  0.49868029  1  -1.168026  0  -0.323688  -0.553751  0  2.427128  0
O  O97  1  0.63939749  0.52622984  0.42323007  1  -1.174546  0  -0.310871  -0.572194  0  2.396325  0
O  O98  1  0.41792706  0.51108298  0.41524421  1  -1.152982  0  -0.291012  -0.50833  0  2.298729  0
O  O99  1  0.56445811  0.30107515  0.48017691  1  -1.147931  0  -0.297461  -0.52912  0  2.386726  0
O  O100  1  0.34206058  0.30628025  0.48681643  1  -1.145648  0  -0.30465  -0.530364  0  2.390511  0
