# generated using pymatgen
data_CuH9C11N6
_symmetry_space_group_name_H-M   'P 1'
_cell_length_a   5.77221094
_cell_length_b   9.37505991
_cell_length_c   10.60226763
_cell_angle_alpha   70.33460650
_cell_angle_beta   76.07116399
_cell_angle_gamma   80.59814661
_symmetry_Int_Tables_number   1
_chemical_formula_structural   CuH9C11N6
_chemical_formula_sum   'Cu2 H18 C22 N12'
_cell_volume   522.25645656
_cell_formula_units_Z   2
loop_
 _symmetry_equiv_pos_site_id
 _symmetry_equiv_pos_as_xyz
  1  'x, y, z'
loop_
 _atom_site_type_symbol
 _atom_site_label
 _atom_site_symmetry_multiplicity
 _atom_site_fract_x
 _atom_site_fract_y
 _atom_site_fract_z
 _atom_site_occupancy
 _atom_site_hle17_bader_spin_density
 _atom_site_hle17_ddec_charge
 _atom_site_hle17_ddec_spin_density
 _atom_site_hle17_ddec_sum_bond_order
 _atom_site_hle17_magmom
 _atom_site_hse06_10hf_bader_spin_density
 _atom_site_hse06_10hf_ddec_charge
 _atom_site_hse06_10hf_ddec_spin_density
 _atom_site_hse06_10hf_ddec_sum_bond_order
 _atom_site_hse06_10hf_magmom
 _atom_site_hse06_bader_spin_density
 _atom_site_hse06_ddec_charge
 _atom_site_hse06_ddec_spin_density
 _atom_site_hse06_ddec_sum_bond_order
 _atom_site_hse06_magmom
 _atom_site_pbe_bader_spin_density
 _atom_site_pbe_cm5_charge
 _atom_site_pbe_ddec_charge
 _atom_site_pbe_ddec_spin_density
 _atom_site_pbe_ddec_sum_bond_order
 _atom_site_pbe_magmom
Cu  Cu0  1  0.79085463  0.45448146  0.41221462  1  0  0.364843  0  2.018806  0  0  0.217995  0  2.539656  0  0  0.211273  0  2.49685  0  0  0.574149  0.227924  0  2.563977  0
Cu  Cu1  1  0.20917923  0.54552367  0.58779186  1  0  0.364747  0  2.018955  0  0  0.217945  0  2.539824  0  0  0.211161  0  2.496941  0  0  0.574184  0.22785  0  2.564339  0
H  H2  1  0.90680264  0.12169752  0.42680338  1  0  0.094976  0  0.999862  0  0  0.099024  0  1.075705  0  0  0.103042  0  1.071689  0  0  0.101418  0.095972  0  1.078829  0
H  H3  1  0.09322099  0.87828849  0.57319119  1  0  0.095066  0  0.999784  0  0  0.099101  0  1.075616  0  0  0.103096  0  1.071619  0  0  0.101425  0.09605  0  1.078751  0
H  H4  1  0.15480917  0.90861735  0.35962790  1  0  0.096296  0  0.956659  0  0  0.108164  0  1.018406  0  0  0.111398  0  1.016561  0  0  0.102713  0.105868  0  1.019754  0
H  H5  1  0.84520458  0.09137333  0.64035631  1  0  0.09636  0  0.956731  0  0  0.108123  0  1.018597  0  0  0.111369  0  1.016745  0  0  0.102709  0.105839  0  1.019926  0
H  H6  1  0.64090373  0.89512580  0.13032104  1  0  0.091118  0  0.970922  0  0  0.101585  0  1.032921  0  0  0.104353  0  1.032314  0  0  0.098614  0.099789  0  1.032881  0
H  H7  1  0.35909455  0.10488747  0.86967008  1  0  0.091006  0  0.971106  0  0  0.101528  0  1.033052  0  0  0.104294  0  1.032446  0  0  0.098609  0.099738  0  1.033002  0
H  H8  1  0.39023096  0.10613737  0.20025189  1  0  0.090272  0  0.990961  0  0  0.098178  0  1.059682  0  0  0.100701  0  1.059035  0  0  0.099093  0.09622  0  1.060345  0
H  H9  1  0.60977197  0.89387011  0.79974877  1  0  0.090224  0  0.991029  0  0  0.098143  0  1.059727  0  0  0.100666  0  1.059081  0  0  0.099092  0.096186  0  1.060397  0
H  H10  1  0.24234357  0.79419433  0.13230685  1  0  0.08963  0  0.911611  0  0  0.109036  0  0.969616  0  0  0.109361  0  0.969067  0  0  0.116674  0.108392  0  0.969683  0
H  H11  1  0.75766970  0.20582263  0.86766132  1  0  0.089643  0  0.911818  0  0  0.108995  0  0.969788  0  0  0.109325  0  0.969235  0  0  0.116625  0.108344  0  0.96985  0
H  H12  1  0.12189107  0.66973010  0.29418484  1  0  0.091237  0  0.948601  0  0  0.09304  0  1.039085  0  0  0.097059  0  1.032433  0  0  0.114127  0.089912  0  1.043159  0
H  H13  1  0.87812637  0.33028446  0.70579288  1  0  0.091206  0  0.948641  0  0  0.093007  0  1.039009  0  0  0.097028  0  1.032363  0  0  0.114039  0.089877  0  1.043071  0
H  H14  1  0.07380455  0.80592200  0.92534386  1  0  0.097823  0  1.008338  0  0  0.10676  0  1.077493  0  0  0.107275  0  1.078649  0  0  0.114367  0.106234  0  1.076223  0
H  H15  1  0.92614252  0.19405744  0.07463493  1  0  0.098037  0  1.008177  0  0  0.10682  0  1.077466  0  0  0.107338  0  1.078618  0  0  0.114377  0.106289  0  1.076195  0
H  H16  1  0.74496903  0.64882219  0.89051695  1  0  0.125278  0  0.987957  0  0  0.130009  0  1.054505  0  0  0.133296  0  1.053785  0  0  0.104375  0.127682  0  1.055159  0
H  H17  1  0.25492597  0.35115653  0.10951927  1  0  0.125256  0  0.988118  0  0  0.130008  0  1.054654  0  0  0.133297  0  1.053933  0  0  0.10434  0.127675  0  1.055302  0
H  H18  1  0.55678703  0.47741972  0.15565199  1  0  0.094827  0  0.963109  0  0  0.107728  0  1.019077  0  0  0.108931  0  1.019206  0  0  0.11638  0.106662  0  1.019116  0
H  H19  1  0.44312747  0.52259153  0.84440983  1  0  0.094653  0  0.963292  0  0  0.107613  0  1.019206  0  0  0.108814  0  1.019333  0  0  0.116338  0.10655  0  1.019252  0
C  C20  1  0.62872883  0.12806679  0.32021675  1  0  6.7e-05  0  3.797004  0  0  0.018765  0  4.027271  0  0  0.016574  0  4.049848  0  0  -0.009208  0.019722  0  4.01229  0
C  C21  1  0.37129850  0.87192023  0.67978739  1  0  0.000164  0  3.79712  0  0  0.018825  0  4.027487  0  0  0.016632  0  4.050058  0  0  -0.009178  0.019789  0  4.012523  0
C  C22  1  0.84628009  0.07167530  0.36318349  1  0  -0.071495  0  3.71405  0  0  -0.096794  0  3.966516  0  0  -0.096851  0  3.985154  0  0  -0.082836  -0.097159  0  3.955019  0
C  C23  1  0.15374022  0.92832097  0.63680668  1  0  -0.071803  0  3.713978  0  0  -0.097053  0  3.966446  0  0  -0.097087  0  3.985103  0  0  -0.082883  -0.09742  0  3.954961  0
C  C24  1  0.98744595  0.95264673  0.32368992  1  0  -0.112776  0  3.727052  0  0  -0.129799  0  3.969955  0  0  -0.134195  0  3.992323  0  0  -0.091202  -0.127405  0  3.956117  0
C  C25  1  0.01255577  0.04735410  0.67629868  1  0  -0.112878  0  3.726928  0  0  -0.129815  0  3.969886  0  0  -0.134228  0  3.99224  0  0  -0.09125  -0.127433  0  3.956066  0
C  C26  1  0.91623195  0.88683725  0.24028511  1  0  0.077092  0  3.735157  0  0  0.096938  0  3.9754  0  0  0.098044  0  3.997561  0  0  -0.012517  0.095915  0  3.959434  0
C  C27  1  0.08378817  0.11316017  0.75970381  1  0  0.077372  0  3.735349  0  0  0.097071  0  3.975636  0  0  0.098178  0  3.997808  0  0  -0.012427  0.096046  0  3.959665  0
C  C28  1  0.70027339  0.94431137  0.19557813  1  0  -0.130166  0  3.766232  0  0  -0.151542  0  4.015669  0  0  -0.154387  0  4.035432  0  0  -0.101054  -0.149379  0  4.001505  0
C  C29  1  0.29972113  0.05570304  0.80441224  1  0  -0.130088  0  3.766502  0  0  -0.151522  0  4.016024  0  0  -0.154368  0  4.035789  0  0  -0.10106  -0.149362  0  4.001854  0
C  C30  1  0.55846239  0.06328486  0.23478754  1  0  -0.100876  0  3.756589  0  0  -0.120501  0  4.002305  0  0  -0.121114  0  4.02159  0  0  -0.092057  -0.119714  0  3.989258  0
C  C31  1  0.44155512  0.93671930  0.76520545  1  0  -0.100768  0  3.75632  0  0  -0.120381  0  4.002084  0  0  -0.120991  0  4.021366  0  0  -0.092024  -0.1196  0  3.989042  0
C  C32  1  0.46623716  0.24470694  0.36756138  1  0  0.255554  0  3.789543  0  0  0.236838  0  4.052689  0  0  0.24416  0  4.071629  0  0  0.209723  0.231956  0  4.039896  0
C  C33  1  0.53378812  0.75529483  0.63244160  1  0  0.255617  0  3.789391  0  0  0.236781  0  4.052754  0  0  0.244099  0  4.071691  0  0  0.209677  0.2319  0  4.039991  0
C  C34  1  0.07379330  0.75593382  0.20204761  1  0  -0.058926  0  3.664513  0  0  -0.140413  0  3.917315  0  0  -0.126792  0  3.928981  0  0  -0.04391  -0.142689  0  3.911771  0
C  C35  1  0.92621010  0.24406493  0.79792626  1  0  -0.058949  0  3.664556  0  0  -0.140191  0  3.916958  0  0  -0.126614  0  3.928609  0  0  -0.043715  -0.142434  0  3.911378  0
C  C36  1  0.95473891  0.72533748  0.00016898  1  0  -0.009224  0  3.681995  0  0  -0.065867  0  3.934761  0  0  -0.047625  0  3.955428  0  0  0.015124  -0.070581  0  3.922853  0
C  C37  1  0.04521706  0.27464731  0.99983438  1  0  -0.009474  0  3.68129  0  0  -0.066005  0  3.934126  0  0  -0.047804  0  3.954781  0  0  0.015048  -0.070709  0  3.922214  0
C  C38  1  0.78409575  0.64625100  0.98637752  1  0  -0.207796  0  3.7973  0  0  -0.221682  0  4.065777  0  0  -0.230665  0  4.083194  0  0  -0.121516  -0.215486  0  4.051643  0
C  C39  1  0.21586605  0.35374821  0.01365010  1  0  -0.20812  0  3.796839  0  0  -0.222022  0  4.065286  0  0  -0.231016  0  4.082722  0  0  -0.121645  -0.215816  0  4.051151  0
C  C40  1  0.69059598  0.55843070  0.12031427  1  0  0.042559  0  3.738262  0  0  0.00325  0  4.012401  0  0  0.010805  0  4.024221  0  0  0.009184  -0.001021  0  4.002332  0
C  C41  1  0.30937354  0.44156400  0.87971075  1  0  0.043289  0  3.73833  0  0  0.003947  0  4.012414  0  0  0.011507  0  4.024241  0  0  0.009482  -0.00032  0  4.002367  0
N  N42  1  0.50875696  0.33526891  0.43491260  1  0  -0.278616  0  3.154061  0  0  -0.229404  0  3.472363  0  0  -0.235109  0  3.473332  0  0  -0.262939  -0.226641  0  3.471682  0
N  N43  1  0.49127694  0.66472264  0.56509215  1  0  -0.278504  0  3.154015  0  0  -0.229241  0  3.472307  0  0  -0.234921  0  3.473242  0  0  -0.262844  -0.226489  0  3.471706  0
N  N44  1  0.29433709  0.41277173  0.46542403  1  0  -0.086276  0  3.22383  0  0  -0.045504  0  3.553515  0  0  -0.040384  0  3.549095  0  0  -0.161959  -0.049918  0  3.55712  0
N  N45  1  0.70569291  0.58722315  0.53458595  1  0  -0.086242  0  3.224116  0  0  -0.045419  0  3.553769  0  0  -0.040331  0  3.549399  0  0  -0.161921  -0.049813  0  3.557321  0
N  N46  1  0.13291055  0.37180558  0.41543041  1  0  -0.078705  0  3.310371  0  0  -0.033217  0  3.644176  0  0  -0.029556  0  3.643017  0  0  -0.155228  -0.036538  0  3.645315  0
N  N47  1  0.86711541  0.62819269  0.58458009  1  0  -0.078766  0  3.310462  0  0  -0.033322  0  3.644287  0  0  -0.029639  0  3.643091  0  0  -0.155209  -0.036651  0  3.645506  0
N  N48  1  0.23640346  0.26891786  0.35316768  1  0  -0.292298  0  2.989162  0  0  -0.266032  0  3.265756  0  0  -0.276313  0  3.278824  0  0  -0.217985  -0.258442  0  3.256686  0
N  N49  1  0.76362182  0.73108391  0.64683530  1  0  -0.2924  0  2.98914  0  0  -0.266088  0  3.265799  0  0  -0.276366  0  3.278849  0  0  -0.218127  -0.258491  0  3.256756  0
N  N50  1  0.95913759  0.68286141  0.13554818  1  0  0.053849  0  3.567903  0  0  0.177076  0  3.73789  0  0  0.135483  0  3.802859  0  0  -0.153765  0.184594  0  3.719855  0
N  N51  1  0.04087011  0.31713489  0.86443996  1  0  0.053826  0  3.567684  0  0  0.177072  0  3.737497  0  0  0.135592  0  3.802358  0  0  -0.15372  0.184574  0  3.71949  0
N  N52  1  0.79585565  0.58127732  0.21131999  1  0  -0.238222  0  3.176822  0  0  -0.203596  0  3.485581  0  0  -0.198705  0  3.497182  0  0  -0.26975  -0.20184  0  3.481008  0
N  N53  1  0.20414475  0.41873793  0.78869291  1  0  -0.238521  0  3.17706  0  0  -0.203955  0  3.485881  0  0  -0.199091  0  3.497429  0  0  -0.269956  -0.2022  0  3.481385  0
