# generated using pymatgen
data_CdH12(C7O3)2
_symmetry_space_group_name_H-M   'P 1'
_cell_length_a   5.73346831
_cell_length_b   7.69796041
_cell_length_c   29.14100000
_cell_angle_alpha   90.00000000
_cell_angle_beta   90.00000000
_cell_angle_gamma   90.00000000
_symmetry_Int_Tables_number   1
_chemical_formula_structural   CdH12(C7O3)2
_chemical_formula_sum   'Cd4 H48 C56 O24'
_cell_volume   1286.16752795
_cell_formula_units_Z   4
loop_
 _symmetry_equiv_pos_site_id
 _symmetry_equiv_pos_as_xyz
  1  'x, y, z'
loop_
 _atom_site_type_symbol
 _atom_site_label
 _atom_site_symmetry_multiplicity
 _atom_site_fract_x
 _atom_site_fract_y
 _atom_site_fract_z
 _atom_site_occupancy
 _atom_site_hle17_bader_spin_density
 _atom_site_hle17_ddec_charge
 _atom_site_hle17_ddec_spin_density
 _atom_site_hle17_ddec_sum_bond_order
 _atom_site_hle17_magmom
 _atom_site_hse06_10hf_bader_spin_density
 _atom_site_hse06_10hf_ddec_charge
 _atom_site_hse06_10hf_ddec_spin_density
 _atom_site_hse06_10hf_ddec_sum_bond_order
 _atom_site_hse06_10hf_magmom
 _atom_site_hse06_bader_spin_density
 _atom_site_hse06_ddec_charge
 _atom_site_hse06_ddec_spin_density
 _atom_site_hse06_ddec_sum_bond_order
 _atom_site_hse06_magmom
 _atom_site_pbe_bader_charge
 _atom_site_pbe_bader_spin_density
 _atom_site_pbe_cm5_charge
 _atom_site_pbe_ddec_charge
 _atom_site_pbe_ddec_spin_density
 _atom_site_pbe_ddec_sum_bond_order
 _atom_site_pbe_magmom
Cd  Cd0  1  0.46347688  0.94327973  0.24999108  1  0  1.235381  0  1.547918  0  0  1.065234  0  1.97157  0  0  1.12518  0  1.912973  0  1.305214  0  0.75998  1.022376  0  2.011855  0
Cd  Cd1  1  0.03653635  0.44326806  0.75001167  1  0  1.235328  0  1.548038  0  0  1.065182  0  1.971695  0  0  1.125128  0  1.913096  0  1.304707  0  0.759945  1.022324  0  2.011975  0
Cd  Cd2  1  0.96347441  0.55672539  0.25001167  1  0  1.235344  0  1.548018  0  0  1.065206  0  1.971682  0  0  1.125148  0  1.913085  0  1.305032  0  0.759959  1.022347  0  2.011964  0
Cd  Cd3  1  0.53653562  0.05670853  0.74998971  1  0  1.235394  0  1.547895  0  0  1.065262  0  1.971545  0  0  1.125199  0  1.912949  0  1.305273  0  0.759984  1.022406  0  2.01183  0
H  H4  1  0.48570601  0.59248031  0.27684088  1  0  0.441617  0  0.853971  0  0  0.408367  0  0.921537  0  0  0.419763  0  0.905379  0  0.655841  0  0.300463  0.400347  0  0.932867  0
H  H5  1  0.01430897  0.09245956  0.72315947  1  0  0.441516  0  0.854124  0  0  0.408209  0  0.921753  0  0  0.419608  0  0.905594  0  0.654185  0  0.30043  0.400191  0  0.93308  0
H  H6  1  0.98570354  0.90753519  0.22316152  1  0  0.441556  0  0.854043  0  0  0.408281  0  0.921657  0  0  0.419677  0  0.9055  0  0.654273  0  0.300424  0.400263  0  0.932984  0
H  H7  1  0.51429254  0.40751054  0.77683916  1  0  0.441606  0  0.853902  0  0  0.408329  0  0.921574  0  0  0.419724  0  0.905417  0  0.655932  0  0.300456  0.400309  0  0.932904  0
H  H8  1  0.51427859  0.40752613  0.72318555  1  0  0.442116  0  0.853484  0  0  0.40872  0  0.92106  0  0  0.420107  0  0.904916  0  0.65499  0  0.300709  0.400705  0  0.932384  0
H  H9  1  0.98571400  0.90755208  0.27681480  1  0  0.442012  0  0.853606  0  0  0.408619  0  0.921215  0  0  0.42001  0  0.905066  0  0.65488  0  0.30064  0.400603  0  0.932542  0
H  H10  1  0.01430199  0.09243357  0.77681205  1  0  0.441999  0  0.853606  0  0  0.408602  0  0.921237  0  0  0.419999  0  0.905078  0  0.65488  0  0.300654  0.400585  0  0.932565  0
H  H11  1  0.48571298  0.59245563  0.22318692  1  0  0.442135  0  0.853404  0  0  0.408721  0  0.92107  0  0  0.420112  0  0.904919  0  0.654945  0  0.300692  0.400705  0  0.932396  0
H  H12  1  0.29688313  0.27728514  0.27649429  1  0  0.431574  0  0.866084  0  0  0.402249  0  0.926637  0  0  0.412807  0  0.911308  0  0.648183  0  0.296907  0.394766  0  0.937511  0
H  H13  1  0.20313882  0.77725653  0.72350537  1  0  0.431594  0  0.86603  0  0  0.402265  0  0.926581  0  0  0.412821  0  0.911261  0  0.649722  0  0.29683  0.394781  0  0.937457  0
H  H14  1  0.79687194  0.22273172  0.22350915  1  0  0.43164  0  0.866039  0  0  0.402319  0  0.92657  0  0  0.412873  0  0.911253  0  0.648284  0  0.29692  0.394835  0  0.937446  0
H  H15  1  0.70312240  0.72271611  0.77649326  1  0  0.431604  0  0.866067  0  0  0.40228  0  0.926615  0  0  0.412841  0  0.911282  0  0.648181  0  0.296918  0.394797  0  0.93749  0
H  H16  1  0.70313635  0.72268623  0.72352802  1  0  0.431619  0  0.866093  0  0  0.402331  0  0.926558  0  0  0.412885  0  0.911238  0  0.648125  0  0.296862  0.394848  0  0.937432  0
H  H17  1  0.79688066  0.22270055  0.27647404  1  0  0.431545  0  0.8662  0  0  0.402275  0  0.926625  0  0  0.412829  0  0.911308  0  0.648291  0  0.296895  0.394791  0  0.937499  0
H  H18  1  0.20312836  0.77729031  0.77647267  1  0  0.431578  0  0.866128  0  0  0.402286  0  0.926601  0  0  0.412841  0  0.911285  0  0.648173  0  0.296856  0.394802  0  0.937478  0
H  H19  1  0.29687615  0.27731112  0.22352802  1  0  0.431539  0  0.866189  0  0  0.402291  0  0.926569  0  0  0.41284  0  0.911262  0  0.648126  0  0.296894  0.394808  0  0.937443  0
H  H20  1  0.06552753  0.12374057  0.36617481  1  0  0.102912  0  0.943925  0  0  0.110828  0  1.007095  0  0  0.114156  0  1.004994  0  0.097239  0  0.102312  0.108473  0  1.008513  0
H  H21  1  0.43448047  0.62371976  0.63382760  1  0  0.102963  0  0.943871  0  0  0.110925  0  1.006996  0  0  0.11425  0  1.004899  0  0.096946  0  0.102336  0.108572  0  1.008415  0
H  H22  1  0.56552506  0.37632566  0.13382451  1  0  0.10307  0  0.943814  0  0  0.110926  0  1.007024  0  0  0.11425  0  1.004928  0  0.102834  0  0.102354  0.108572  0  1.008446  0
H  H23  1  0.93446928  0.87626327  0.86617721  1  0  0.102997  0  0.943877  0  0  0.110878  0  1.007067  0  0  0.114204  0  1.004966  0  0.097294  0  0.102349  0.108522  0  1.008487  0
H  H24  1  0.93456521  0.87634771  0.63379603  1  0  0.102807  0  0.944159  0  0  0.110627  0  1.007363  0  0  0.113949  0  1.00527  0  0.097813  0  0.102155  0.108279  0  1.00879  0
H  H25  1  0.56545704  0.37639061  0.36619814  1  0  0.102767  0  0.94425  0  0  0.110609  0  1.007432  0  0  0.113932  0  1.005336  0  0.103691  0  0.1022  0.10826  0  1.008863  0
H  H26  1  0.43451535  0.62359375  0.86619402  1  0  0.10288  0  0.944177  0  0  0.110722  0  1.007351  0  0  0.114047  0  1.005254  0  0.104534  0  0.102269  0.108373  0  1.008781  0
H  H27  1  0.06545602  0.12363015  0.13380049  1  0  0.102818  0  0.944325  0  0  0.110642  0  1.00751  0  0  0.113964  0  1.005418  0  0.103613  0  0.102165  0.108295  0  1.008937  0
H  H28  1  0.22863473  0.14235069  0.44344497  1  0  0.08782  0  0.987675  0  0  0.097407  0  1.052677  0  0  0.099492  0  1.05352  0  0.079544  0  0.096997  0.095579  0  1.052921  0
H  H29  1  0.27136803  0.64233508  0.55655468  1  0  0.08783  0  0.987643  0  0  0.097412  0  1.052659  0  0  0.099517  0  1.053456  0  0.079686  0  0.09699  0.095579  0  1.052908  0
H  H30  1  0.72860261  0.35768825  0.05654988  1  0  0.087941  0  0.987543  0  0  0.097568  0  1.052529  0  0  0.099655  0  1.053357  0  0.079927  0  0.097093  0.095797  0  1.052714  0
H  H31  1  0.77136556  0.85766354  0.94344841  1  0  0.087827  0  0.98756  0  0  0.0974  0  1.052594  0  0  0.099497  0  1.053412  0  0.079755  0  0.09697  0.095569  0  1.05284  0
H  H32  1  0.77146323  0.85773889  0.55652757  1  0  0.087988  0  0.987222  0  0  0.097646  0  1.052143  0  0  0.099712  0  1.053034  0  0.07991  0  0.097114  0.095866  0  1.052336  0
H  H33  1  0.72857471  0.35775970  0.44346831  1  0  0.087838  0  0.987213  0  0  0.097481  0  1.052217  0  0  0.099549  0  1.053104  0  0.079713  0  0.09705  0.095701  0  1.052405  0
H  H34  1  0.27139245  0.64222076  0.94346351  1  0  0.087893  0  0.987339  0  0  0.097528  0  1.052325  0  0  0.099601  0  1.053199  0  0.07977  0  0.097085  0.095751  0  1.052516  0
H  H35  1  0.22856497  0.14225586  0.05653032  1  0  0.08791  0  0.987112  0  0  0.09756  0  1.052081  0  0  0.099626  0  1.05297  0  0.079661  0  0.097067  0.095781  0  1.052272  0
H  H36  1  0.63614898  0.85535904  0.49564428  1  0  0.086472  0  0.9867  0  0  0.096824  0  1.050582  0  0  0.099281  0  1.050654  0  0.064418  0  0.096522  0.09513  0  1.050587  0
H  H37  1  0.86388722  0.35536296  0.50435538  1  0  0.086555  0  0.986501  0  0  0.096938  0  1.050336  0  0  0.099395  0  1.050409  0  0.064385  0  0.096554  0.095235  0  1.050354  0
H  H38  1  0.13607122  0.64464088  0.00435366  1  0  0.086572  0  0.986554  0  0  0.096952  0  1.050384  0  0  0.099399  0  1.05047  0  0.064009  0  0.096521  0.095252  0  1.050407  0
H  H39  1  0.36388620  0.14463571  0.99564325  1  0  0.08648  0  0.986731  0  0  0.09689  0  1.05052  0  0  0.099353  0  1.050589  0  0.064445  0  0.096499  0.095179  0  1.050554  0
H  H40  1  0.36390190  0.14481109  0.50433341  1  0  0.086422  0  0.986557  0  0  0.096844  0  1.050346  0  0  0.099314  0  1.050425  0  0.06226  0  0.096441  0.095123  0  1.05039  0
H  H41  1  0.13617586  0.64484613  0.49566659  1  0  0.086599  0  0.986651  0  0  0.09701  0  1.05041  0  0  0.099469  0  1.050484  0  0.064019  0  0.09658  0.095297  0  1.050447  0
H  H42  1  0.86380525  0.35515381  0.99566418  1  0  0.086603  0  0.986536  0  0  0.096983  0  1.050334  0  0  0.099452  0  1.050412  0  0.062308  0  0.096619  0.095262  0  1.050383  0
H  H43  1  0.63612281  0.85519406  0.00433547  1  0  0.086429  0  0.986611  0  0  0.096874  0  1.050354  0  0  0.099343  0  1.050434  0  0.062414  0  0.096483  0.095155  0  1.050395  0
H  H44  1  0.47073078  0.84642810  0.41804811  1  0  0.099641  0  0.971342  0  0  0.106501  0  1.03873  0  0  0.108805  0  1.038813  0  0.085968  0  0.101547  0.10456  0  1.039363  0
H  H45  1  0.02928071  0.34642553  0.58195360  1  0  0.099806  0  0.971287  0  0  0.106643  0  1.038682  0  0  0.108946  0  1.038763  0  0.086182  0  0.101601  0.104714  0  1.039267  0
H  H46  1  0.97069866  0.65360819  0.08195429  1  0  0.099747  0  0.971124  0  0  0.106605  0  1.038472  0  0  0.108912  0  1.038549  0  0.085924  0  0.101546  0.104647  0  1.039124  0
H  H47  1  0.52928521  0.15355496  0.91804640  1  0  0.099689  0  0.971221  0  0  0.106537  0  1.038653  0  0  0.108841  0  1.038734  0  0.086046  0  0.101536  0.104601  0  1.039247  0
H  H48  1  0.52929568  0.15374852  0.58193919  1  0  0.099722  0  0.971251  0  0  0.106569  0  1.038569  0  0  0.108878  0  1.038641  0  0.085279  0  0.101537  0.104615  0  1.039224  0
H  H49  1  0.97075970  0.65380825  0.41806733  1  0  0.099706  0  0.971374  0  0  0.106549  0  1.038683  0  0  0.108859  0  1.038755  0  0.084935  0  0.101564  0.104596  0  1.039341  0
H  H50  1  0.02921966  0.34620079  0.91806458  1  0  0.099642  0  0.971516  0  0  0.106508  0  1.038773  0  0  0.108818  0  1.038846  0  0.085257  0  0.101549  0.104566  0  1.039432  0
H  H51  1  0.47072729  0.84624623  0.08193645  1  0  0.099661  0  0.971451  0  0  0.106518  0  1.038742  0  0  0.108825  0  1.038816  0  0.085072  0  0.101537  0.10457  0  1.039389  0
C  C52  1  0.65862577  0.97324481  0.33938403  1  0  0.658234  0  3.882832  0  0  0.606135  0  4.172575  0  0  0.641073  0  4.165962  0  1.542491  0  0.208185  0.58251  0  4.17607  0
C  C53  1  0.84136682  0.47321755  0.66061631  1  0  0.658419  0  3.882962  0  0  0.606369  0  4.172593  0  0  0.641306  0  4.165977  0  1.542626  0  0.208375  0.582743  0  4.176095  0
C  C54  1  0.15863871  0.52680707  0.16061666  1  0  0.658273  0  3.882843  0  0  0.606185  0  4.172542  0  0  0.641123  0  4.16593  0  1.542758  0  0.208365  0.582559  0  4.176036  0
C  C55  1  0.34137278  0.02674864  0.83938540  1  0  0.658126  0  3.883198  0  0  0.606015  0  4.172934  0  0  0.640956  0  4.16632  0  1.542138  0  0.208113  0.582389  0  4.176435  0
C  C56  1  0.34142510  0.02683828  0.66058989  1  0  0.658164  0  3.883043  0  0  0.606015  0  4.172875  0  0  0.640959  0  4.166259  0  1.507152  0  0.208314  0.582386  0  4.176369  0
C  C57  1  0.15857941  0.52689411  0.33940977  1  0  0.65806  0  3.882854  0  0  0.605918  0  4.172703  0  0  0.640864  0  4.166094  0  1.507156  0  0.208258  0.582294  0  4.176192  0
C  C58  1  0.84139647  0.47311493  0.83940771  1  0  0.658386  0  3.882416  0  0  0.606283  0  4.17219  0  0  0.641232  0  4.165576  0  1.506801  0  0.208367  0.582655  0  4.175686  0
C  C59  1  0.65859438  0.97314738  0.16059401  1  0  0.657992  0  3.882861  0  0  0.605975  0  4.172538  0  0  0.640921  0  4.165921  0  1.506825  0  0.208298  0.582347  0  4.17603  0
C  C60  1  0.75592988  0.98468030  0.38671734  1  0  -0.068834  0  3.750063  0  0  -0.046543  0  3.985572  0  0  -0.055713  0  4.008121  0  -0.080422  0  -0.017299  -0.040623  0  3.970166  0
C  C61  1  0.74407841  0.48466734  0.61328541  1  0  -0.068877  0  3.750136  0  0  -0.046595  0  3.985632  0  0  -0.055765  0  4.008179  0  -0.080565  0  -0.017338  -0.040673  0  3.970226  0
C  C62  1  0.25592711  0.51536378  0.11328541  1  0  -0.068771  0  3.750299  0  0  -0.046501  0  3.985772  0  0  -0.055675  0  4.008324  0  -0.079834  0  -0.017349  -0.040574  0  3.970354  0
C  C63  1  0.24407216  0.01531055  0.88671425  1  0  -0.068897  0  3.750177  0  0  -0.046609  0  3.985702  0  0  -0.055784  0  4.008248  0  -0.080551  0  -0.017376  -0.040689  0  3.970299  0
C  C64  1  0.24414367  0.01542876  0.61325967  1  0  -0.068873  0  3.75021  0  0  -0.046618  0  3.985666  0  0  -0.055787  0  4.008206  0  -0.045082  0  -0.017379  -0.040693  0  3.970258  0
C  C65  1  0.25588874  0.51545991  0.38674136  1  0  -0.069009  0  3.750643  0  0  -0.046689  0  3.986011  0  0  -0.055868  0  4.00856  0  -0.044779  0  -0.01727  -0.040766  0  3.970601  0
C  C66  1  0.74407318  0.48454653  0.88673793  1  0  -0.069246  0  3.750564  0  0  -0.046943  0  3.985977  0  0  -0.056118  0  4.008523  0  -0.045164  0  -0.017264  -0.041017  0  3.970571  0
C  C67  1  0.75587755  0.98456599  0.11325864  1  0  -0.068718  0  3.75037  0  0  -0.046481  0  3.985756  0  0  -0.055648  0  4.0083  0  -0.04501  0  -0.01725  -0.040559  0  3.970344  0
C  C68  1  0.96999751  0.06744384  0.39483992  1  0  -0.046792  0  3.713028  0  0  -0.073428  0  3.966384  0  0  -0.071801  0  3.985357  0  0.010439  0  -0.078577  -0.074014  0  3.953125  0
C  C69  1  0.53001775  0.56741913  0.60516077  1  0  -0.046938  0  3.713003  0  0  -0.073618  0  3.966376  0  0  -0.071991  0  3.985353  0  0.011405  0  -0.078683  -0.074208  0  3.953124  0
C  C70  1  0.46996335  0.43261459  0.10516008  1  0  -0.047019  0  3.713309  0  0  -0.073589  0  3.966695  0  0  -0.071957  0  3.985668  0  0.004653  0  -0.078687  -0.074189  0  3.953459  0
C  C71  1  0.03000801  0.93256130  0.89484026  1  0  -0.046775  0  3.713079  0  0  -0.07338  0  3.96644  0  0  -0.071748  0  3.985412  0  0.010491  0  -0.078544  -0.07397  0  3.95319  0
C  C72  1  0.03008301  0.93264314  0.60513263  1  0  -0.046617  0  3.713016  0  0  -0.073101  0  3.966313  0  0  -0.071466  0  3.985278  0  0.010997  0  -0.078431  -0.07371  0  3.953091  0
C  C73  1  0.46992150  0.43268734  0.39486428  1  0  -0.046585  0  3.713242  0  0  -0.073123  0  3.96657  0  0  -0.071478  0  3.985534  0  0.004651  0  -0.078542  -0.073738  0  3.953346  0
C  C74  1  0.53005438  0.56730351  0.89486085  1  0  -0.046619  0  3.71354  0  0  -0.073177  0  3.9669  0  0  -0.071534  0  3.985863  0  0.004051  0  -0.078629  -0.073793  0  3.953678  0
C  C75  1  0.96993124  0.06733472  0.10513538  1  0  -0.046737  0  3.713443  0  0  -0.073246  0  3.966766  0  0  -0.071612  0  3.985734  0  0.004778  0  -0.078481  -0.073854  0  3.953538  0
C  C76  1  0.06267411  0.07579280  0.43890635  1  0  -0.115858  0  3.720802  0  0  -0.133208  0  3.970526  0  0  -0.137528  0  3.991739  0  -0.100891  0  -0.088266  -0.130347  0  3.956691  0
C  C77  1  0.43733738  0.57578368  0.56109399  1  0  -0.115899  0  3.720354  0  0  -0.133286  0  3.970066  0  0  -0.137607  0  3.991277  0  -0.101206  0  -0.088312  -0.130428  0  3.956239  0
C  C78  1  0.56263152  0.42423705  0.06108884  1  0  -0.116151  0  3.720768  0  0  -0.133619  0  3.970557  0  0  -0.137934  0  3.991769  0  -0.100682  0  -0.088464  -0.130799  0  3.956693  0
C  C79  1  0.93733491  0.92421624  0.93890910  1  0  -0.116064  0  3.720769  0  0  -0.133442  0  3.970477  0  0  -0.137767  0  3.991684  0  -0.100972  0  -0.088423  -0.130581  0  3.956647  0
C  C80  1  0.93742386  0.92429158  0.56106517  1  0  -0.116389  0  3.720567  0  0  -0.13383  0  3.970386  0  0  -0.138156  0  3.991588  0  -0.100116  0  -0.088572  -0.13101  0  3.956537  0
C  C81  1  0.56261234  0.42431889  0.43893552  1  0  -0.116299  0  3.720327  0  0  -0.133738  0  3.970214  0  0  -0.138059  0  3.99142  0  -0.099407  0  -0.088498  -0.130912  0  3.956356  0
C  C82  1  0.43735831  0.57567586  0.93893140  1  0  -0.116025  0  3.720257  0  0  -0.13353  0  3.970064  0  0  -0.137837  0  3.991278  0  -0.099408  0  -0.088395  -0.130714  0  3.95621  0
C  C83  1  0.06260608  0.07570057  0.06106860  1  0  -0.116078  0  3.719918  0  0  -0.133527  0  3.969805  0  0  -0.137849  0  3.991006  0  -0.099362  0  -0.088419  -0.130707  0  3.955951  0
C  C84  1  0.94831779  0.99852943  0.47661405  1  0  0.052272  0  3.750095  0  0  0.066954  0  3.979237  0  0  0.06879  0  4.00133  0  -0.057946  0  -0.003604  0.065853  0  3.963875  0
C  C85  1  0.55171841  0.49851906  0.52338424  1  0  0.052145  0  3.75008  0  0  0.066963  0  3.979108  0  0  0.068802  0  4.001212  0  -0.012279  0  -0.003558  0.065864  0  3.963745  0
C  C86  1  0.44825398  0.50148218  0.02338218  1  0  0.052556  0  3.750273  0  0  0.067316  0  3.979246  0  0  0.069169  0  4.001347  0  -0.012247  0  -0.003392  0.066209  0  3.963894  0
C  C87  1  0.05169297  0.00147701  0.97661474  1  0  0.052358  0  3.750152  0  0  0.067142  0  3.97917  0  0  0.068978  0  4.001264  0  -0.05787  0  -0.003524  0.066041  0  3.963808  0
C  C88  1  0.05178192  0.00157314  0.52336021  1  0  0.052632  0  3.749829  0  0  0.06735  0  3.979004  0  0  0.069186  0  4.0011  0  -0.014058  0  -0.003492  0.066249  0  3.963654  0
C  C89  1  0.44826794  0.50158481  0.47663738  1  0  0.05299  0  3.749626  0  0  0.067618  0  3.978847  0  0  0.069433  0  4.00097  0  -0.059882  0  -0.003414  0.066512  0  3.963499  0
C  C90  1  0.55170794  0.49841514  0.97663498  1  0  0.052331  0  3.750168  0  0  0.067194  0  3.979063  0  0  0.068972  0  4.001235  0  -0.060196  0  -0.003565  0.066103  0  3.963694  0
C  C91  1  0.94824802  0.99842680  0.02336056  1  0  0.052499  0  3.749551  0  0  0.067158  0  3.97877  0  0  0.068991  0  4.000868  0  -0.013923  0  -0.003568  0.066061  0  3.963413  0
C  C92  1  0.73223567  0.91698575  0.46787790  1  0  -0.11588  0  3.719118  0  0  -0.132712  0  3.965444  0  0  -0.137293  0  3.986359  0  -0.034514  0  -0.088317  -0.129478  0  3.951121  0
C  C93  1  0.76778309  0.41698448  0.53212244  1  0  -0.115937  0  3.71906  0  0  -0.132836  0  3.965365  0  0  -0.13742  0  3.986281  0  -0.034522  0  -0.088351  -0.129595  0  3.951033  0
C  C94  1  0.23217360  0.58303236  0.03212175  1  0  -0.116044  0  3.719215  0  0  -0.132939  0  3.965488  0  0  -0.137518  0  3.98641  0  -0.034616  0  -0.088344  -0.129704  0  3.951156  0
C  C95  1  0.26778730  0.08301550  0.96787687  1  0  -0.115927  0  3.718958  0  0  -0.132827  0  3.965271  0  0  -0.137416  0  3.986191  0  -0.034837  0  -0.088234  -0.129583  0  3.95093  0
C  C96  1  0.26782742  0.08314410  0.53209705  1  0  -0.115806  0  3.718432  0  0  -0.132676  0  3.964648  0  0  -0.137279  0  3.985578  0  -0.032368  0  -0.088218  -0.12943  0  3.950307  0
C  C97  1  0.23219802  0.58318175  0.46790398  1  0  -0.116202  0  3.718598  0  0  -0.133052  0  3.964807  0  0  -0.137636  0  3.985729  0  -0.034331  0  -0.088371  -0.129808  0  3.95047  0
C  C98  1  0.76776565  0.41682729  0.96790055  1  0  -0.115932  0  3.71879  0  0  -0.132818  0  3.964928  0  0  -0.137403  0  3.985875  0  -0.032384  0  -0.088411  -0.129577  0  3.950591  0
C  C99  1  0.73218509  0.91685844  0.03209773  1  0  -0.115753  0  3.718326  0  0  -0.132615  0  3.964517  0  0  -0.137216  0  3.985448  0  -0.032376  0  -0.088202  -0.129366  0  3.950168  0
C  C100  1  0.63702977  0.91093739  0.42399574  1  0  -0.057968  0  3.725767  0  0  -0.081185  0  3.973913  0  0  -0.079574  0  3.993826  0  0.013255  0  -0.079411  -0.082058  0  3.96092  0
C  C101  1  0.86299771  0.41091664  0.57600597  1  0  -0.058105  0  3.725478  0  0  -0.081302  0  3.973618  0  0  -0.079689  0  3.993525  0  0.013188  0  -0.079442  -0.082167  0  3.96063  0
C  C102  1  0.13699387  0.58910929  0.07600288  1  0  -0.058103  0  3.725469  0  0  -0.081274  0  3.973621  0  0  -0.079658  0  3.993526  0  0.013098  0  -0.079434  -0.082133  0  3.960604  0
C  C103  1  0.36298448  0.08905995  0.92399540  1  0  -0.057924  0  3.725338  0  0  -0.081165  0  3.973511  0  0  -0.079554  0  3.993425  0  0.013509  0  -0.079409  -0.082023  0  3.960514  0
C  C104  1  0.36302808  0.08920285  0.57598504  1  0  -0.058168  0  3.725283  0  0  -0.081263  0  3.973349  0  0  -0.079648  0  3.993254  0  0.013319  0  -0.079477  -0.082128  0  3.960342  0
C  C105  1  0.13700782  0.58924439  0.42402045  1  0  -0.058024  0  3.725788  0  0  -0.081119  0  3.973774  0  0  -0.079504  0  3.993679  0  0.013303  0  -0.079572  -0.081989  0  3.960772  0
C  C106  1  0.86297329  0.41075166  0.92402045  1  0  -0.057958  0  3.725447  0  0  -0.081074  0  3.973463  0  0  -0.079463  0  3.993371  0  0.013564  0  -0.079558  -0.081961  0  3.960479  0
C  C107  1  0.63698791  0.91079580  0.07598607  1  0  -0.058155  0  3.725523  0  0  -0.081271  0  3.973595  0  0  -0.079657  0  3.993503  0  0.013176  0  -0.07957  -0.082138  0  3.960584  0
O  O108  1  0.78921863  0.02425578  0.30549398  1  0  -0.716553  0  2.052307  0  0  -0.638196  0  2.277652  0  0  -0.667321  0  2.264782  0  -1.208618  0  -0.333647  -0.617773  0  2.28585  0
O  O109  1  0.71076873  0.52422587  0.69450637  1  0  -0.716717  0  2.052207  0  0  -0.638358  0  2.277513  0  0  -0.66748  0  2.264637  0  -1.208664  0  -0.333784  -0.617937  0  2.285714  0
O  O110  1  0.28922807  0.47577797  0.19450431  1  0  -0.71656  0  2.052367  0  0  -0.638171  0  2.27765  0  0  -0.667291  0  2.264781  0  -1.208722  0  -0.333713  -0.61775  0  2.285849  0
O  O111  1  0.21077643  0.97573768  0.80549398  1  0  -0.716597  0  2.052289  0  0  -0.638188  0  2.277589  0  0  -0.66732  0  2.264716  0  -1.208312  0  -0.333632  -0.617765  0  2.285788  0
O  O112  1  0.21083573  0.97577795  0.69447617  1  0  -0.716364  0  2.051426  0  0  -0.63796  0  2.276773  0  0  -0.667087  0  2.2639  0  -1.208181  0  -0.333726  -0.617538  0  2.284973  0
O  O113  1  0.28917749  0.47582864  0.30552349  1  0  -0.716282  0  2.051223  0  0  -0.63796  0  2.276629  0  0  -0.667088  0  2.26376  0  -1.207828  0  -0.333704  -0.61754  0  2.284829  0
O  O114  1  0.71081931  0.52418820  0.80552074  1  0  -0.71638  0  2.051504  0  0  -0.638026  0  2.276872  0  0  -0.667152  0  2.264  0  -1.208068  0  -0.333678  -0.617607  0  2.285073  0
O  O115  1  0.78918898  0.02421291  0.19447891  1  0  -0.716317  0  2.051485  0  0  -0.638002  0  2.276819  0  0  -0.667126  0  2.263944  0  -1.208047  0  -0.333719  -0.617584  0  2.285021  0
O  O116  1  0.45437070  0.91651290  0.33249923  1  0  -0.605634  0  1.90655  0  0  -0.542032  0  2.128609  0  0  -0.570686  0  2.121347  0  -1.144528  0  -0.313633  -0.522067  0  2.132878  0
O  O117  1  0.04562160  0.41650643  0.66750283  1  0  -0.605655  0  1.906697  0  0  -0.5421  0  2.128774  0  0  -0.570755  0  2.121514  0  -1.144683  0  -0.313649  -0.522135  0  2.13304  0
O  O118  1  0.95436997  0.58352469  0.16750558  1  0  -0.605747  0  1.906612  0  0  -0.542177  0  2.128691  0  0  -0.570837  0  2.121434  0  -1.144693  0  -0.313686  -0.522204  0  2.132953  0
O  O119  1  0.54562088  0.08346886  0.83249580  1  0  -0.605532  0  1.906801  0  0  -0.541905  0  2.128835  0  0  -0.570557  0  2.121572  0  -1.144591  0  -0.313528  -0.52194  0  2.133101  0
O  O120  1  0.54566622  0.08358058  0.66748533  1  0  -0.605638  0  1.907386  0  0  -0.542057  0  2.129488  0  0  -0.57074  0  2.122255  0  -1.144289  0  -0.313541  -0.522075  0  2.133747  0
O  O121  1  0.95435253  0.58363511  0.33251810  1  0  -0.605547  0  1.90758  0  0  -0.541953  0  2.129658  0  0  -0.570628  0  2.122424  0  -1.144613  0  -0.313513  -0.521954  0  2.133871  0
O  O122  1  0.04566346  0.41637652  0.83251776  1  0  -0.605753  0  1.906952  0  0  -0.54218  0  2.129016  0  0  -0.570866  0  2.121784  0  -1.144442  0  -0.313609  -0.522175  0  2.133222  0
O  O123  1  0.45433930  0.91640378  0.16748567  1  0  -0.605652  0  1.907293  0  0  -0.542082  0  2.129305  0  0  -0.570763  0  2.122069  0  -1.144201  0  -0.31359  -0.522098  0  2.133561  0
O  O124  1  0.56490240  0.65010986  0.25000961  1  0  -0.85596  0  1.966044  0  0  -0.778275  0  2.190765  0  0  -0.807343  0  2.154415  0  -1.244184  0  -0.56821  -0.757767  0  2.21562  0
O  O125  1  0.93512159  0.15009430  0.74998868  1  0  -0.855704  0  1.966234  0  0  -0.778045  0  2.191056  0  0  -0.807078  0  2.154624  0  -1.242202  0  -0.568161  -0.757537  0  2.2159  0
O  O126  1  0.06489615  0.84989915  0.24999211  1  0  -0.855748  0  1.966201  0  0  -0.778086  0  2.190934  0  0  -0.807165  0  2.154617  0  -1.242443  0  -0.568116  -0.757579  0  2.215783  0
O  O127  1  0.43510138  0.34987319  0.75000721  1  0  -0.855894  0  1.966022  0  0  -0.778204  0  2.190811  0  0  -0.807293  0  2.154517  0  -1.244244  0  -0.568256  -0.757698  0  2.215666  0
O  O128  1  0.27158082  0.19851882  0.25000824  1  0  -0.845936  0  1.928757  0  0  -0.783357  0  2.129151  0  0  -0.806773  0  2.094269  0  -1.247171  0  -0.592243  -0.766801  0  2.153503  0
O  O129  1  0.22845160  0.69848631  0.74999314  1  0  -0.846015  0  1.928677  0  0  -0.783384  0  2.129049  0  0  -0.806812  0  2.094153  0  -1.248735  0  -0.59211  -0.76683  0  2.153401  0
O  O130  1  0.77157660  0.30149155  0.24999382  1  0  -0.846003  0  1.92873  0  0  -0.783429  0  2.129203  0  0  -0.80682  0  2.094244  0  -1.247498  0  -0.592263  -0.766876  0  2.153556  0
O  O131  1  0.72842820  0.80147723  0.75000755  1  0  -0.845997  0  1.928646  0  0  -0.78345  0  2.129104  0  0  -0.806849  0  2.094168  0  -1.247168  0  -0.592235  -0.766896  0  2.153454  0
