# generated using pymatgen
data_Mn3H44C50(NO10)2
_symmetry_space_group_name_H-M   'P 1'
_cell_length_a   9.34451204
_cell_length_b   17.35062791
_cell_length_c   17.35085204
_cell_angle_alpha   74.79727470
_cell_angle_beta   78.05234619
_cell_angle_gamma   78.05038314
_symmetry_Int_Tables_number   1
_chemical_formula_structural   Mn3H44C50(NO10)2
_chemical_formula_sum   'Mn6 H88 C100 N4 O40'
_cell_volume   2620.89205953
_cell_formula_units_Z   2
loop_
 _symmetry_equiv_pos_site_id
 _symmetry_equiv_pos_as_xyz
  1  'x, y, z'
loop_
 _atom_site_type_symbol
 _atom_site_label
 _atom_site_symmetry_multiplicity
 _atom_site_fract_x
 _atom_site_fract_y
 _atom_site_fract_z
 _atom_site_occupancy
 _atom_site_pbe_bader_charge
 _atom_site_pbe_bader_spin_density
 _atom_site_pbe_cm5_charge
 _atom_site_pbe_ddec_charge
 _atom_site_pbe_ddec_spin_density
 _atom_site_pbe_ddec_sum_bond_order
 _atom_site_pbe_magmom
Mn  Mn0  1  0.55990668  0.81595094  0.69145034  1  1.533162  4.535862  0.610477  1.046101  4.652737  2.313262  4.46
Mn  Mn1  1  0.94032153  0.30851137  0.18398978  1  1.531944  4.535952  0.610519  1.046002  4.652854  2.313785  4.46
Mn  Mn2  1  0.44017058  0.18399746  0.30856488  1  1.532865  4.535993  0.610429  1.046043  4.652698  2.313127  4.46
Mn  Mn3  1  0.05986871  0.69146239  0.81597147  1  1.532828  4.535946  0.610643  1.046295  4.652738  2.31312  4.46
Mn  Mn4  1  0.50001974  0.99995648  0.50004108  1  1.565142  4.579439  0.624277  1.105212  4.703774  2.20439  4.499
Mn  Mn5  1  0.00009493  0.49999390  0.00000761  1  1.565192  4.579411  0.624287  1.105287  4.703917  2.204288  4.499
H  H6  1  0.40818705  0.67256250  0.71292033  1  0.650163  0.001164  0.300305  0.395993  1.7e-05  0.93176  0.001
H  H7  1  0.09183303  0.28705367  0.32742843  1  0.646771  0.001166  0.300326  0.395915  1.6e-05  0.931878  0.001
H  H8  1  0.59182761  0.32742100  0.28707784  1  0.649191  0.001163  0.300331  0.396058  1.6e-05  0.931678  0.001
H  H9  1  0.90816202  0.71292969  0.67257435  1  0.649609  0.001164  0.300356  0.396057  1.5e-05  0.931664  0.001
H  H10  1  0.44581820  0.71698636  0.62323611  1  0.589395  0.001144  0.320843  0.394992  0.000697  0.890159  0.001
H  H11  1  0.05416132  0.37673503  0.28300202  1  0.589629  0.00114  0.320724  0.394937  0.000697  0.890364  0.001
H  H12  1  0.55414880  0.28300964  0.37676389  1  0.589486  0.001141  0.320735  0.394985  0.000696  0.890099  0.001
H  H13  1  0.94584003  0.62324902  0.71699698  1  0.589625  0.001141  0.320803  0.395048  0.000696  0.890181  0.001
H  H14  1  0.66135526  0.84941717  0.39518725  1  0.130089  0.000204  0.107202  0.109499  -0.000474  1.037653  0.0
H  H15  1  0.83864511  0.60480430  0.15060473  1  0.130294  0.000204  0.107107  0.109304  -0.000474  1.037731  0.0
H  H16  1  0.33864306  0.15057657  0.60480911  1  0.130023  0.000204  0.107218  0.109478  -0.000474  1.037666  0.0
H  H17  1  0.16136102  0.39520376  0.84940331  1  0.13035  0.000204  0.107132  0.109345  -0.000474  1.037632  0.0
H  H18  1  0.99840151  0.71874687  0.53781286  1  0.0859  0.000736  0.104767  0.105832  0.000222  1.022833  0.0
H  H19  1  0.50160451  0.46218000  0.28126716  1  0.085741  0.000735  0.104755  0.105885  0.000222  1.022875  0.0
H  H20  1  0.00158678  0.28125150  0.46219446  1  0.085979  0.000736  0.104783  0.10584  0.000223  1.022892  0.0
H  H21  1  0.49842001  0.53781118  0.71874295  1  0.08574  0.000736  0.104781  0.105864  0.000222  1.022863  0.0
H  H22  1  0.07204972  0.14494454  0.16261138  1  0.101044  0.000622  0.108334  0.099572  0.000644  1.043739  0.0
H  H23  1  0.42792768  0.83740798  0.85504621  1  0.100582  0.000616  0.108406  0.099576  0.000635  1.043602  0.0
H  H24  1  0.92792745  0.85506114  0.83738907  1  0.100618  0.000617  0.108327  0.099542  0.000638  1.043688  0.0
H  H25  1  0.57207314  0.16259542  0.14495034  1  0.100595  0.000618  0.10838  0.099559  0.000638  1.043576  0.0
H  H26  1  0.68535084  0.02954023  0.22830769  1  0.109233  0.000144  0.108837  0.112311  -0.0005  1.021082  0.0
H  H27  1  0.81463803  0.77170150  0.97044473  1  0.109402  0.000144  0.108911  0.11238  -0.000501  1.02117  0.0
H  H28  1  0.31463418  0.97046080  0.77168321  1  0.109371  0.000144  0.108818  0.112341  -0.0005  1.021017  0.0
H  H29  1  0.18536031  0.22830304  0.02955586  1  0.10953  0.000144  0.108889  0.112375  -0.000501  1.02111  0.0
H  H30  1  0.08999913  0.82897767  0.97139593  1  0.120726  0.00024  0.10677  0.129677  -0.000149  1.04286  0.0
H  H31  1  0.40998425  0.02860744  0.17101726  1  0.120621  0.00024  0.106705  0.12958  -0.000148  1.042955  0.0
H  H32  1  0.91000275  0.17101900  0.02860621  1  0.120691  0.00024  0.10675  0.129654  -0.000149  1.042841  0.0
H  H33  1  0.59001165  0.97139053  0.82897833  1  0.120567  0.00024  0.106689  0.12956  -0.000148  1.042921  0.0
H  H34  1  0.98568430  0.85286409  0.60409837  1  0.067664  0.000249  0.110004  0.128385  -0.000176  1.025561  0.0
H  H35  1  0.51431721  0.39590084  0.14714061  1  0.067535  0.000249  0.110081  0.128483  -0.000175  1.025522  0.0
H  H36  1  0.01430752  0.14714039  0.39590472  1  0.067552  0.000249  0.110026  0.128457  -0.000175  1.025626  0.0
H  H37  1  0.48568010  0.60409283  0.85285992  1  0.067757  0.000249  0.110026  0.128435  -0.000175  1.025689  0.0
H  H38  1  0.85354354  0.94147447  0.57818527  1  0.066298  0.000747  0.103945  0.119393  -1.7e-05  1.002333  0.0
H  H39  1  0.64644458  0.42181648  0.05853410  1  0.06649  0.000749  0.103966  0.119446  -1.5e-05  1.002303  0.0
H  H40  1  0.14645461  0.05853067  0.42181519  1  0.06613  0.000746  0.103915  0.119424  -1.7e-05  1.002379  0.0
H  H41  1  0.35353182  0.57818127  0.94147129  1  0.065667  0.000744  0.103921  0.119422  -1.8e-05  1.002301  0.0
H  H42  1  0.88077056  0.90162151  0.68042717  1  0.087686  0.000601  0.107881  0.127409  1.8e-05  0.998882  0.0
H  H43  1  0.61922921  0.31957531  0.09838406  1  0.087365  0.000601  0.107912  0.127431  1.8e-05  0.998812  0.0
H  H44  1  0.11922609  0.09838487  0.31957143  1  0.08733  0.0006  0.107901  0.127428  1.7e-05  0.99886  0.0
H  H45  1  0.38076038  0.68042920  0.90161697  1  0.087249  0.000599  0.107922  0.127498  1.7e-05  0.99888  0.0
H  H46  1  0.06698775  0.61687053  0.16742969  1  0.077117  0.000312  0.111552  0.133697  -8.5e-05  1.01146  0.0
H  H47  1  0.43298984  0.83256151  0.38312223  1  0.076942  0.000311  0.111551  0.133714  -8.5e-05  1.011623  0.0
H  H48  1  0.93303417  0.38313224  0.83257264  1  0.077098  0.000311  0.111586  0.133776  -8.5e-05  1.011586  0.0
H  H49  1  0.56698077  0.16742973  0.61687450  1  0.077185  0.000311  0.11157  0.133753  -8.5e-05  1.011485  0.0
H  H50  1  0.19932246  0.04313480  0.08103090  1  0.112258  5.2e-05  0.105238  0.122542  -3e-05  1.04012  0.0
H  H51  1  0.30067169  0.91898333  0.95686436  1  0.112085  5.2e-05  0.105227  0.12255  -3e-05  1.040075  0.0
H  H52  1  0.80067065  0.95687268  0.91897360  1  0.112162  5.2e-05  0.105254  0.122562  -3e-05  1.040082  0.0
H  H53  1  0.69933559  0.08102378  0.04312822  1  0.112089  5.2e-05  0.105253  0.12256  -3e-05  1.040133  0.0
H  H54  1  0.14745431  0.66981098  0.41784636  1  0.075166  4.4e-05  0.109573  0.125902  1e-06  0.993788  0.0
H  H55  1  0.35254418  0.58215194  0.33018717  1  0.075201  4.4e-05  0.109538  0.125834  1e-06  0.993812  0.0
H  H56  1  0.85255511  0.33019348  0.58216103  1  0.075399  4.4e-05  0.109595  0.125924  1e-06  0.993831  0.0
H  H57  1  0.64746390  0.41784236  0.66981368  1  0.095498  4.5e-05  0.109554  0.125863  1e-06  0.993782  0.0
H  H58  1  0.35762971  0.85673090  0.52312124  1  0.116262  0.000637  0.103874  0.161409  3e-05  1.034921  0.0
H  H59  1  0.14235060  0.47687934  0.14327277  1  0.116092  0.000638  0.103892  0.16141  3.1e-05  1.035098  0.0
H  H60  1  0.64235862  0.14325977  0.47687646  1  0.116168  0.000635  0.103852  0.161418  2.8e-05  1.035133  0.0
H  H61  1  0.85763259  0.52313222  0.85673879  1  0.116349  0.000634  0.103831  0.161377  2.7e-05  1.035058  0.0
H  H62  1  0.17857451  0.85868031  0.50102712  1  0.019314  0.000316  0.096405  0.143685  0.000167  1.022796  0.0
H  H63  1  0.32139564  0.49897207  0.14133555  1  0.018869  0.000317  0.096441  0.143729  0.000167  1.02296  0.0
H  H64  1  0.82140454  0.14132293  0.49897603  1  0.019306  0.000316  0.096414  0.14372  0.000167  1.022912  0.0
H  H65  1  0.67858095  0.50103274  0.85868133  1  0.019434  0.000315  0.09639  0.1436  0.000166  1.022952  0.0
H  H66  1  0.21783200  0.81316339  0.60039453  1  0.079421  0.000603  0.105357  0.160712  -0.000214  1.017576  0.0
H  H67  1  0.28214898  0.39960502  0.18683951  1  0.079461  0.000604  0.105379  0.160776  -0.000213  1.017556  0.0
H  H68  1  0.78215782  0.18683328  0.39960612  1  0.079508  0.000602  0.105371  0.16076  -0.000214  1.017637  0.0
H  H69  1  0.71783439  0.60040548  0.81316249  1  0.079476  0.000602  0.105351  0.160702  -0.000215  1.017493  0.0
H  H70  1  0.07112060  0.84749281  0.21670303  1  0.102139  0.000109  0.111814  0.141627  7.7e-05  1.008252  0.0
H  H71  1  0.42887420  0.78329830  0.15249736  1  0.102403  0.000109  0.111785  0.141618  7.7e-05  1.008084  0.0
H  H72  1  0.92889374  0.15251302  0.78329539  1  0.102081  0.000109  0.111804  0.141655  7.7e-05  1.008237  0.0
H  H73  1  0.57111702  0.21670397  0.84749309  1  0.102224  0.000109  0.111817  0.141648  7.7e-05  1.00812  0.0
H  H74  1  0.80520835  0.79679142  0.27670956  1  0.091771  3.3e-05  0.101268  0.113063  3e-06  1.023694  0.0
H  H75  1  0.69476469  0.72328389  0.20321322  1  0.092235  3.3e-05  0.101208  0.113009  3e-06  1.0238  0.0
H  H76  1  0.19480288  0.20320660  0.72328597  1  0.091553  3.3e-05  0.101292  0.113113  3e-06  1.023668  0.0
H  H77  1  0.30521584  0.27671814  0.79679006  1  0.092233  3.3e-05  0.101238  0.113038  3e-06  1.023835  0.0
H  H78  1  0.81162318  0.92799339  0.14690688  1  0.06919  3.7e-05  0.103944  0.116265  -1.6e-05  1.006368  0.0
H  H79  1  0.68836893  0.85308965  0.07200105  1  0.069297  3.7e-05  0.103934  0.116227  -1.6e-05  1.006548  0.0
H  H80  1  0.18837927  0.07200822  0.85308877  1  0.069151  3.7e-05  0.103924  0.11624  -1.6e-05  1.006357  0.0
H  H81  1  0.31161624  0.14691847  0.92799902  1  0.069557  3.7e-05  0.103873  0.116128  -1.7e-05  1.006504  0.0
H  H82  1  0.09171872  0.06874718  0.62491603  1  0.112708  0.000302  0.105159  0.124318  -0.000173  1.047339  0.0
H  H83  1  0.40824408  0.37509412  0.93126929  1  0.112857  0.000303  0.105181  0.124329  -0.000173  1.047406  0.0
H  H84  1  0.90828256  0.93125855  0.37508623  1  0.112786  0.000302  0.105172  0.124409  -0.000173  1.047355  0.0
H  H85  1  0.59170063  0.62491790  0.06874372  1  0.112854  0.000301  0.105199  0.124484  -0.000173  1.047297  0.0
H  H86  1  0.94819600  0.02305367  0.69724523  1  0.053622  0.00039  0.098819  0.11214  0.000221  1.01669  0.0
H  H87  1  0.55177001  0.30275832  0.97695069  1  0.053914  0.000391  0.098844  0.112244  0.000222  1.016577  0.0
H  H88  1  0.05180115  0.97694779  0.30275857  1  0.053646  0.00039  0.098824  0.112217  0.000221  1.01673  0.0
H  H89  1  0.44818591  0.69724857  0.02304615  1  0.05277  0.000389  0.098809  0.112225  0.00022  1.016709  0.0
H  H90  1  0.91327513  0.07585056  0.59857583  1  0.060386  0.000453  0.09683  0.107319  0.000219  1.017021  0.0
H  H91  1  0.58669205  0.40143065  0.92415442  1  0.06038  0.000454  0.096839  0.107363  0.00022  1.017061  0.0
H  H92  1  0.08672228  0.92415339  0.40142387  1  0.060381  0.000452  0.096812  0.107342  0.000219  1.017147  0.0
H  H93  1  0.41325688  0.59858467  0.07584230  1  0.060743  0.000451  0.09683  0.107366  0.000218  1.017103  0.0
C  C94  1  0.72433995  0.81018954  0.54753297  1  1.513944  0.017048  0.217559  0.576609  0.017146  4.167999  0.014
C  C95  1  0.77567738  0.45244468  0.18982173  1  1.513237  0.01697  0.217569  0.576852  0.017063  4.168077  0.014
C  C96  1  0.27565793  0.18980907  0.45246108  1  1.513403  0.017006  0.217544  0.57663  0.017099  4.16802  0.014
C  C97  1  0.22434596  0.54754611  0.81017478  1  1.513251  0.017037  0.217555  0.576771  0.017125  4.167891  0.014
C  C98  1  0.81853174  0.78643929  0.47456442  1  0.025732  -0.001619  -0.027053  -0.064766  -0.002924  3.996423  -0.002
C  C99  1  0.68147795  0.52541751  0.21358527  1  0.026227  -0.00161  -0.026986  -0.064893  -0.002913  3.996391  -0.002
C  C100  1  0.18146546  0.21356168  0.52543258  1  0.026037  -0.001617  -0.026964  -0.064754  -0.002921  3.996252  -0.002
C  C101  1  0.31853162  0.47457557  0.78641688  1  0.026094  -0.001619  -0.027037  -0.065059  -0.002923  3.996752  -0.002
C  C102  1  0.76698509  0.80914577  0.40006487  1  -0.076147  0.003968  -0.076833  -0.058785  0.002683  3.960893  0.003
C  C103  1  0.73302129  0.59992292  0.19087132  1  -0.076032  0.003948  -0.076757  -0.05842  0.002669  3.960433  0.002
C  C104  1  0.23301833  0.19085280  0.59993259  1  -0.075766  0.003959  -0.076894  -0.058742  0.002677  3.96079  0.002
C  C105  1  0.26698721  0.40007375  0.80913294  1  -0.07624  0.003965  -0.076695  -0.058292  0.002682  3.960699  0.003
C  C106  1  0.95682242  0.73648600  0.48038189  1  -0.040973  0.004409  -0.080743  -0.068417  0.003294  3.981323  0.003
C  C107  1  0.54318625  0.51960347  0.26352725  1  -0.040897  0.004388  -0.080714  -0.068476  0.003278  3.981858  0.003
C  C108  1  0.04317525  0.26351369  0.51961998  1  -0.041054  0.0044  -0.080794  -0.068479  0.003287  3.981534  0.003
C  C109  1  0.45683267  0.48038779  0.73647657  1  -0.040603  0.004406  -0.080694  -0.068345  0.003291  3.981617  0.003
C  C110  1  0.79174785  0.15338395  0.24872744  1  1.566048  0.037861  0.2285  0.605455  0.036626  4.180287  0.033
C  C111  1  0.70823747  0.75128759  0.84660567  1  1.565232  0.03792  0.228488  0.605642  0.036673  4.1801  0.033
C  C112  1  0.20824209  0.84661892  0.75126301  1  1.565035  0.037896  0.22854  0.605361  0.036649  4.180524  0.033
C  C113  1  0.29178008  0.24870796  0.15339436  1  1.565447  0.037987  0.228495  0.605438  0.036741  4.180065  0.034
C  C114  1  0.87066676  0.09336667  0.20047664  1  -0.027002  -0.000475  -0.024411  -0.077258  -0.001588  4.001458  -0.001
C  C115  1  0.62931268  0.79953977  0.90662643  1  -0.026551  -0.000477  -0.024453  -0.077058  -0.00159  4.000952  -0.001
C  C116  1  0.12931981  0.90663671  0.79951868  1  -0.026833  -0.000474  -0.024485  -0.077302  -0.001587  4.00161  -0.001
C  C117  1  0.37069031  0.20046004  0.09336845  1  -0.02664  -0.000486  -0.02443  -0.076933  -0.001599  4.001216  -0.001
C  C118  1  0.01567582  0.09716021  0.15937619  1  -0.079836  0.008165  -0.077377  -0.069969  0.006332  3.988226  0.005
C  C119  1  0.48429903  0.84064184  0.90283582  1  -0.079491  0.008166  -0.077395  -0.069956  0.006332  3.98804  0.005
C  C120  1  0.98430753  0.90284670  0.84062382  1  -0.078764  0.008162  -0.077333  -0.069957  0.00633  3.988137  0.005
C  C121  1  0.51570291  0.15936155  0.09716176  1  -0.07962  0.008187  -0.077312  -0.069878  0.006348  3.988237  0.005
C  C122  1  0.79815232  0.03170179  0.19625771  1  0.002751  0.006933  -0.077763  -0.058257  0.00507  3.961539  0.004
C  C123  1  0.70184109  0.80375308  0.96828784  1  0.003084  0.006945  -0.077838  -0.058461  0.005079  3.961721  0.004
C  C124  1  0.20184080  0.96829801  0.80373602  1  0.002798  0.006938  -0.077679  -0.05814  0.005074  3.96163  0.004
C  C125  1  0.29816335  0.19624916  0.03170685  1  0.002906  0.006958  -0.077772  -0.058618  0.00509  3.961768  0.004
C  C126  1  0.08070096  0.71790197  0.06309247  1  -0.085916  0.003484  -0.017262  -0.000918  0.002157  3.99952  0.002
C  C127  1  0.41928213  0.93691587  0.28209499  1  -0.085987  0.003484  -0.017279  -0.00092  0.002157  3.999418  0.002
C  C128  1  0.91930631  0.28209885  0.93691550  1  -0.085427  0.003482  -0.017378  -0.000979  0.002155  3.999653  0.002
C  C129  1  0.58070554  0.06308030  0.71789912  1  -0.086034  0.003482  -0.017376  -0.001187  0.002156  4.000019  0.002
C  C130  1  0.01297862  0.98045393  0.11024385  1  0.391507  0.006706  0.086634  0.264646  0.005443  4.036164  0.004
C  C131  1  0.48702173  0.88975967  0.01954432  1  0.391223  0.006713  0.086639  0.264625  0.005448  4.036435  0.004
C  C132  1  0.98702349  0.01955607  0.88975552  1  0.39136  0.006709  0.086524  0.264433  0.005445  4.036343  0.004
C  C133  1  0.51299251  0.11023949  0.98045576  1  0.391927  0.00673  0.086506  0.264447  0.005463  4.036456  0.004
C  C134  1  0.08462706  0.80079117  0.03551396  1  0.043434  0.003329  -0.103586  -0.232422  0.002366  3.965176  0.002
C  C135  1  0.41536703  0.96448677  0.19920363  1  0.043854  0.003328  -0.10353  -0.232416  0.002366  3.964927  0.002
C  C136  1  0.91538313  0.19920681  0.96448401  1  0.043301  0.003334  -0.103564  -0.232429  0.00237  3.964975  0.002
C  C137  1  0.58463015  0.03551061  0.80079139  1  0.043348  0.003331  -0.103464  -0.232259  0.002368  3.96483  0.002
C  C138  1  0.93712989  0.91154883  0.61738409  1  0.264236  0.001061  -0.138635  -0.271898  0.000649  3.895175  0.001
C  C139  1  0.56286577  0.38261867  0.08845717  1  0.264955  0.001061  -0.138718  -0.271998  0.00065  3.895173  0.001
C  C140  1  0.06287700  0.08845995  0.38261676  1  0.264916  0.001061  -0.138609  -0.27187  0.000649  3.895069  0.001
C  C141  1  0.43710780  0.61738411  0.91153577  1  0.264974  0.001061  -0.138647  -0.271887  0.000649  3.895002  0.001
C  C142  1  0.07152977  0.68124358  0.14591981  1  0.063224  0.003509  -0.102285  -0.23581  0.002553  3.956077  0.002
C  C143  1  0.42845016  0.85408421  0.31875278  1  0.063632  0.003508  -0.102308  -0.235873  0.002553  3.956213  0.002
C  C144  1  0.92849057  0.31876094  0.85408574  1  0.062603  0.003514  -0.102304  -0.235944  0.002557  3.956405  0.002
C  C145  1  0.57152333  0.14591188  0.68124356  1  0.063165  0.003511  -0.102265  -0.235744  0.002555  3.956114  0.002
C  C146  1  0.07815587  0.66969626  0.00270331  1  1.587566  0.018162  0.228982  0.597823  0.017496  4.179226  0.017
C  C147  1  0.42183377  0.99730445  0.33030123  1  1.587051  0.018158  0.228897  0.597846  0.017488  4.178896  0.017
C  C148  1  0.92185998  0.33030518  0.99730525  1  1.587089  0.018182  0.228954  0.597949  0.017512  4.178671  0.017
C  C149  1  0.57814408  0.00269212  0.66970313  1  1.586997  0.018167  0.229115  0.598122  0.017499  4.178886  0.017
C  C150  1  0.06672026  0.72869437  0.20038648  1  0.407868  -0.000229  0.081258  0.275544  -0.000338  4.069831  0.0
C  C151  1  0.43325904  0.79961647  0.27129774  1  0.408624  -0.00023  0.081212  0.275492  -0.000338  4.070081  0.0
C  C152  1  0.93329600  0.27131259  0.79961663  1  0.408257  -0.000231  0.081242  0.275476  -0.00034  4.07013  0.0
C  C153  1  0.56671998  0.20038273  0.72869315  1  0.408353  -0.00023  0.08131  0.275526  -0.000338  4.069967  0.0
C  C154  1  0.07830198  0.84662798  0.09137313  1  0.435293  -9.4e-05  0.08249  0.275054  -0.000166  4.069222  0.0
C  C155  1  0.42168688  0.90862879  0.15336460  1  0.43502  -9.3e-05  0.082539  0.275181  -0.000165  4.068819  0.0
C  C156  1  0.92170830  0.15337307  0.90862118  1  0.435558  -9.4e-05  0.082491  0.275052  -0.000166  4.068854  0.0
C  C157  1  0.57830457  0.09137284  0.84662829  1  0.435719  -9.4e-05  0.082581  0.275146  -0.000166  4.06875  0.0
C  C158  1  0.98391827  0.72851887  0.34119744  1  0.332573  0.003324  0.089522  0.269935  0.00269  4.027972  0.002
C  C159  1  0.51606151  0.65879740  0.27148534  1  0.332774  0.003306  0.089422  0.269668  0.002676  4.02841  0.002
C  C160  1  0.01609812  0.27148392  0.65880207  1  0.331832  0.003315  0.089617  0.270055  0.002683  4.027807  0.002
C  C161  1  0.48391697  0.34120405  0.72851602  1  0.332574  0.003321  0.089564  0.270014  0.002688  4.027667  0.002
C  C162  1  0.08727833  0.04091010  0.11397963  1  0.02176  -0.001519  -0.100876  -0.200643  -0.001533  3.976936  -0.001
C  C163  1  0.41271612  0.88603268  0.95909102  1  0.021659  -0.001522  -0.100875  -0.200681  -0.001537  3.977111  -0.001
C  C164  1  0.91271749  0.95909920  0.88602410  1  0.021431  -0.00152  -0.100912  -0.2006  -0.001535  3.976831  -0.001
C  C165  1  0.58729250  0.11397063  0.04091272  1  0.022004  -0.001526  -0.100881  -0.200651  -0.00154  3.976935  -0.001
C  C166  1  0.03991845  0.70833717  0.41404770  1  0.047101  -0.000791  -0.101216  -0.200151  -0.000804  3.986732  -0.001
C  C167  1  0.46008149  0.58593914  0.29166423  1  0.04655  -0.000786  -0.101307  -0.200121  -0.000798  3.98678  -0.001
C  C168  1  0.96008869  0.29166376  0.58595392  1  0.047122  -0.000789  -0.101286  -0.2002  -0.000802  3.986849  -0.001
C  C169  1  0.53992731  0.41404916  0.70833458  1  0.026116  -0.000792  -0.101266  -0.200206  -0.000803  3.986665  -0.001
C  C170  1  0.23920223  0.86277898  0.54729505  1  -0.09265  0.001966  -0.241696  -0.529299  0.001413  3.903311  0.001
C  C171  1  0.26078166  0.45271237  0.13722852  1  -0.092342  0.00197  -0.241736  -0.529341  0.001417  3.903593  0.001
C  C172  1  0.76078671  0.13722425  0.45270984  1  -0.092649  0.001964  -0.241759  -0.529361  0.001411  3.903621  0.001
C  C173  1  0.73920377  0.54729870  0.86277656  1  -0.092891  0.001961  -0.241732  -0.529144  0.001407  3.903066  0.001
C  C174  1  0.07205812  0.81135911  0.17390858  1  -0.045589  0.003285  -0.113966  -0.331259  0.002624  4.000157  0.002
C  C175  1  0.42792640  0.82609359  0.18863845  1  -0.046634  0.003285  -0.113902  -0.33121  0.002624  4.000109  0.002
C  C176  1  0.92794632  0.18865034  0.82608836  1  -0.04569  0.003291  -0.113911  -0.331182  0.002629  3.999828  0.002
C  C177  1  0.57205704  0.17390920  0.81135566  1  -0.045947  0.003287  -0.113968  -0.331307  0.002625  4.00007  0.002
C  C178  1  0.84812768  0.78019722  0.33360840  1  -0.010164  -0.000788  -0.104451  -0.21208  -0.000751  3.990532  -0.001
C  C179  1  0.65185267  0.66638332  0.21981323  1  -0.010175  -0.000784  -0.104376  -0.211996  -0.000747  3.990735  -0.001
C  C180  1  0.15188048  0.21980376  0.66638964  1  -0.010021  -0.000786  -0.104544  -0.212228  -0.000749  3.990632  -0.001
C  C181  1  0.34813267  0.33361386  0.78019185  1  -0.010244  -0.000787  -0.10446  -0.21222  -0.00075  3.990928  -0.001
C  C182  1  0.86832336  0.97528570  0.15116915  1  -0.070293  -0.001606  -0.102286  -0.20769  -0.001629  4.008233  -0.001
C  C183  1  0.63167152  0.84883510  0.02470999  1  -0.069519  -0.001609  -0.102191  -0.207487  -0.001631  4.008445  -0.001
C  C184  1  0.13168096  0.02471349  0.84882747  1  -0.070225  -0.001606  -0.102276  -0.207634  -0.001628  4.008253  -0.001
C  C185  1  0.36834283  0.15116352  0.97528618  1  -0.07057  -0.001614  -0.102065  -0.207196  -0.001637  4.008222  -0.001
C  C186  1  0.99837469  0.03702266  0.63304991  1  0.222079  0.000385  -0.140323  -0.264937  0.000216  3.892957  0.0
C  C187  1  0.50160005  0.36695226  0.96298471  1  0.22179  0.000387  -0.140372  -0.265155  0.000217  3.893039  0.0
C  C188  1  0.00163004  0.96297529  0.36694870  1  0.221939  0.000384  -0.140334  -0.265059  0.000216  3.89305  0.0
C  C189  1  0.49835865  0.63305325  0.03702311  1  0.222302  0.000384  -0.14039  -0.265226  0.000215  3.893155  0.0
C  C190  1  0.19124951  0.94286800  0.57135036  1  1.373496  0.007171  0.252146  0.530275  0.007019  4.013719  0.007
C  C191  1  0.30874813  0.42865897  0.05713861  1  1.373148  0.007198  0.252277  0.530214  0.007044  4.013588  0.007
C  C192  1  0.80875397  0.05712737  0.42865826  1  1.373039  0.007168  0.252085  0.530025  0.007014  4.013724  0.007
C  C193  1  0.69125105  0.57135389  0.94287019  1  1.373278  0.007152  0.251878  0.530027  0.006997  4.013148  0.007
N  N194  1  0.04953874  0.96197658  0.60576134  1  -1.190755  0.010453  -0.279871  -0.024998  0.00771  3.656989  0.008
N  N195  1  0.45045353  0.39424012  0.03803320  1  -1.191188  0.010484  -0.279837  -0.024829  0.007734  3.656853  0.008
N  N196  1  0.95046521  0.03802740  0.39423701  1  -1.190618  0.010446  -0.279845  -0.025125  0.007705  3.656743  0.008
N  N197  1  0.54952875  0.60576362  0.96197637  1  -1.19056  0.010424  -0.279765  -0.025122  0.007688  3.656521  0.008
O  O198  1  0.48794892  0.69758110  0.67297127  1  -1.231943  0.04162  -0.560356  -0.749522  0.030487  2.008282  0.019
O  O199  1  0.01205359  0.32699291  0.30241538  1  -1.228795  0.041645  -0.560282  -0.749422  0.030502  2.008669  0.019
O  O200  1  0.51204430  0.30241457  0.32701713  1  -1.231078  0.041605  -0.560308  -0.749628  0.03048  2.007985  0.019
O  O201  1  0.98795758  0.67298759  0.69758106  1  -1.231588  0.041604  -0.560418  -0.749718  0.030486  2.008133  0.019
O  O202  1  0.05292821  0.59763222  0.03178819  1  -1.207102  0.064805  -0.306594  -0.574829  0.045701  2.376907  0.028
O  O203  1  0.44707553  0.96822837  0.40236216  1  -1.207163  0.064762  -0.306518  -0.574927  0.045678  2.37679  0.028
O  O204  1  0.94709195  0.40236975  0.96822608  1  -1.207215  0.064761  -0.306494  -0.574942  0.045682  2.376604  0.028
O  O205  1  0.55291918  0.03177373  0.59763888  1  -1.207067  0.064813  -0.306608  -0.574973  0.045705  2.37701  0.028
O  O206  1  0.59789408  0.85583074  0.54359250  1  -1.220118  0.074146  -0.29461  -0.591125  0.057725  2.276696  0.034
O  O207  1  0.90213278  0.45639250  0.14418680  1  -1.21983  0.074057  -0.294728  -0.591404  0.057707  2.27631  0.034
O  O208  1  0.40211747  0.14418729  0.45639745  1  -1.220011  0.074071  -0.294617  -0.591116  0.057685  2.276548  0.034
O  O209  1  0.09788985  0.54361104  0.85580546  1  -1.219742  0.074074  -0.294485  -0.59113  0.057693  2.276279  0.034
O  O210  1  0.76751876  0.78034129  0.61661462  1  -1.19283  0.057494  -0.305388  -0.568056  0.039841  2.299289  0.027
O  O211  1  0.73251728  0.38336811  0.21965753  1  -1.192719  0.057304  -0.305507  -0.568227  0.039717  2.298873  0.027
O  O212  1  0.23247611  0.21964222  0.38337950  1  -1.192662  0.057428  -0.305437  -0.56815  0.039787  2.299024  0.027
O  O213  1  0.26749465  0.61663114  0.78033646  1  -1.192602  0.057458  -0.305632  -0.56826  0.03982  2.299474  0.027
O  O214  1  0.85838237  0.20790580  0.25545492  1  -1.20876  0.083102  -0.319899  -0.572911  0.058057  2.366322  0.039
O  O215  1  0.64159496  0.74454314  0.79209215  1  -1.208436  0.083236  -0.320009  -0.573205  0.058129  2.366968  0.039
O  O216  1  0.14156533  0.79210963  0.74453499  1  -1.208366  0.083167  -0.320087  -0.572969  0.05809  2.366807  0.039
O  O217  1  0.35840271  0.25546330  0.20790286  1  -1.208505  0.083148  -0.31984  -0.572974  0.058089  2.366649  0.039
O  O218  1  0.66013105  0.14508925  0.28347021  1  -1.216676  0.081002  -0.319325  -0.583702  0.056972  2.440888  0.034
O  O219  1  0.83986609  0.71654969  0.85487430  1  -1.216782  0.081014  -0.319376  -0.583894  0.056986  2.440501  0.034
O  O220  1  0.33987503  0.85490444  0.71653103  1  -1.217011  0.081039  -0.319286  -0.583848  0.056938  2.4404  0.034
O  O221  1  0.16014590  0.28345220  0.14510577  1  -1.216045  0.081056  -0.319592  -0.583835  0.057075  2.441483  0.034
O  O222  1  0.10044978  0.70482655  0.92814841  1  -1.198721  0.067924  -0.305647  -0.572207  0.049596  2.350028  0.033
O  O223  1  0.39951181  0.07186494  0.29516809  1  -1.198336  0.067932  -0.305643  -0.572155  0.049588  2.349594  0.033
O  O224  1  0.89956070  0.29516759  0.07186316  1  -1.198431  0.067914  -0.305654  -0.572162  0.04959  2.349645  0.033
O  O225  1  0.60043723  0.92813228  0.70482850  1  -1.198367  0.067899  -0.305729  -0.572194  0.049594  2.349494  0.033
O  O226  1  0.08518487  0.92801660  0.06151759  1  -1.105598  0.00159  -0.146649  -0.207509  0.001038  2.592048  0.001
O  O227  1  0.41481926  0.93848613  0.07197383  1  -1.105644  0.001592  -0.146639  -0.207483  0.001039  2.592168  0.001
O  O228  1  0.91481388  0.07198670  0.93848499  1  -1.105634  0.001591  -0.1466  -0.207464  0.001038  2.591969  0.001
O  O229  1  0.58517349  0.06151848  0.92802105  1  -1.105493  0.001596  -0.146732  -0.207529  0.001042  2.592025  0.001
O  O230  1  0.28126937  0.99130504  0.56089672  1  -1.197063  0.058552  -0.296527  -0.536292  0.041069  2.342806  0.025
O  O231  1  0.21873492  0.43911512  0.00869418  1  -1.196672  0.058647  -0.296684  -0.536298  0.041114  2.343148  0.025
O  O232  1  0.71874543  0.00868240  0.43911890  1  -1.196834  0.058534  -0.296584  -0.536241  0.041054  2.342642  0.025
O  O233  1  0.78128071  0.56091488  0.99130269  1  -1.197017  0.05849  -0.296441  -0.536389  0.041015  2.342089  0.025
O  O234  1  0.06502401  0.69033343  0.28140192  1  -1.093702  0.00093  -0.152565  -0.213819  0.000626  2.5443  0.001
O  O235  1  0.43495172  0.71860025  0.30965466  1  -1.093937  0.000924  -0.152515  -0.213766  0.000623  2.544548  0.001
O  O236  1  0.93500181  0.30967110  0.71860414  1  -1.093457  0.000926  -0.152588  -0.213807  0.000624  2.544502  0.001
O  O237  1  0.56502658  0.28139774  0.69033663  1  -1.093923  0.000928  -0.152623  -0.213823  0.000626  2.544113  0.001
