# generated using pymatgen
data_CdH30C27(N4O3)2
_symmetry_space_group_name_H-M   'P 1'
_cell_length_a   9.22349867
_cell_length_b   11.56345937
_cell_length_c   14.34702673
_cell_angle_alpha   79.58096257
_cell_angle_beta   80.79195618
_cell_angle_gamma   78.03170329
_symmetry_Int_Tables_number   1
_chemical_formula_structural   CdH30C27(N4O3)2
_chemical_formula_sum   'Cd2 H60 C54 N16 O12'
_cell_volume   1460.26004194
_cell_formula_units_Z   2
loop_
 _symmetry_equiv_pos_site_id
 _symmetry_equiv_pos_as_xyz
  1  'x, y, z'
loop_
 _atom_site_type_symbol
 _atom_site_label
 _atom_site_symmetry_multiplicity
 _atom_site_fract_x
 _atom_site_fract_y
 _atom_site_fract_z
 _atom_site_occupancy
 _atom_site_hle17_bader_spin_density
 _atom_site_hle17_ddec_charge
 _atom_site_hle17_ddec_spin_density
 _atom_site_hle17_ddec_sum_bond_order
 _atom_site_hle17_magmom
 _atom_site_hse06_10hf_bader_spin_density
 _atom_site_hse06_10hf_ddec_charge
 _atom_site_hse06_10hf_ddec_spin_density
 _atom_site_hse06_10hf_ddec_sum_bond_order
 _atom_site_hse06_10hf_magmom
 _atom_site_hse06_bader_spin_density
 _atom_site_hse06_ddec_charge
 _atom_site_hse06_ddec_spin_density
 _atom_site_hse06_ddec_sum_bond_order
 _atom_site_hse06_magmom
 _atom_site_pbe_bader_spin_density
 _atom_site_pbe_cm5_charge
 _atom_site_pbe_ddec_charge
 _atom_site_pbe_ddec_spin_density
 _atom_site_pbe_ddec_sum_bond_order
 _atom_site_pbe_magmom
Cd  Cd0  1  0.51892823  0.71256774  0.74749472  1  0  1.000909  0  1.765474  0  0  0.788822  0  2.213413  0  0  0.845579  0  2.16732  0  0  0.771382  0.749376  0  2.244425  0
Cd  Cd1  1  0.48107021  0.28743064  0.25250514  1  0  1.000889  0  1.765475  0  0  0.788807  0  2.213422  0  0  0.84557  0  2.167323  0  0  0.771452  0.749462  0  2.244464  0
H  H2  1  0.26943772  0.56908645  0.74230067  1  0  0.086933  0  0.952284  0  0  0.089661  0  1.026867  0  0  0.092967  0  1.023549  0  0  0.116615  0.08736  0  1.028844  0
H  H3  1  0.73055845  0.43091731  0.25770071  1  0  0.086961  0  0.952272  0  0  0.089658  0  1.026899  0  0  0.092959  0  1.023588  0  0  0.116625  0.087359  0  1.028872  0
H  H4  1  0.93655848  0.76794190  0.56563421  1  0  0.10773  0  0.961609  0  0  0.116352  0  1.026465  0  0  0.119564  0  1.023892  0  0  0.108538  0.114333  0  1.027775  0
H  H5  1  0.06344329  0.23205642  0.43436254  1  0  0.107736  0  0.961554  0  0  0.11636  0  1.026415  0  0  0.119556  0  1.023859  0  0  0.108553  0.114335  0  1.027722  0
H  H6  1  0.08410492  0.93522097  0.53045991  1  0  0.10553  0  0.961422  0  0  0.116439  0  1.02023  0  0  0.119378  0  1.019096  0  0  0.111331  0.114166  0  1.02139  0
H  H7  1  0.91589445  0.06477828  0.46953834  1  0  0.105576  0  0.961384  0  0  0.116492  0  1.020181  0  0  0.119431  0  1.019052  0  0  0.111329  0.1142  0  1.021339  0
H  H8  1  0.31527099  0.91106309  0.60603182  1  0  0.089979  0  0.957222  0  0  0.095979  0  1.023923  0  0  0.098279  0  1.021652  0  0  0.11812  0.094256  0  1.025657  0
H  H9  1  0.68472779  0.08893884  0.39396609  1  0  0.089991  0  0.957273  0  0  0.096  0  1.023946  0  0  0.098299  0  1.021681  0  0  0.118126  0.094272  0  1.025678  0
H  H10  1  0.90831293  0.56204119  0.65611649  1  0  0.057498  0  0.93978  0  0  0.066016  0  1.011819  0  0  0.068659  0  1.009594  0  0  0.102678  0.06325  0  1.014504  0
H  H11  1  0.09168952  0.43795894  0.34388411  1  0  0.057464  0  0.939757  0  0  0.065969  0  1.011815  0  0  0.068609  0  1.009593  0  0  0.102676  0.063217  0  1.014489  0
H  H12  1  0.91293496  0.36688200  0.69584525  1  0  0.017058  0  0.924263  0  0  0.032344  0  0.985896  0  0  0.031589  0  0.987972  0  0  0.091644  0.033007  0  0.983613  0
H  H13  1  0.08706639  0.63311815  0.30415546  1  0  0.017074  0  0.924238  0  0  0.032352  0  0.985881  0  0  0.031595  0  0.987957  0  0  0.09167  0.033021  0  0.983605  0
H  H14  1  0.23527526  0.23239197  0.65800899  1  0  0.076305  0  0.920208  0  0  0.095669  0  0.977654  0  0  0.096476  0  0.977737  0  0  0.092983  0.095498  0  0.976597  0
H  H15  1  0.76472301  0.76760727  0.34198797  1  0  0.076335  0  0.920193  0  0  0.095682  0  0.977629  0  0  0.096489  0  0.97772  0  0  0.092994  0.095499  0  0.976568  0
H  H16  1  0.11642473  0.29689689  0.56994054  1  0  0.06324  0  0.943424  0  0  0.081077  0  1.006179  0  0  0.081382  0  1.006627  0  0  0.085252  0.080641  0  1.006313  0
H  H17  1  0.88357262  0.70310149  0.43005943  1  0  0.063256  0  0.943456  0  0  0.081072  0  1.006205  0  0  0.081378  0  1.006659  0  0  0.085249  0.080623  0  1.006341  0
H  H18  1  0.96629703  0.34383367  0.86275935  1  0  0.077234  0  0.943681  0  0  0.096537  0  1.00247  0  0  0.096338  0  1.00413  0  0  0.09159  0.096504  0  1.001616  0
H  H19  1  0.03370724  0.65616823  0.13724010  1  0  0.077217  0  0.943744  0  0  0.096503  0  1.002529  0  0  0.096291  0  1.004205  0  0  0.09158  0.096466  0  1.001696  0
H  H20  1  0.14809567  0.26236777  0.83179246  1  0  0.072394  0  0.935783  0  0  0.088646  0  1.000555  0  0  0.089621  0  1.000671  0  0  0.090518  0.088352  0  0.999397  0
H  H21  1  0.85190919  0.73763144  0.16820663  1  0  0.072356  0  0.935745  0  0  0.088615  0  1.000493  0  0  0.089591  0  1.000609  0  0  0.090498  0.088318  0  0.999327  0
H  H22  1  0.93568030  0.16127181  0.64373967  1  0  0.068146  0  0.935182  0  0  0.086071  0  0.999388  0  0  0.086457  0  1.000263  0  0  0.087244  0.085667  0  0.998761  0
H  H23  1  0.06431626  0.83873017  0.35626194  1  0  0.068144  0  0.935175  0  0  0.086044  0  0.999399  0  0  0.086432  0  1.000273  0  0  0.087246  0.085651  0  0.998774  0
H  H24  1  0.11618161  0.07876313  0.61335059  1  0  0.068391  0  0.962195  0  0  0.084752  0  1.02936  0  0  0.084653  0  1.030267  0  0  0.088325  0.084672  0  1.028922  0
H  H25  1  0.88381204  0.92123708  0.38665018  1  0  0.068396  0  0.962118  0  0  0.08476  0  1.029282  0  0  0.084659  0  1.030189  0  0  0.088317  0.084672  0  1.02884  0
H  H26  1  0.16365274  0.04553664  0.78270366  1  0  0.031363  0  0.899745  0  0  0.051027  0  0.950251  0  0  0.050953  0  0.950794  0  0  0.10001  0.050792  0  0.950158  0
H  H27  1  0.83634240  0.95446176  0.21729653  1  0  0.031389  0  0.899666  0  0  0.051011  0  0.950225  0  0  0.050936  0  0.95077  0  0  0.10001  0.050781  0  0.95012  0
H  H28  1  0.97212521  0.12309589  0.90801740  1  0  0.073388  0  0.925869  0  0  0.092937  0  0.983106  0  0  0.093323  0  0.983734  0  0  0.092733  0.092502  0  0.982754  0
H  H29  1  0.02787705  0.87690513  0.09198308  1  0  0.073363  0  0.925807  0  0  0.092922  0  0.983024  0  0  0.09331  0  0.983653  0  0  0.092723  0.092487  0  0.982676  0
H  H30  1  0.84732878  0.18914809  0.82459751  1  0  0.08152  0  0.938696  0  0  0.098249  0  1.002311  0  0  0.098635  0  1.003665  0  0  0.094129  0.098256  0  1.000576  0
H  H31  1  0.15267328  0.81085384  0.17540355  1  0  0.081513  0  0.938702  0  0  0.098225  0  1.002329  0  0  0.098606  0  1.00369  0  0  0.094129  0.098222  0  1.000603  0
H  H32  1  0.11102317  0.87067771  0.87078087  1  0  0.068799  0  0.948488  0  0  0.075511  0  1.021241  0  0  0.079119  0  1.017204  0  0  0.10658  0.073362  0  1.023411  0
H  H33  1  0.88897529  0.12932065  0.12921690  1  0  0.068802  0  0.948579  0  0  0.075507  0  1.021318  0  0  0.07911  0  1.01729  0  0  0.106599  0.073363  0  1.023484  0
H  H34  1  0.03915683  0.69148605  0.97641138  1  0  0.102518  0  0.981899  0  0  0.110514  0  1.048796  0  0  0.113192  0  1.046973  0  0  0.109168  0.108774  0  1.049819  0
H  H35  1  0.96083702  0.30851326  0.02358881  1  0  0.102661  0  0.981809  0  0  0.110584  0  1.048778  0  0  0.113263  0  1.046953  0  0  0.109194  0.108844  0  1.049801  0
H  H36  1  0.87018433  0.53803706  0.01804108  1  0  0.106517  0  0.953309  0  0  0.116827  0  1.011897  0  0  0.119723  0  1.01143  0  0  0.110733  0.114752  0  1.012417  0
H  H37  1  0.12981301  0.46196132  0.98195889  1  0  0.106519  0  0.953335  0  0  0.116813  0  1.011946  0  0  0.11971  0  1.011478  0  0  0.110696  0.114725  0  1.01248  0
H  H38  1  0.67043608  0.55043882  0.91837702  1  0  0.08862  0  0.962946  0  0  0.090334  0  1.038058  0  0  0.093476  0  1.03447  0  0  0.11466  0.088272  0  1.040263  0
H  H39  1  0.32956108  0.44956045  0.08162284  1  0  0.088606  0  0.962853  0  0  0.090315  0  1.037996  0  0  0.093458  0  1.034406  0  0  0.11464  0.08825  0  1.040213  0
H  H40  1  0.77770616  0.86244784  0.75008925  1  0  0.084736  0  0.958418  0  0  0.086562  0  1.033927  0  0  0.089007  0  1.031519  0  0  0.118172  0.084621  0  1.035947  0
H  H41  1  0.22229098  0.13755145  0.24991270  1  0  0.084833  0  0.958277  0  0  0.086629  0  1.033814  0  0  0.089082  0  1.03141  0  0  0.118187  0.084689  0  1.03584  0
H  H42  1  0.53271873  0.42019818  0.81790305  1  0  0.105315  0  0.938042  0  0  0.109788  0  1.006504  0  0  0.113438  0  1.002244  0  0  0.123239  0.106903  0  1.009959  0
H  H43  1  0.46727782  0.57980380  0.18209856  1  0  0.105299  0  0.937973  0  0  0.109782  0  1.006436  0  0  0.113433  0  1.002175  0  0  0.123259  0.106896  0  1.009894  0
H  H44  1  0.64402435  0.24116176  0.57039691  1  0  0.103625  0  0.946719  0  0  0.113435  0  1.008849  0  0  0.11609  0  1.007318  0  0  0.109038  0.111281  0  1.010355  0
H  H45  1  0.35597734  0.75884194  0.42960184  1  0  0.103656  0  0.946753  0  0  0.113453  0  1.008894  0  0  0.116109  0  1.007361  0  0  0.109047  0.1113  0  1.010402  0
H  H46  1  0.69301168  0.43777194  0.47244650  1  0  0.101403  0  0.973299  0  0  0.110089  0  1.033369  0  0  0.112349  0  1.034757  0  0  0.10372  0.108765  0  1.032073  0
H  H47  1  0.30698961  0.56223356  0.52755341  1  0  0.101397  0  0.973361  0  0  0.110051  0  1.03345  0  0  0.112323  0  1.034824  0  0  0.103709  0.108727  0  1.032148  0
H  H48  1  0.65451378  0.61633061  0.55418825  1  0  0.086418  0  0.951399  0  0  0.096569  0  1.014335  0  0  0.099339  0  1.011391  0  0  0.115104  0.094543  0  1.016499  0
H  H49  1  0.34548310  0.38367494  0.44581348  1  0  0.086408  0  0.951458  0  0  0.096575  0  1.014371  0  0  0.099344  0  1.011429  0  0  0.115113  0.094544  0  1.016539  0
H  H50  1  0.56783007  0.12656046  0.72132360  1  0  0.065122  0  0.944438  0  0  0.068806  0  1.021871  0  0  0.072904  0  1.016882  0  0  0.103271  0.065574  0  1.025947  0
H  H51  1  0.43216852  0.87344237  0.27867489  1  0  0.065121  0  0.944442  0  0  0.068816  0  1.021863  0  0  0.07291  0  1.016879  0  0  0.103275  0.065586  0  1.025934  0
H  H52  1  0.49554717  0.01507227  0.85706464  1  0  0.027541  0  0.909656  0  0  0.046217  0  0.964523  0  0  0.046004  0  0.964872  0  0  0.09584  0.046129  0  0.964701  0
H  H53  1  0.50445770  0.98492693  0.14293237  1  0  0.027581  0  0.909728  0  0  0.046218  0  0.964602  0  0  0.046035  0  0.964916  0  0  0.095857  0.046141  0  0.964779  0
H  H54  1  0.26721526  0.12539034  0.94365447  1  0  0.06157  0  0.948244  0  0  0.080939  0  1.008411  0  0  0.080867  0  1.009807  0  0  0.08477  0.081235  0  1.00692  0
H  H55  1  0.73278890  0.87460708  0.05634287  1  0  0.061577  0  0.948237  0  0  0.080926  0  1.008414  0  0  0.080867  0  1.009797  0  0  0.084776  0.081219  0  1.006913  0
H  H56  1  0.37834444  0.16053220  0.02055237  1  0  0.068166  0  0.95271  0  0  0.082887  0  1.020863  0  0  0.082908  0  1.022817  0  0  0.085307  0.082827  0  1.019631  0
H  H57  1  0.62165842  0.83946613  0.97944567  1  0  0.068156  0  0.952714  0  0  0.082864  0  1.020865  0  0  0.082885  0  1.022823  0  0  0.085297  0.0828  0  1.019637  0
H  H58  1  0.66394777  0.09270710  0.99577327  1  0  0.083808  0  0.956499  0  0  0.097063  0  1.025527  0  0  0.09906  0  1.023727  0  0  0.087804  0.0955  0  1.026922  0
H  H59  1  0.33605728  0.90729121  0.00422594  1  0  0.083794  0  0.956578  0  0  0.097037  0  1.025615  0  0  0.099034  0  1.023816  0  0  0.087806  0.095475  0  1.027014  0
H  H60  1  0.74358195  0.01276068  0.90007271  1  0  0.066898  0  0.987328  0  0  0.080021  0  1.057288  0  0  0.08013  0  1.059658  0  0  0.085034  0.080064  0  1.055401  0
H  H61  1  0.25642201  0.98723764  0.09992522  1  0  0.066875  0  0.987282  0  0  0.080009  0  1.057247  0  0  0.080121  0  1.059615  0  0  0.085044  0.080056  0  1.055364  0
C  C62  1  0.22558848  0.64926174  0.69494341  1  0  0.093287  0  3.671947  0  0  0.052635  0  3.92227  0  0  0.05973  0  3.940217  0  0  0.050242  0.047992  0  3.910554  0
C  C63  1  0.77440919  0.35074021  0.30505600  1  0  0.093272  0  3.671928  0  0  0.052625  0  3.922283  0  0  0.059726  0  3.94023  0  0  0.050189  0.047975  0  3.910591  0
C  C64  1  0.09556626  0.65410055  0.65452412  1  0  -0.005153  0  3.815147  0  0  0.018421  0  4.048822  0  0  0.0129  0  4.07231  0  0  -0.007217  0.021548  0  4.033557  0
C  C65  1  0.90443511  0.34589958  0.34547380  1  0  -0.005219  0  3.815223  0  0  0.018355  0  4.048891  0  0  0.012836  0  4.07237  0  0  -0.007222  0.021479  0  4.033643  0
C  C66  1  0.04003330  0.75971217  0.59614851  1  0  -0.045911  0  3.669012  0  0  -0.072808  0  3.914983  0  0  -0.070416  0  3.93387  0  0  -0.061029  -0.07385  0  3.901499  0
C  C67  1  0.95996568  0.24028886  0.40384951  1  0  -0.045883  0  3.668916  0  0  -0.072783  0  3.914903  0  0  -0.070379  0  3.933793  0  0  -0.061046  -0.07382  0  3.901406  0
C  C68  1  0.11976605  0.85290345  0.57766248  1  0  -0.093352  0  3.717708  0  0  -0.106654  0  3.972341  0  0  -0.113376  0  3.993644  0  0  -0.074495  -0.102154  0  3.958019  0
C  C69  1  0.88023011  0.14710032  0.42234030  1  0  -0.093416  0  3.717637  0  0  -0.106728  0  3.972265  0  0  -0.113451  0  3.993566  0  0  -0.074535  -0.102227  0  3.957914  0
C  C70  1  0.24988435  0.84010521  0.61906499  1  0  0.131809  0  3.668727  0  0  0.097627  0  3.921568  0  0  0.105009  0  3.94048  0  0  0.048214  0.092822  0  3.908666  0
C  C71  1  0.75011591  0.15989493  0.38093443  1  0  0.131734  0  3.668657  0  0  0.097574  0  3.921479  0  0  0.104957  0  3.940386  0  0  0.048196  0.092768  0  3.908573  0
C  C72  1  0.02550417  0.54805610  0.67055575  1  0  0.101209  0  3.743563  0  0  0.068973  0  3.99941  0  0  0.075605  0  4.015939  0  0  0.067447  0.06434  0  3.989707  0
C  C73  1  0.97449649  0.45194223  0.32944181  1  0  0.101307  0  3.743628  0  0  0.069089  0  3.999468  0  0  0.075724  0  4.015998  0  0  0.067506  0.064465  0  3.989762  0
C  C74  1  0.03054793  0.34151439  0.71147882  1  0  0.144518  0  3.681837  0  0  0.137309  0  3.923538  0  0  0.140411  0  3.939937  0  0  0.003042  0.135339  0  3.912436  0
C  C75  1  0.96945344  0.65848574  0.28852049  1  0  0.144522  0  3.681785  0  0  0.137287  0  3.923474  0  0  0.140399  0  3.939864  0  0  0.002997  0.13531  0  3.912367  0
C  C76  1  0.11743208  0.25382132  0.64485148  1  0  -0.141979  0  3.670062  0  0  -0.185597  0  3.92583  0  0  -0.186935  0  3.939458  0  0  -0.161464  -0.184547  0  3.916429  0
C  C77  1  0.88256747  0.74617705  0.35514897  1  0  -0.142034  0  3.670135  0  0  -0.185581  0  3.925807  0  0  -0.186927  0  3.939442  0  0  -0.161472  -0.184529  0  3.916392  0
C  C78  1  0.03176989  0.28119776  0.81577584  1  0  -0.150094  0  3.663852  0  0  -0.19413  0  3.918632  0  0  -0.196088  0  3.932829  0  0  -0.162381  -0.192844  0  3.909088  0
C  C79  1  0.96823607  0.71880144  0.18422245  1  0  -0.150017  0  3.663844  0  0  -0.194038  0  3.918556  0  0  -0.195984  0  3.932742  0  0  -0.162358  -0.192759  0  3.909022  0
C  C80  1  0.05125005  0.14021047  0.66134645  1  0  -0.149797  0  3.669452  0  0  -0.193925  0  3.924968  0  0  -0.195207  0  3.939541  0  0  -0.165765  -0.192918  0  3.915249  0
C  C81  1  0.94874729  0.85978792  0.33865492  1  0  -0.149779  0  3.669379  0  0  -0.193901  0  3.924869  0  0  -0.195178  0  3.939441  0  0  -0.165788  -0.192908  0  3.915148  0
C  C82  1  0.04759489  0.07824081  0.76553676  1  0  0.140884  0  3.653191  0  0  0.130325  0  3.900257  0  0  0.133407  0  3.916422  0  0  0.004463  0.128286  0  3.889435  0
C  C83  1  0.95240225  0.92175848  0.23446520  1  0  0.140816  0  3.653239  0  0  0.130264  0  3.900305  0  0  0.133348  0  3.916469  0  0  0.00446  0.12823  0  3.889467  0
C  C84  1  0.96668622  0.16704888  0.83358953  1  0  -0.149482  0  3.654756  0  0  -0.191516  0  3.910274  0  0  -0.193385  0  3.924665  0  0  -0.160296  -0.190229  0  3.900265  0
C  C85  1  0.03331402  0.83295128  0.16641198  1  0  -0.149502  0  3.654847  0  0  -0.191491  0  3.910243  0  0  -0.193364  0  3.924645  0  0  -0.160297  -0.190202  0  3.900234  0
C  C86  1  0.00894906  0.88490141  0.83576194  1  0  0.103131  0  3.712587  0  0  0.068311  0  3.972302  0  0  0.075063  0  3.988087  0  0  0.069928  0.063701  0  3.961576  0
C  C87  1  0.99104641  0.11510056  0.16423768  1  0  0.10307  0  3.712579  0  0  0.068301  0  3.972312  0  0  0.075056  0  3.988093  0  0  0.069881  0.063692  0  3.961585  0
C  C88  1  0.92106635  0.78840333  0.85911633  1  0  0.005254  0  3.77804  0  0  0.030106  0  4.00954  0  0  0.024358  0  4.03339  0  0  -0.001082  0.033344  0  3.993883  0
C  C89  1  0.07893060  0.21159685  0.14088412  1  0  0.005294  0  3.777963  0  0  0.030009  0  4.009618  0  0  0.024262  0  4.033468  0  0  -0.001132  0.033242  0  3.993966  0
C  C90  1  0.94833388  0.69513299  0.93497749  1  0  -0.050067  0  3.671002  0  0  -0.078394  0  3.916381  0  0  -0.075388  0  3.93494  0  0  -0.062527  -0.080156  0  3.903609  0
C  C91  1  0.05166290  0.30486807  0.06502075  1  0  -0.05017  0  3.670941  0  0  -0.078393  0  3.916351  0  0  -0.075384  0  3.934901  0  0  -0.06254  -0.080155  0  3.903559  0
C  C92  1  0.85668153  0.60958887  0.95765771  1  0  -0.101076  0  3.729226  0  0  -0.112121  0  3.980789  0  0  -0.118836  0  4.001471  0  0  -0.076457  -0.107748  0  3.966864  0
C  C93  1  0.14331592  0.39041399  0.04234507  1  0  -0.101071  0  3.729202  0  0  -0.112101  0  3.980735  0  0  -0.118816  0  4.001417  0  0  -0.076427  -0.107742  0  3.966819  0
C  C94  1  0.74325378  0.61648167  0.90266055  1  0  0.127979  0  3.680193  0  0  0.092699  0  3.93432  0  0  0.100442  0  3.952196  0  0  0.046684  0.087648  0  3.921857  0
C  C95  1  0.25674574  0.38351672  0.09734269  1  0  0.128006  0  3.679854  0  0  0.092705  0  3.933994  0  0  0.100448  0  3.951867  0  0  0.046694  0.087652  0  3.921554  0
C  C96  1  0.80303594  0.78969179  0.80820820  1  0  0.108605  0  3.660482  0  0  0.068509  0  3.911411  0  0  0.076258  0  3.929912  0  0  0.056793  0.063574  0  3.89905  0
C  C97  1  0.19695901  0.21030751  0.19179258  1  0  0.108432  0  3.660452  0  0  0.068398  0  3.911375  0  0  0.076132  0  3.929888  0  0  0.056751  0.063464  0  3.899033  0
C  C98  1  0.56804887  0.42144394  0.74149919  1  0  0.107299  0  3.62361  0  0  0.068327  0  3.872689  0  0  0.076048  0  3.888344  0  0  0.059613  0.063895  0  3.860336  0
C  C99  1  0.43194878  0.57855803  0.25850300  1  0  0.107295  0  3.623577  0  0  0.06831  0  3.872705  0  0  0.076037  0  3.88835  0  0  0.059557  0.063882  0  3.860347  0
C  C100  1  0.58502694  0.31618032  0.70161461  1  0  0.013862  0  3.776027  0  0  0.034277  0  4.013053  0  0  0.029969  0  4.035689  0  0  0.001862  0.037888  0  3.994272  0
C  C101  1  0.41497350  0.68381894  0.29838771  1  0  0.01383  0  3.775948  0  0  0.034228  0  4.013013  0  0  0.02992  0  4.035649  0  0  0.001897  0.037837  0  3.994223  0
C  C102  1  0.63044589  0.32154635  0.60321082  1  0  -0.053074  0  3.685654  0  0  -0.078108  0  3.92775  0  0  -0.075703  0  3.946289  0  0  -0.061956  -0.078974  0  3.91373  0
C  C103  1  0.36955469  0.67845736  0.39678873  1  0  -0.053028  0  3.685795  0  0  -0.078044  0  3.92786  0  0  -0.075641  0  3.946403  0  0  -0.061952  -0.07891  0  3.913843  0
C  C104  1  0.65766918  0.42954702  0.54903722  1  0  -0.114108  0  3.766457  0  0  -0.124015  0  4.017133  0  0  -0.1309  0  4.040036  0  0  -0.087577  -0.119669  0  4.001618  0
C  C105  1  0.34232920  0.57045672  0.45096324  1  0  -0.114187  0  3.766591  0  0  -0.124067  0  4.017266  0  0  -0.130963  0  4.040163  0  0  -0.087593  -0.119721  0  4.00175  0
C  C106  1  0.63698768  0.52959858  0.59406891  1  0  0.101269  0  3.727699  0  0  0.067063  0  3.984068  0  0  0.074083  0  4.001713  0  0  0.034621  0.062255  0  3.972885  0
C  C107  1  0.36301179  0.47040515  0.40593214  1  0  0.101287  0  3.727719  0  0  0.067092  0  3.984055  0  0  0.07411  0  4.00171  0  0  0.034612  0.062281  0  3.972878  0
C  C108  1  0.55693790  0.20283154  0.76033675  1  0  0.090369  0  3.734651  0  0  0.05784  0  3.998363  0  0  0.063611  0  4.01405  0  0  0.068663  0.054608  0  3.985732  0
C  C109  1  0.44306176  0.79717130  0.23966442  1  0  0.09034  0  3.734437  0  0  0.057809  0  3.998163  0  0  0.063578  0  4.013854  0  0  0.068597  0.054568  0  3.985525  0
C  C110  1  0.50655182  0.07751835  0.90476269  1  0  0.14605  0  3.651636  0  0  0.136909  0  3.895306  0  0  0.139963  0  3.911641  0  0  0.003403  0.134968  0  3.8841  0
C  C111  1  0.49345343  0.92247907  0.09523663  1  0  0.145781  0  3.651887  0  0  0.1367  0  3.895455  0  0  0.13974  0  3.911794  0  0  0.00333  0.134767  0  3.884253  0
C  C112  1  0.36817570  0.09160979  0.97938282  1  0  -0.144968  0  3.678453  0  0  -0.187256  0  3.933569  0  0  -0.188911  0  3.9485  0  0  -0.166326  -0.186037  0  3.923024  0
C  C113  1  0.63182824  0.90838853  0.02061650  1  0  -0.144851  0  3.678517  0  0  -0.187076  0  3.933527  0  0  -0.188747  0  3.948466  0  0  -0.16629  -0.185864  0  3.922981  0
C  C114  1  0.64661027  0.02597426  0.95486830  1  0  -0.161639  0  3.651963  0  0  -0.20197  0  3.900892  0  0  -0.20483  0  3.9156  0  0  -0.17034  -0.199716  0  3.89049  0
C  C115  1  0.35339498  0.97402315  0.04512963  1  0  -0.161488  0  3.651873  0  0  -0.20182  0  3.900791  0  0  -0.204686  0  3.915505  0  0  -0.170325  -0.199558  0  3.890397  0
N  N116  1  0.30087062  0.73996071  0.67762297  1  0  -0.32851  0  3.287191  0  0  -0.244157  0  3.55014  0  0  -0.266143  0  3.572367  0  0  -0.330439  -0.229403  0  3.534845  0
N  N117  1  0.69912835  0.26004034  0.32237645  1  0  -0.328425  0  3.287113  0  0  -0.244074  0  3.550053  0  0  -0.26606  0  3.572274  0  0  -0.330373  -0.229326  0  3.534776  0
N  N118  1  0.10101499  0.44490795  0.69746287  1  0  -0.316793  0  3.036777  0  0  -0.279504  0  3.311915  0  0  -0.292026  0  3.328375  0  0  -0.313832  -0.271599  0  3.300028  0
N  N119  1  0.89898915  0.55508948  0.30253656  1  0  -0.316848  0  3.036776  0  0  -0.279561  0  3.31192  0  0  -0.292086  0  3.328379  0  0  -0.313841  -0.271637  0  3.300021  0
N  N120  1  0.96488524  0.98089677  0.77982815  1  0  -0.321004  0  3.031823  0  0  -0.282055  0  3.311238  0  0  -0.295362  0  3.328809  0  0  -0.313078  -0.273111  0  3.299405  0
N  N121  1  0.03511099  0.01910164  0.22017402  1  0  -0.320952  0  3.031739  0  0  -0.281995  0  3.311127  0  0  -0.295301  0  3.328697  0  0  -0.313051  -0.27306  0  3.299303  0
N  N122  1  0.71778750  0.70532825  0.82853236  1  0  -0.337059  0  3.299211  0  0  -0.250765  0  3.563274  0  0  -0.273256  0  3.584849  0  0  -0.334055  -0.235881  0  3.548385  0
N  N123  1  0.28221111  0.29466925  0.17147110  1  0  -0.337022  0  3.299184  0  0  -0.250688  0  3.563191  0  0  -0.273178  0  3.58477  0  0  -0.334011  -0.235826  0  3.548341  0
N  N124  1  0.59230906  0.52570860  0.68885696  1  0  -0.34141  0  3.275985  0  0  -0.262582  0  3.545991  0  0  -0.283272  0  3.566263  0  0  -0.329922  -0.248415  0  3.531442  0
N  N125  1  0.40768802  0.47429605  0.31114419  1  0  -0.341339  0  3.275876  0  0  -0.262523  0  3.545885  0  0  -0.28321  0  3.566156  0  0  -0.329882  -0.248375  0  3.531351  0
N  N126  1  0.52429299  0.19395885  0.85099493  1  0  -0.29845  0  3.001253  0  0  -0.265736  0  3.28123  0  0  -0.277418  0  3.297518  0  0  -0.307558  -0.257578  0  3.268585  0
N  N127  1  0.47571334  0.80603857  0.14900568  1  0  -0.298377  0  3.001244  0  0  -0.265669  0  3.281197  0  0  -0.277356  0  3.297495  0  0  -0.307526  -0.257521  0  3.268559  0
N  N128  1  0.62800231  0.90510833  0.60940199  1  0  0.68585  0  4.144095  0  0  0.719528  0  4.434488  0  0  0.74755  0  4.441135  0  0  0.092902  0.700724  0  4.429686  0
N  N129  1  0.37200330  0.09488732  0.39060035  1  0  0.686042  0  4.143818  0  0  0.719717  0  4.434206  0  0  0.74774  0  4.440854  0  0  0.093046  0.70091  0  4.429399  0
N  N130  1  0.34157348  0.67764461  0.93384904  1  0  0.687618  0  4.127348  0  0  0.728835  0  4.4068  0  0  0.75776  0  4.412475  0  0  0.094773  0.709573  0  4.402274  0
N  N131  1  0.65842626  0.32235286  0.06615152  1  0  0.687488  0  4.127267  0  0  0.728958  0  4.406469  0  0  0.757885  0  4.412142  0  0  0.094867  0.709693  0  4.401957  0
O  O132  1  0.35929494  0.78084514  0.88749722  1  0  -0.480249  0  1.784607  0  0  -0.461566  0  2.010372  0  0  -0.479923  0  2.001553  0  0  -0.198245  -0.448712  0  2.015391  0
O  O133  1  0.64070312  0.21915502  0.11250242  1  0  -0.480168  0  1.78477  0  0  -0.461568  0  2.010442  0  0  -0.479942  0  2.001654  0  0  -0.198256  -0.448754  0  2.015488  0
O  O134  1  0.40232057  0.58520133  0.89443833  1  0  -0.490353  0  1.743618  0  0  -0.474286  0  1.96206  0  0  -0.492506  0  1.954317  0  0  -0.205626  -0.462063  0  1.967067  0
O  O135  1  0.59767820  0.41480062  0.10556166  1  0  -0.490269  0  1.743617  0  0  -0.474274  0  1.961967  0  0  -0.492494  0  1.954222  0  0  -0.20564  -0.462084  0  1.966997  0
O  O136  1  0.26590642  0.66838386  0.01408346  1  0  -0.411781  0  1.760133  0  0  -0.411141  0  1.968544  0  0  -0.422644  0  1.961705  0  0  -0.16122  -0.403853  0  1.97321  0
O  O137  1  0.73409695  0.33161715  0.98591552  1  0  -0.411809  0  1.759894  0  0  -0.411277  0  1.968249  0  0  -0.422779  0  1.961412  0  0  -0.161367  -0.404019  0  1.972926  0
O  O138  1  0.52684563  0.92673048  0.67989507  1  0  -0.480474  0  1.746105  0  0  -0.459761  0  1.967784  0  0  -0.476536  0  1.957976  0  0  -0.201048  -0.448605  0  1.97483  0
O  O139  1  0.47316970  0.07326066  0.32011324  1  0  -0.480407  0  1.745792  0  0  -0.459752  0  1.96752  0  0  -0.476523  0  1.957711  0  0  -0.20105  -0.448599  0  1.974583  0
O  O140  1  0.67315201  0.79553744  0.59661348  1  0  -0.502226  0  1.760397  0  0  -0.484181  0  1.987627  0  0  -0.502016  0  1.979465  0  0  -0.211404  -0.471673  0  1.992638  0
O  O141  1  0.32684957  0.20446177  0.40338176  1  0  -0.502336  0  1.760429  0  0  -0.484262  0  1.987662  0  0  -0.502097  0  1.979499  0  0  -0.211473  -0.471773  0  1.992686  0
O  O142  1  0.68224042  0.98722019  0.55610534  1  0  -0.418685  0  1.744776  0  0  -0.421639  0  1.956057  0  0  -0.432585  0  1.94903  0  0  -0.172781  -0.413963  0  1.961063  0
O  O143  1  0.31775561  0.01277912  0.44389811  1  0  -0.418834  0  1.744783  0  0  -0.421768  0  1.95604  0  0  -0.432713  0  1.949012  0  0  -0.172872  -0.414091  0  1.961047  0
