# generated using pymatgen
data_TlBH13C21(S2N)3
_symmetry_space_group_name_H-M   'P 1'
_cell_length_a   8.18287250
_cell_length_b   11.18289657
_cell_length_c   14.56048916
_cell_angle_alpha   95.13835851
_cell_angle_beta   89.99971519
_cell_angle_gamma   90.00045587
_symmetry_Int_Tables_number   1
_chemical_formula_structural   TlBH13C21(S2N)3
_chemical_formula_sum   'Tl2 B2 H26 C42 S12 N6'
_cell_volume   1327.04990347
_cell_formula_units_Z   2
loop_
 _symmetry_equiv_pos_site_id
 _symmetry_equiv_pos_as_xyz
  1  'x, y, z'
loop_
 _atom_site_type_symbol
 _atom_site_label
 _atom_site_symmetry_multiplicity
 _atom_site_fract_x
 _atom_site_fract_y
 _atom_site_fract_z
 _atom_site_occupancy
 _atom_site_hle17_bader_spin_density
 _atom_site_hle17_ddec_charge
 _atom_site_hle17_ddec_spin_density
 _atom_site_hle17_ddec_sum_bond_order
 _atom_site_hle17_magmom
 _atom_site_hse06_10hf_bader_spin_density
 _atom_site_hse06_10hf_ddec_charge
 _atom_site_hse06_10hf_ddec_spin_density
 _atom_site_hse06_10hf_ddec_sum_bond_order
 _atom_site_hse06_10hf_magmom
 _atom_site_hse06_bader_spin_density
 _atom_site_hse06_ddec_charge
 _atom_site_hse06_ddec_spin_density
 _atom_site_hse06_ddec_sum_bond_order
 _atom_site_hse06_magmom
 _atom_site_pbe_bader_spin_density
 _atom_site_pbe_cm5_charge
 _atom_site_pbe_ddec_charge
 _atom_site_pbe_ddec_spin_density
 _atom_site_pbe_ddec_sum_bond_order
 _atom_site_pbe_magmom
Tl  Tl0  1  0.96562867  0.81012054  0.54482631  1  0  0.596699  0  1.106485  0  0  0.479833  0  1.457052  0  0  0.499626  0  1.448968  0  0  0.252576  0.465162  0  1.463407  0
Tl  Tl1  1  0.46563014  0.18988097  0.45517219  1  0  0.596694  0  1.10649  0  0  0.479832  0  1.457055  0  0  0.499626  0  1.448972  0  0  0.252581  0.465163  0  1.463413  0
B  B2  1  0.54632694  0.90240053  0.73183022  1  0  0.599582  0  3.03539  0  0  0.426697  0  3.342548  0  0  0.449158  0  3.338651  0  0  -0.06179  0.411213  0  3.345568  0
B  B3  1  0.04632660  0.09759956  0.26817142  1  0  0.599611  0  3.035391  0  0  0.426677  0  3.342628  0  0  0.449131  0  3.338743  0  0  -0.061807  0.4112  0  3.345618  0
H  H4  1  0.31971269  0.06914015  0.69226722  1  0  0.111032  0  0.965713  0  0  0.115236  0  1.037609  0  0  0.119034  0  1.035047  0  0  0.102032  0.112535  0  1.039464  0
H  H5  1  0.81971462  0.93085695  0.30773003  1  0  0.111117  0  0.965659  0  0  0.115225  0  1.037633  0  0  0.119025  0  1.035066  0  0  0.102004  0.11252  0  1.039492  0
H  H6  1  0.21595565  0.27546339  0.68549937  1  0  0.077282  0  0.982769  0  0  0.08317  0  1.053912  0  0  0.086017  0  1.052646  0  0  0.087168  0.081022  0  1.05509  0
H  H7  1  0.71596017  0.72453223  0.31449738  1  0  0.07722  0  0.982619  0  0  0.083124  0  1.053782  0  0  0.085971  0  1.052512  0  0  0.08715  0.080978  0  1.054962  0
H  H8  1  0.40248636  0.45167387  0.70790911  1  0  0.090188  0  0.984806  0  0  0.099656  0  1.04741  0  0  0.101593  0  1.048466  0  0  0.091703  0.098273  0  1.046746  0
H  H9  1  0.90249161  0.54832282  0.29209268  1  0  0.090223  0  0.984797  0  0  0.09965  0  1.047441  0  0  0.101587  0  1.0485  0  0  0.091712  0.098265  0  1.046781  0
H  H10  1  0.69627287  0.42316707  0.74058842  1  0  0.088885  0  0.998782  0  0  0.092007  0  1.074633  0  0  0.095439  0  1.072465  0  0  0.083557  0.089342  0  1.076454  0
H  H11  1  0.19627902  0.57683475  0.25941360  1  0  0.08885  0  0.998757  0  0  0.091954  0  1.074641  0  0  0.095387  0  1.072464  0  0  0.083508  0.089274  0  1.076475  0
H  H12  1  0.50142879  0.00622387  0.90089784  1  0  0.110293  0  0.968578  0  0  0.119693  0  1.031113  0  0  0.122081  0  1.031072  0  0  0.105043  0.118022  0  1.031209  0
H  H13  1  0.00142132  0.99377415  0.09910035  1  0  0.11035  0  0.968545  0  0  0.119744  0  1.031084  0  0  0.122128  0  1.031049  0  0  0.105057  0.118074  0  1.031179  0
H  H14  1  0.54094562  0.03424892  0.07011916  1  0  0.090107  0  0.971187  0  0  0.09817  0  1.035952  0  0  0.101012  0  1.035109  0  0  0.089837  0.096123  0  1.03663  0
H  H15  1  0.04094031  0.96575113  0.92988043  1  0  0.090118  0  0.971297  0  0  0.098189  0  1.036031  0  0  0.101031  0  1.035188  0  0  0.089848  0.096146  0  1.036707  0
H  H16  1  0.70457337  0.89100738  0.15091771  1  0  0.08107  0  0.991425  0  0  0.086246  0  1.067481  0  0  0.088697  0  1.066905  0  0  0.087662  0.084497  0  1.067951  0
H  H17  1  0.20457050  0.10899179  0.84908274  1  0  0.08105  0  0.991478  0  0  0.086237  0  1.067526  0  0  0.088671  0  1.066965  0  0  0.087677  0.084488  0  1.067996  0
H  H18  1  0.82944458  0.71106660  0.06400248  1  0  0.102546  0  0.939339  0  0  0.116527  0  0.991292  0  0  0.11929  0  0.990503  0  0  0.102629  0.114558  0  0.99191  0
H  H19  1  0.32943922  0.28893506  0.93599778  1  0  0.102529  0  0.939422  0  0  0.116525  0  0.991351  0  0  0.119285  0  0.990564  0  0  0.102636  0.114555  0  0.991968  0
H  H20  1  0.30356035  0.76023124  0.77915192  1  0  0.122626  0  0.934196  0  0  0.134569  0  0.986831  0  0  0.137797  0  0.985412  0  0  0.113867  0.132339  0  0.987815  0
H  H21  1  0.80356289  0.23976759  0.22085029  1  0  0.122597  0  0.934266  0  0  0.134554  0  0.986881  0  0  0.137781  0  0.985464  0  0  0.113846  0.132321  0  0.987867  0
H  H22  1  0.11157072  0.58883387  0.75464912  1  0  0.088116  0  0.961547  0  0  0.095386  0  1.025574  0  0  0.098336  0  1.023939  0  0  0.095073  0.093259  0  1.026841  0
H  H23  1  0.61157367  0.41116388  0.24535149  1  0  0.088158  0  0.961502  0  0  0.095431  0  1.025533  0  0  0.098382  0  1.023896  0  0  0.095085  0.093304  0  1.0268  0
H  H24  1  0.07922763  0.47827630  0.60004752  1  0  0.084534  0  0.975058  0  0  0.092516  0  1.041238  0  0  0.095131  0  1.040373  0  0  0.091079  0.090323  0  1.042529  0
H  H25  1  0.57922798  0.52172396  0.39995335  1  0  0.08458  0  0.975028  0  0  0.092586  0  1.041185  0  0  0.095202  0  1.040319  0  0  0.091123  0.090391  0  1.042478  0
H  H26  1  0.23160417  0.54349616  0.46478695  1  0  0.111706  0  0.973864  0  0  0.123392  0  1.0333  0  0  0.126566  0  1.03162  0  0  0.094536  0.121123  0  1.034553  0
H  H27  1  0.73160873  0.45650855  0.53521447  1  0  0.111753  0  0.973776  0  0  0.12341  0  1.033261  0  0  0.126588  0  1.031578  0  0  0.094528  0.121142  0  1.034513  0
H  H28  1  0.42178508  0.93189031  0.77267880  1  0  -0.217705  0  0.940515  0  0  -0.173534  0  1.031204  0  0  -0.179025  0  1.030247  0  0  0.066479  -0.170047  0  1.032034  0
H  H29  1  0.92178448  0.06810829  0.22732444  1  0  -0.217718  0  0.940542  0  0  -0.173521  0  1.0312  0  0  -0.179009  0  1.03024  0  0  0.066482  -0.170037  0  1.032032  0
C  C30  1  0.81412911  0.03185210  0.74287609  1  0  0.216588  0  3.771363  0  0  0.189382  0  4.081303  0  0  0.21185  0  4.090184  0  0  0.134534  0.174686  0  4.074452  0
C  C31  1  0.31413097  0.96815126  0.25712296  1  0  0.216531  0  3.771453  0  0  0.189356  0  4.081344  0  0  0.211824  0  4.090224  0  0  0.134514  0.174661  0  4.074493  0
C  C32  1  0.56792033  0.12865250  0.72478875  1  0  0.180406  0  3.783391  0  0  0.167527  0  4.027026  0  0  0.173129  0  4.050258  0  0  0.099356  0.163942  0  4.01135  0
C  C33  1  0.06792831  0.87134770  0.27521215  1  0  0.180463  0  3.783535  0  0  0.167513  0  4.027244  0  0  0.173114  0  4.050477  0  0  0.099346  0.163925  0  4.011567  0
C  C34  1  0.40229529  0.14514063  0.70524891  1  0  -0.155936  0  3.741671  0  0  -0.171144  0  3.993937  0  0  -0.17458  0  4.01349  0  0  -0.092051  -0.168752  0  3.980615  0
C  C35  1  0.90230017  0.85485693  0.29475020  1  0  -0.155872  0  3.741779  0  0  -0.17096  0  3.994081  0  0  -0.174393  0  4.013631  0  0  -0.091919  -0.168565  0  3.980762  0
C  C36  1  0.34474158  0.26208197  0.70066591  1  0  -0.081579  0  3.811228  0  0  -0.092149  0  4.057986  0  0  -0.093826  0  4.079986  0  0  -0.100673  -0.090991  0  4.043158  0
C  C37  1  0.84474516  0.73791797  0.29933213  1  0  -0.081598  0  3.811146  0  0  -0.092181  0  4.05787  0  0  -0.093865  0  4.079887  0  0  -0.100732  -0.091014  0  4.043012  0
C  C38  1  0.44915283  0.36152342  0.71377998  1  0  -0.08275  0  3.79238  0  0  -0.093564  0  4.035277  0  0  -0.096556  0  4.058338  0  0  -0.103043  -0.091561  0  4.019727  0
C  C39  1  0.94916034  0.63847353  0.28622170  1  0  -0.082841  0  3.792125  0  0  -0.093617  0  4.035036  0  0  -0.096615  0  4.058096  0  0  -0.103022  -0.091614  0  4.019487  0
C  C40  1  0.61437582  0.34601091  0.73273448  1  0  -0.110218  0  3.797475  0  0  -0.129422  0  4.045835  0  0  -0.130847  0  4.06613  0  0  -0.103887  -0.128148  0  4.031951  0
C  C41  1  0.11438641  0.65399224  0.26726580  1  0  -0.110021  0  3.797419  0  0  -0.129216  0  4.045734  0  0  -0.130631  0  4.066022  0  0  -0.103792  -0.127931  0  4.031865  0
C  C42  1  0.67184276  0.22954969  0.73865716  1  0  -0.047533  0  3.816651  0  0  -0.030132  0  4.070498  0  0  -0.031835  0  4.093509  0  0  -0.01669  -0.029289  0  4.054953  0
C  C43  1  0.17184732  0.77045289  0.26134429  1  0  -0.047691  0  3.816916  0  0  -0.030254  0  4.070748  0  0  -0.03196  0  4.093761  0  0  -0.016748  -0.02941  0  4.055201  0
C  C44  1  0.71404681  0.70776063  0.76160731  1  0  0.220416  0  3.799288  0  0  0.193373  0  4.108664  0  0  0.215731  0  4.11798  0  0  0.131302  0.178358  0  4.101572  0
C  C45  1  0.21404640  0.29223948  0.23839180  1  0  0.220379  0  3.799296  0  0  0.193369  0  4.108587  0  0  0.215723  0  4.117911  0  0  0.131307  0.178356  0  4.101494  0
C  C46  1  0.64285927  0.84126207  0.88591617  1  0  0.179303  0  3.774929  0  0  0.169309  0  4.016486  0  0  0.174399  0  4.040298  0  0  0.099489  0.165872  0  4.000516  0
C  C47  1  0.14285484  0.15873495  0.11408362  1  0  0.17924  0  3.774939  0  0  0.169269  0  4.016465  0  0  0.174354  0  4.040285  0  0  0.09956  0.165832  0  4.000496  0
C  C48  1  0.57353186  0.94194179  0.93540374  1  0  -0.143557  0  3.717356  0  0  -0.162131  0  3.964148  0  0  -0.165647  0  3.984774  0  0  -0.091387  -0.159786  0  3.950212  0
C  C49  1  0.07352189  0.05805663  0.06459497  1  0  -0.143581  0  3.717408  0  0  -0.16216  0  3.964215  0  0  -0.165678  0  3.98484  0  0  -0.091399  -0.159816  0  3.950282  0
C  C50  1  0.59646797  0.95747686  0.03048872  1  0  -0.05802  0  3.775626  0  0  -0.072426  0  4.024347  0  0  -0.073194  0  4.04496  0  0  -0.095933  -0.071742  0  4.010246  0
C  C51  1  0.09645843  0.04252169  0.96950855  1  0  -0.058047  0  3.775699  0  0  -0.072457  0  4.024405  0  0  -0.073228  0  4.045021  0  0  -0.095936  -0.071777  0  4.010305  0
C  C52  1  0.68819184  0.87562559  0.07660567  1  0  -0.079722  0  3.80316  0  0  -0.096905  0  4.061426  0  0  -0.099582  0  4.084016  0  0  -0.102974  -0.094975  0  4.045914  0
C  C53  1  0.18818481  0.12437348  0.92339413  1  0  -0.079698  0  3.803153  0  0  -0.096881  0  4.061386  0  0  -0.099543  0  4.083988  0  0  -0.103041  -0.094952  0  4.045878  0
C  C54  1  0.75801295  0.77501793  0.02835836  1  0  -0.108457  0  3.777121  0  0  -0.126203  0  4.019495  0  0  -0.127654  0  4.039849  0  0  -0.098354  -0.125015  0  4.005438  0
C  C55  1  0.25800781  0.22498243  0.97164202  1  0  -0.108506  0  3.777199  0  0  -0.126266  0  4.019596  0  0  -0.127717  0  4.039944  0  0  -0.098375  -0.125078  0  4.005539  0
C  C56  1  0.73379123  0.75857985  0.93309699  1  0  -0.040801  0  3.811808  0  0  -0.02416  0  4.066834  0  0  -0.025819  0  4.089848  0  0  -0.015051  -0.023188  0  4.0513  0
C  C57  1  0.23379055  0.24142127  0.06690282  1  0  -0.040719  0  3.811681  0  0  -0.02412  0  4.066749  0  0  -0.025775  0  4.089765  0  0  -0.01507  -0.023147  0  4.051215  0
C  C58  1  0.54617720  0.86211387  0.55088880  1  0  0.21284  0  3.777015  0  0  0.188774  0  4.077445  0  0  0.210438  0  4.086246  0  0  0.13611  0.174325  0  4.071077  0
C  C59  1  0.04617938  0.13789071  0.44911381  1  0  0.212752  0  3.777026  0  0  0.188694  0  4.077459  0  0  0.21036  0  4.086259  0  0  0.136111  0.174245  0  4.071087  0
C  C60  1  0.37736141  0.74871150  0.63561061  1  0  0.175921  0  3.793685  0  0  0.166414  0  4.035564  0  0  0.171734  0  4.058912  0  0  0.100956  0.163044  0  4.019528  0
C  C61  1  0.87736648  0.25129042  0.36438953  1  0  0.175927  0  3.793775  0  0  0.166375  0  4.03566  0  0  0.171699  0  4.059  0  0  0.101002  0.163002  0  4.019624  0
C  C62  1  0.28990260  0.71255690  0.71115084  1  0  -0.134513  0  3.696734  0  0  -0.153909  0  3.948969  0  0  -0.156678  0  3.967463  0  0  -0.084526  -0.151754  0  3.935888  0
C  C63  1  0.78990628  0.28744453  0.28884883  1  0  -0.134467  0  3.696803  0  0  -0.153851  0  3.949013  0  0  -0.156623  0  3.96751  0  0  -0.084515  -0.151697  0  3.935935  0
C  C64  1  0.18305213  0.61560197  0.69678016  1  0  -0.065377  0  3.786344  0  0  -0.078598  0  4.037824  0  0  -0.078902  0  4.057356  0  0  -0.091828  -0.078132  0  4.024147  0
C  C65  1  0.68305673  0.38439619  0.30322097  1  0  -0.065418  0  3.786456  0  0  -0.078666  0  4.037975  0  0  -0.078969  0  4.057507  0  0  -0.09185  -0.0782  0  4.024295  0
C  C66  1  0.16389265  0.55348831  0.60935626  1  0  -0.079833  0  3.801201  0  0  -0.090967  0  4.048107  0  0  -0.093686  0  4.069984  0  0  -0.096578  -0.088712  0  4.033368  0
C  C67  1  0.66389715  0.44651152  0.39064297  1  0  -0.079969  0  3.801345  0  0  -0.091118  0  4.04826  0  0  -0.09384  0  4.070138  0  0  -0.096691  -0.088864  0  4.033522  0
C  C68  1  0.24881567  0.58918751  0.53345459  1  0  -0.117541  0  3.777923  0  0  -0.129725  0  4.014845  0  0  -0.131566  0  4.035797  0  0  -0.097134  -0.128387  0  4.000597  0
C  C69  1  0.74882401  0.41081638  0.46654467  1  0  -0.117533  0  3.777935  0  0  -0.129721  0  4.014831  0  0  -0.131566  0  4.035787  0  0  -0.097076  -0.128384  0  4.000585  0
C  C70  1  0.35369619  0.68775914  0.54743630  1  0  -0.061546  0  3.842387  0  0  -0.043306  0  4.092713  0  0  -0.045377  0  4.116282  0  0  -0.016438  -0.042277  0  4.076957  0
C  C71  1  0.85370114  0.31224534  0.45256270  1  0  -0.061544  0  3.842398  0  0  -0.0432  0  4.09257  0  0  -0.04527  0  4.11614  0  0  -0.016444  -0.042171  0  4.07682  0
S  S72  1  0.96195370  0.92809587  0.74238505  1  0  -0.381398  0  2.039015  0  0  -0.360375  0  2.37585  0  0  -0.377642  0  2.375719  0  0  -0.167589  -0.348563  0  2.375291  0
S  S73  1  0.46195440  0.07190920  0.25761163  1  0  -0.381374  0  2.039007  0  0  -0.360388  0  2.375869  0  0  -0.377664  0  2.375739  0  0  -0.167595  -0.348577  0  2.375307  0
S  S74  1  0.86927431  0.18291458  0.75906636  1  0  0.076392  0  2.508141  0  0  0.082959  0  2.818869  0  0  0.080117  0  2.820415  0  0  0.089061  0.084522  0  2.817697  0
S  S75  1  0.36927589  0.81708998  0.24093261  1  0  0.076389  0  2.508252  0  0  0.082941  0  2.818955  0  0  0.080103  0  2.820501  0  0  0.089043  0.084502  0  2.817785  0
S  S76  1  0.73932653  0.63929054  0.65553192  1  0  -0.419433  0  2.070836  0  0  -0.395582  0  2.40075  0  0  -0.414484  0  2.402182  0  0  -0.179624  -0.381748  0  2.399039  0
S  S77  1  0.23933204  0.36071149  0.34446587  1  0  -0.419419  0  2.070823  0  0  -0.39557  0  2.400674  0  0  -0.414469  0  2.402113  0  0  -0.179627  -0.381738  0  2.39896  0
S  S78  1  0.80278873  0.64363360  0.85469397  1  0  0.05605  0  2.461142  0  0  0.061559  0  2.756363  0  0  0.058923  0  2.756507  0  0  0.078653  0.063333  0  2.756117  0
S  S79  1  0.30278739  0.35636610  0.14530486  1  0  0.056075  0  2.461169  0  0  0.061579  0  2.756388  0  0  0.058942  0  2.756532  0  0  0.078671  0.063348  0  2.756141  0
S  S80  1  0.67665532  0.96727673  0.51884368  1  0  -0.406356  0  2.117142  0  0  -0.373444  0  2.46929  0  0  -0.391098  0  2.469939  0  0  -0.16854  -0.36074  0  2.468702  0
S  S81  1  0.17665486  0.03272677  0.48115645  1  0  -0.406287  0  2.117094  0  0  -0.373387  0  2.469248  0  0  -0.39104  0  2.469893  0  0  -0.168542  -0.360687  0  2.468661  0
S  S82  1  0.46597412  0.75770276  0.46698080  1  0  0.090241  0  2.569588  0  0  0.093902  0  2.902604  0  0  0.091109  0  2.904914  0  0  0.10824  0.09534  0  2.901716  0
S  S83  1  0.96597883  0.24230056  0.53302057  1  0  0.090325  0  2.569592  0  0  0.093942  0  2.902579  0  0  0.09115  0  2.90489  0  0  0.108254  0.095378  0  2.901694  0
N  N84  1  0.64943632  0.01913029  0.72976600  1  0  -0.328782  0  3.41714  0  0  -0.23017  0  3.649362  0  0  -0.250314  0  3.666224  0  0  -0.22061  -0.216426  0  3.637196  0
N  N85  1  0.14943698  0.98087036  0.27023401  1  0  -0.328827  0  3.417317  0  0  -0.23019  0  3.649508  0  0  -0.250333  0  3.666368  0  0  -0.220615  -0.216453  0  3.637351  0
N  N86  1  0.63376248  0.81110345  0.79036878  1  0  -0.332933  0  3.421798  0  0  -0.237003  0  3.657237  0  0  -0.257531  0  3.675087  0  0  -0.223016  -0.222868  0  3.644399  0
N  N87  1  0.13375875  0.18889532  0.20963115  1  0  -0.332894  0  3.421828  0  0  -0.236939  0  3.657204  0  0  -0.257456  0  3.675044  0  0  -0.223034  -0.222801  0  3.644349  0
N  N88  1  0.49044324  0.84285663  0.63610177  1  0  -0.308852  0  3.413926  0  0  -0.211477  0  3.643  0  0  -0.231385  0  3.661133  0  0  -0.213215  -0.198133  0  3.630392  0
N  N89  1  0.99044607  0.15714593  0.36389879  1  0  -0.308888  0  3.413874  0  0  -0.211486  0  3.642907  0  0  -0.231402  0  3.661056  0  0  -0.213225  -0.198134  0  3.630277  0
