# generated using pymatgen
data_BaH8C4N12O5
_symmetry_space_group_name_H-M   'P 1'
_cell_length_a   7.18600823
_cell_length_b   8.60671634
_cell_length_c   10.96953552
_cell_angle_alpha   95.88115185
_cell_angle_beta   109.11482609
_cell_angle_gamma   90.01362605
_symmetry_Int_Tables_number   1
_chemical_formula_structural   BaH8C4N12O5
_chemical_formula_sum   'Ba2 H16 C8 N24 O10'
_cell_volume   637.25032322
_cell_formula_units_Z   2
loop_
 _symmetry_equiv_pos_site_id
 _symmetry_equiv_pos_as_xyz
  1  'x, y, z'
loop_
 _atom_site_type_symbol
 _atom_site_label
 _atom_site_symmetry_multiplicity
 _atom_site_fract_x
 _atom_site_fract_y
 _atom_site_fract_z
 _atom_site_occupancy
 _atom_site_hle17_bader_spin_density
 _atom_site_hle17_ddec_charge
 _atom_site_hle17_ddec_spin_density
 _atom_site_hle17_ddec_sum_bond_order
 _atom_site_hle17_magmom
 _atom_site_hse06_10hf_bader_spin_density
 _atom_site_hse06_10hf_ddec_charge
 _atom_site_hse06_10hf_ddec_spin_density
 _atom_site_hse06_10hf_ddec_sum_bond_order
 _atom_site_hse06_10hf_magmom
 _atom_site_hse06_bader_spin_density
 _atom_site_hse06_ddec_charge
 _atom_site_hse06_ddec_spin_density
 _atom_site_hse06_ddec_sum_bond_order
 _atom_site_hse06_magmom
 _atom_site_pbe_bader_spin_density
 _atom_site_pbe_cm5_charge
 _atom_site_pbe_ddec_charge
 _atom_site_pbe_ddec_spin_density
 _atom_site_pbe_ddec_sum_bond_order
 _atom_site_pbe_magmom
Ba  Ba0  1  0.38263528  0.24997188  0.99997448  1  0  1.493921  0  1.280164  0  0  1.289053  0  1.722049  0  0  1.331809  0  1.679955  0  0  0.972828  1.257985  0  1.751737  0
Ba  Ba1  1  0.61736581  0.75002815  0.00002497  1  0  1.493931  0  1.280155  0  0  1.289064  0  1.722039  0  0  1.33182  0  1.679936  0  0  0.972827  1.257963  0  1.751751  0
H  H2  1  0.15062897  0.22802606  0.55678221  1  0  0.121695  0  0.959745  0  0  0.135582  0  1.032799  0  0  0.136647  0  1.031215  0  0  0.109876  0.134537  0  1.03348  0
H  H3  1  0.59352064  0.27209852  0.44312338  1  0  0.122202  0  0.95922  0  0  0.135779  0  1.032373  0  0  0.136905  0  1.030816  0  0  0.109752  0.13471  0  1.033062  0
H  H4  1  0.84937074  0.77197629  0.44322078  1  0  0.121674  0  0.959768  0  0  0.135557  0  1.032824  0  0  0.13662  0  1.031247  0  0  0.109853  0.134511  0  1.033505  0
H  H5  1  0.40647620  0.72790502  0.55687453  1  0  0.122253  0  0.959147  0  0  0.135799  0  1.032339  0  0  0.136924  0  1.030744  0  0  0.10975  0.134728  0  1.033031  0
H  H6  1  0.25832359  0.31089056  0.45015884  1  0  0.118508  0  0.955112  0  0  0.129121  0  1.03448  0  0  0.130775  0  1.031745  0  0  0.112956  0.127686  0  1.035892  0
H  H7  1  0.80782974  0.18930534  0.54968664  1  0  0.118318  0  0.954519  0  0  0.128974  0  1.033715  0  0  0.130715  0  1.030912  0  0  0.112792  0.127509  0  1.03515  0
H  H8  1  0.74167469  0.68911295  0.54984484  1  0  0.118516  0  0.955077  0  0  0.129111  0  1.034451  0  0  0.130764  0  1.031705  0  0  0.112933  0.127675  0  1.035865  0
H  H9  1  0.19216853  0.81069703  0.45031148  1  0  0.118287  0  0.954562  0  0  0.128968  0  1.033729  0  0  0.1307  0  1.030963  0  0  0.112784  0.127514  0  1.035126  0
H  H10  1  0.29373183  0.10956994  0.47744289  1  0  0.123363  0  0.955135  0  0  0.134615  0  1.033709  0  0  0.136684  0  1.030681  0  0  0.113316  0.132841  0  1.035496  0
H  H11  1  0.81601200  0.39060576  0.52237660  1  0  0.123449  0  0.955361  0  0  0.133981  0  1.034588  0  0  0.136085  0  1.031617  0  0  0.113042  0.132408  0  1.035957  0
H  H12  1  0.70626941  0.89043358  0.52255870  1  0  0.123382  0  0.955161  0  0  0.134646  0  1.03371  0  0  0.136713  0  1.030671  0  0  0.113309  0.132872  0  1.035498  0
H  H13  1  0.18398769  0.60939545  0.47761990  1  0  0.123483  0  0.955306  0  0  0.133994  0  1.034557  0  0  0.136098  0  1.031582  0  0  0.113063  0.132422  0  1.035926  0
H  H14  1  0.92975406  0.33331599  0.03317347  1  0  0.419155  0  0.875953  0  0  0.391139  0  0.936546  0  0  0.400728  0  0.9226  0  0  0.304822  0.384309  0  0.946513  0
H  H15  1  0.89639749  0.16650927  0.96672211  1  0  0.419698  0  0.875567  0  0  0.392138  0  0.935062  0  0  0.401714  0  0.92113  0  0  0.305595  0.385353  0  0.944955  0
H  H16  1  0.07024860  0.66668636  0.96682924  1  0  0.419092  0  0.876045  0  0  0.391104  0  0.936581  0  0  0.400691  0  0.922637  0  0  0.304803  0.384277  0  0.94654  0
H  H17  1  0.10360519  0.83349310  0.03327696  1  0  0.419767  0  0.875514  0  0  0.392195  0  0.935  0  0  0.401773  0  0.921079  0  0  0.305616  0.385409  0  0.944895  0
C  C18  1  0.89370561  0.25628796  0.27739488  1  0  0.41199  0  3.799404  0  0  0.359904  0  4.08835  0  0  0.389216  0  4.096668  0  0  0.347627  0.347494  0  4.081856  0
C  C19  1  0.61624084  0.24381954  0.72258786  1  0  0.410736  0  3.800066  0  0  0.359331  0  4.087911  0  0  0.38803  0  4.096903  0  0  0.34762  0.346987  0  4.081414  0
C  C20  1  0.10629557  0.74371439  0.72260752  1  0  0.412027  0  3.799197  0  0  0.359894  0  4.088216  0  0  0.389203  0  4.096519  0  0  0.347617  0.347484  0  4.081722  0
C  C21  1  0.38376202  0.75618634  0.27741063  1  0  0.410786  0  3.800048  0  0  0.359362  0  4.08796  0  0  0.388264  0  4.096351  0  0  0.347619  0.347017  0  4.081464  0
C  C22  1  0.19178162  0.20538922  0.46884880  1  0  -0.194595  0  3.597279  0  0  -0.314468  0  3.848076  0  0  -0.299731  0  3.85888  0  0  -0.132914  -0.316319  0  3.844479  0
C  C23  1  0.72263352  0.29481286  0.53102250  1  0  -0.19478  0  3.596667  0  0  -0.313929  0  3.846949  0  0  -0.299569  0  3.857387  0  0  -0.132363  -0.315893  0  3.843494  0
C  C24  1  0.80821667  0.79461430  0.53115398  1  0  -0.194592  0  3.597252  0  0  -0.314472  0  3.84804  0  0  -0.299728  0  3.858813  0  0  -0.132847  -0.316321  0  3.844443  0
C  C25  1  0.27736481  0.70519068  0.46897391  1  0  -0.194856  0  3.596626  0  0  -0.313978  0  3.846954  0  0  -0.299597  0  3.857415  0  0  -0.132348  -0.315937  0  3.843504  0
N  N26  1  0.01873860  0.16159996  0.35642310  1  0  0.018776  0  3.492663  0  0  0.142258  0  3.676611  0  0  0.096689  0  3.740145  0  0  -0.111642  0.150361  0  3.661384  0
N  N27  1  0.66213714  0.33853119  0.64351508  1  0  0.017583  0  3.494351  0  0  0.141502  0  3.677164  0  0  0.096938  0  3.739722  0  0  -0.111571  0.149537  0  3.661984  0
N  N28  1  0.98126264  0.83840356  0.64357940  1  0  0.018786  0  3.492632  0  0  0.142279  0  3.676574  0  0  0.096718  0  3.740071  0  0  -0.111666  0.150381  0  3.661347  0
N  N29  1  0.33786560  0.66147235  0.35648411  1  0  0.017638  0  3.494268  0  0  0.141493  0  3.677183  0  0  0.096874  0  3.739834  0  0  -0.111628  0.149527  0  3.662004  0
N  N30  1  0.96167723  0.01179712  0.31221957  1  0  -0.074983  0  2.85461  0  0  -0.090753  0  3.129431  0  0  -0.077223  0  3.14592  0  0  -0.060116  -0.092417  0  3.122326  0
N  N31  1  0.64926166  0.48831922  0.68771758  1  0  -0.074043  0  2.857373  0  0  -0.090106  0  3.132223  0  0  -0.07691  0  3.148454  0  0  -0.060276  -0.091927  0  3.125375  0
N  N32  1  0.03832401  0.98820640  0.68778293  1  0  -0.075009  0  2.85466  0  0  -0.090765  0  3.129457  0  0  -0.07723  0  3.145909  0  0  -0.060105  -0.092426  0  3.122354  0
N  N33  1  0.35073666  0.51168432  0.31227973  1  0  -0.074053  0  2.857369  0  0  -0.090074  0  3.132209  0  0  -0.07686  0  3.148473  0  0  -0.060217  -0.091895  0  3.125361  0
N  N34  1  0.80626779  0.01500733  0.20922922  1  0  -0.094519  0  3.037122  0  0  -0.076246  0  3.350236  0  0  -0.077096  0  3.357978  0  0  -0.10403  -0.075016  0  3.342241  0
N  N35  1  0.59694481  0.48507108  0.79075286  1  0  -0.095014  0  3.03939  0  0  -0.076766  0  3.352474  0  0  -0.077625  0  3.360291  0  0  -0.104078  -0.075577  0  3.344451  0
N  N36  1  0.19373345  0.98499619  0.79077328  1  0  -0.094523  0  3.037054  0  0  -0.076246  0  3.350159  0  0  -0.077086  0  3.357897  0  0  -0.104067  -0.075018  0  3.342163  0
N  N37  1  0.40305640  0.51493129  0.20924589  1  0  -0.095003  0  3.039473  0  0  -0.076769  0  3.35256  0  0  -0.07763  0  3.360403  0  0  -0.104082  -0.075584  0  3.344536  0
N  N38  1  0.75884007  0.16341707  0.18438278  1  0  -0.37656  0  3.03513  0  0  -0.346285  0  3.328653  0  0  -0.359142  0  3.337074  0  0  -0.253337  -0.337431  0  3.320205  0
N  N39  1  0.57444248  0.33664857  0.81562682  1  0  -0.375349  0  3.034789  0  0  -0.345256  0  3.327947  0  0  -0.358102  0  3.336553  0  0  -0.253156  -0.336305  0  3.319225  0
N  N40  1  0.24116117  0.83658645  0.81561882  1  0  -0.376602  0  3.035028  0  0  -0.346302  0  3.328546  0  0  -0.359159  0  3.336963  0  0  -0.253338  -0.337444  0  3.3201  0
N  N41  1  0.42556462  0.66335379  0.18437231  1  0  -0.375427  0  3.034796  0  0  -0.345322  0  3.327998  0  0  -0.358167  0  3.336597  0  0  -0.253194  -0.336366  0  3.319275  0
N  N42  1  0.91762570  0.41434864  0.30947717  1  0  -0.381172  0  2.860821  0  0  -0.394498  0  3.155508  0  0  -0.402887  0  3.161101  0  0  -0.207906  -0.385517  0  3.152364  0
N  N43  1  0.60813662  0.08574852  0.69054764  1  0  -0.379739  0  2.861293  0  0  -0.39337  0  3.155918  0  0  -0.406254  0  3.156816  0  0  -0.20769  -0.384408  0  3.153048  0
N  N44  1  0.08237407  0.58565488  0.69052411  1  0  -0.381143  0  2.860668  0  0  -0.394444  0  3.155381  0  0  -0.402812  0  3.160996  0  0  -0.207852  -0.385462  0  3.152236  0
N  N45  1  0.39186454  0.91425268  0.30945101  1  0  -0.379746  0  2.861159  0  0  -0.393396  0  3.155771  0  0  -0.401401  0  3.16183  0  0  -0.207726  -0.384436  0  3.152901  0
N  N46  1  0.84284867  0.50458387  0.21789567  1  0  0.609602  0  4.043056  0  0  0.65695  0  4.308893  0  0  0.667299  0  4.340148  0  0  0.11299  0.640448  0  4.301865  0
N  N47  1  0.62481340  0.99551834  0.78211623  1  0  0.608641  0  4.047221  0  0  0.655588  0  4.313408  0  0  0.6799  0  4.324162  0  0  0.113177  0.639117  0  4.306274  0
N  N48  1  0.15715100  0.49541732  0.78210447  1  0  0.609626  0  4.042821  0  0  0.656954  0  4.308697  0  0  0.667244  0  4.340037  0  0  0.112959  0.640453  0  4.301673  0
N  N49  1  0.37518482  0.00448287  0.21788087  1  0  0.608397  0  4.04719  0  0  0.655434  0  4.313283  0  0  0.66481  0  4.346039  0  0  0.113093  0.638963  0  4.306152  0
O  O50  1  0.75291002  0.45191253  0.09722934  1  0  -0.57586  0  1.851813  0  0  -0.537497  0  2.072406  0  0  -0.552317  0  2.073069  0  0  -0.22836  -0.523732  0  2.075579  0
O  O51  1  0.65533390  0.04816864  0.90276728  1  0  -0.574805  0  1.853582  0  0  -0.536866  0  2.074561  0  0  -0.556374  0  2.069856  0  0  -0.228255  -0.52313  0  2.077911  0
O  O52  1  0.24708958  0.54808749  0.90277160  1  0  -0.575836  0  1.851721  0  0  -0.537468  0  2.072316  0  0  -0.552268  0  2.073002  0  0  -0.228352  -0.523705  0  2.075488  0
O  O53  1  0.34466573  0.95183139  0.09723094  1  0  -0.574725  0  1.85369  0  0  -0.536813  0  2.074658  0  0  -0.551385  0  2.075992  0  0  -0.22821  -0.523079  0  2.07801  0
O  O54  1  0.86275197  0.65027755  0.24797983  1  0  -0.447247  0  1.810369  0  0  -0.43488  0  2.036375  0  0  -0.446744  0  2.039503  0  0  -0.173781  -0.423383  0  2.038354  0
O  O55  1  0.61473881  0.84984075  0.75204769  1  0  -0.447466  0  1.811362  0  0  -0.434822  0  2.037444  0  0  -0.451381  0  2.03461  0  0  -0.174174  -0.423282  0  2.039273  0
O  O56  1  0.13724776  0.34972482  0.75202043  1  0  -0.447294  0  1.810323  0  0  -0.434946  0  2.036333  0  0  -0.446788  0  2.039485  0  0  -0.173769  -0.42345  0  2.038313  0
O  O57  1  0.38525062  0.15016163  0.24794760  1  0  -0.447278  0  1.811229  0  0  -0.43467  0  2.03724  0  0  -0.446244  0  2.040843  0  0  -0.174098  -0.423127  0  2.039051  0
O  O58  1  0.99969910  0.24988713  0.99991997  1  0  -0.851527  0  1.801516  0  0  -0.800178  0  1.974728  0  0  -0.818814  0  1.946508  0  0  -0.632737  -0.786944  0  1.994517  0
O  O59  1  0.00030356  0.75011523  0.00008184  1  0  -0.851537  0  1.801575  0  0  -0.800187  0  1.974743  0  0  -0.818825  0  1.946514  0  0  -0.632736  -0.78695  0  1.994534  0
