# generated using pymatgen
data_AgH14C16S(NO)2
_symmetry_space_group_name_H-M   'P 1'
_cell_length_a   7.52430948
_cell_length_b   11.97726643
_cell_length_c   13.02309693
_cell_angle_alpha   73.02390468
_cell_angle_beta   84.90485022
_cell_angle_gamma   72.90886083
_symmetry_Int_Tables_number   1
_chemical_formula_structural   AgH14C16S(NO)2
_chemical_formula_sum   'Ag2 H28 C32 S2 N4 O4'
_cell_volume   1072.93267748
_cell_formula_units_Z   2
loop_
 _symmetry_equiv_pos_site_id
 _symmetry_equiv_pos_as_xyz
  1  'x, y, z'
loop_
 _atom_site_type_symbol
 _atom_site_label
 _atom_site_symmetry_multiplicity
 _atom_site_fract_x
 _atom_site_fract_y
 _atom_site_fract_z
 _atom_site_occupancy
 _atom_site_hle17_bader_spin_density
 _atom_site_hle17_ddec_charge
 _atom_site_hle17_ddec_spin_density
 _atom_site_hle17_ddec_sum_bond_order
 _atom_site_hle17_magmom
 _atom_site_hse06_10hf_bader_spin_density
 _atom_site_hse06_10hf_ddec_charge
 _atom_site_hse06_10hf_ddec_spin_density
 _atom_site_hse06_10hf_ddec_sum_bond_order
 _atom_site_hse06_10hf_magmom
 _atom_site_hse06_bader_spin_density
 _atom_site_hse06_ddec_charge
 _atom_site_hse06_ddec_spin_density
 _atom_site_hse06_ddec_sum_bond_order
 _atom_site_hse06_magmom
 _atom_site_pbe_bader_spin_density
 _atom_site_pbe_cm5_charge
 _atom_site_pbe_ddec_charge
 _atom_site_pbe_ddec_spin_density
 _atom_site_pbe_ddec_sum_bond_order
 _atom_site_pbe_magmom
Ag  Ag0  1  0.30259378  0.25865483  0.10160230  1  0  0.419129  0  1.692473  0  0  0.278217  0  2.188368  0  0  0.303883  0  2.140903  0  0  0.420864  0.261653  0  2.220208  0
Ag  Ag1  1  0.69740657  0.74134138  0.89840161  1  0  0.419076  0  1.692503  0  0  0.278189  0  2.188364  0  0  0.303851  0  2.140904  0  0  0.420852  0.261626  0  2.220204  0
H  H2  1  0.27778243  0.77227188  0.82460431  1  0  0.092074  0  0.961108  0  0  0.095846  0  1.029814  0  0  0.098618  0  1.027902  0  0  0.114228  0.09384  0  1.031132  0
H  H3  1  0.72221924  0.22772795  0.17538706  1  0  0.092054  0  0.961085  0  0  0.095797  0  1.029826  0  0  0.09857  0  1.027915  0  0  0.114211  0.093791  0  1.031144  0
H  H4  1  0.08020251  0.64908026  0.80160160  1  0  0.115912  0  0.971349  0  0  0.120373  0  1.042261  0  0  0.124557  0  1.039664  0  0  0.10403  0.11726  0  1.044316  0
H  H5  1  0.91980025  0.35091684  0.19839274  1  0  0.115886  0  0.971435  0  0  0.120361  0  1.042335  0  0  0.124544  0  1.039737  0  0  0.104003  0.117252  0  1.044379  0
H  H6  1  0.56274646  0.33558384  0.87274702  1  0  0.092068  0  0.976849  0  0  0.102872  0  1.042175  0  0  0.105852  0  1.040677  0  0  0.099691  0.100806  0  1.043324  0
H  H7  1  0.43726468  0.66441228  0.12725026  1  0  0.092105  0  0.9768  0  0  0.102908  0  1.042119  0  0  0.105888  0  1.040621  0  0  0.099712  0.100841  0  1.043268  0
H  H8  1  0.74133741  0.47158671  0.89724375  1  0  0.049423  0  1.006069  0  0  0.05082  0  1.088584  0  0  0.053101  0  1.087064  0  0  0.093816  0.049228  0  1.08955  0
H  H9  1  0.25866450  0.52841220  0.10275860  1  0  0.049422  0  1.006063  0  0  0.050818  0  1.088581  0  0  0.053098  0  1.087063  0  0  0.093822  0.049231  0  1.089545  0
H  H10  1  0.08123104  0.44925891  0.76565847  1  0  0.111677  0  0.90733  0  0  0.132287  0  0.953663  0  0  0.133949  0  0.952918  0  0  0.108425  0.130994  0  0.954334  0
H  H11  1  0.91876820  0.55074003  0.23434322  1  0  0.111637  0  0.907309  0  0  0.132249  0  0.953648  0  0  0.133908  0  0.952901  0  0  0.108406  0.130956  0  0.954319  0
H  H12  1  0.28181248  0.31994434  0.80223832  1  0  0.099548  0  0.945665  0  0  0.114504  0  1.006101  0  0  0.115799  0  1.006042  0  0  0.100545  0.113491  0  1.006245  0
H  H13  1  0.71818450  0.68005372  0.19776065  1  0  0.099554  0  0.94564  0  0  0.114513  0  1.006082  0  0  0.115806  0  1.006018  0  0  0.100561  0.1135  0  1.006226  0
H  H14  1  0.91259050  0.27194630  0.85543624  1  0  0.101459  0  0.921414  0  0  0.120269  0  0.974515  0  0  0.121509  0  0.974129  0  0  0.103156  0.119235  0  0.974947  0
H  H15  1  0.08741618  0.72805075  0.14456638  1  0  0.101498  0  0.921387  0  0  0.12028  0  0.974519  0  0  0.121521  0  0.974131  0  0  0.103171  0.119249  0  0.974948  0
H  H16  1  0.91151130  0.20553970  0.99813391  1  0  0.129292  0  0.925742  0  0  0.145211  0  0.983279  0  0  0.146684  0  0.983405  0  0  0.113473  0.144007  0  0.983412  0
H  H17  1  0.08849062  0.79445922  0.00186767  1  0  0.1293  0  0.925748  0  0  0.145202  0  0.98331  0  0  0.146673  0  0.983436  0  0  0.113491  0.144002  0  0.983444  0
H  H18  1  0.17716999  0.17509600  0.74432132  1  0  0.1016  0  0.940559  0  0  0.11684  0  0.991253  0  0  0.119634  0  0.990633  0  0  0.108703  0.114816  0  0.991866  0
H  H19  1  0.82283078  0.82490564  0.25568189  1  0  0.101641  0  0.940682  0  0  0.116865  0  0.991376  0  0  0.119658  0  0.990758  0  0  0.108698  0.114839  0  0.991988  0
H  H20  1  0.43283630  0.98764262  0.73985064  1  0  0.090249  0  0.911739  0  0  0.100974  0  0.966487  0  0  0.103562  0  0.964822  0  0  0.123671  0.099023  0  0.967803  0
H  H21  1  0.56716586  0.01235902  0.26014867  1  0  0.090324  0  0.911701  0  0  0.10101  0  0.966485  0  0  0.103598  0  0.964818  0  0  0.123683  0.099058  0  0.967799  0
H  H22  1  0.41712719  0.84983976  0.06996664  1  0  0.054687  0  0.954091  0  0  0.065008  0  1.019828  0  0  0.067065  0  1.018151  0  0  0.104513  0.063581  0  1.020914  0
H  H23  1  0.58287205  0.15015284  0.93003214  1  0  0.054715  0  0.954109  0  0  0.065029  0  1.019852  0  0  0.067082  0  1.01818  0  0  0.104549  0.063602  0  1.020937  0
H  H24  1  0.16158501  0.03221629  0.08923305  1  0  0.135665  0  0.990708  0  0  0.142353  0  1.05288  0  0  0.147065  0  1.049962  0  0  0.106826  0.138878  0  1.055195  0
H  H25  1  0.83842280  0.96777804  0.91076947  1  0  0.135693  0  0.990589  0  0  0.142321  0  1.052833  0  0  0.14703  0  1.049916  0  0  0.106823  0.138851  0  1.055143  0
H  H26  1  0.14590608  0.16889624  0.46570288  1  0  0.094336  0  0.951496  0  0  0.103134  0  1.01108  0  0  0.107338  0  1.008181  0  0  0.095194  0.100224  0  1.013015  0
H  H27  1  0.85406610  0.83111654  0.53429872  1  0  0.094355  0  0.951441  0  0  0.103187  0  1.010989  0  0  0.107391  0  1.008088  0  0  0.095237  0.100277  0  1.012922  0
H  H28  1  0.93723444  0.93561394  0.34535142  1  0  0.078524  0  0.988578  0  0  0.085136  0  1.059462  0  0  0.088481  0  1.05743  0  0  0.088014  0.082783  0  1.060904  0
H  H29  1  0.06275206  0.06439960  0.65465313  1  0  0.078369  0  0.988626  0  0  0.08504  0  1.059455  0  0  0.08835  0  1.057454  0  0  0.087984  0.082688  0  1.060897  0
C  C30  1  0.33789320  0.67488197  0.83560338  1  0  0.131875  0  3.67549  0  0  0.103986  0  3.923419  0  0  0.110297  0  3.941862  0  0  0.046  0.0998  0  3.911034  0
C  C31  1  0.66211037  0.32511966  0.16439049  1  0  0.131909  0  3.675376  0  0  0.104077  0  3.923279  0  0  0.110388  0  3.941719  0  0  0.045976  0.099892  0  3.910893  0
C  C32  1  0.22663605  0.60520774  0.82226292  1  0  -0.166221  0  3.684351  0  0  -0.181979  0  3.925637  0  0  -0.190684  0  3.948756  0  0  -0.085669  -0.176164  0  3.910155  0
C  C33  1  0.77336693  0.39479207  0.17773146  1  0  -0.166308  0  3.684284  0  0  -0.182069  0  3.925598  0  0  -0.190772  0  3.94872  0  0  -0.085642  -0.176251  0  3.910117  0
C  C34  1  0.30561080  0.48066895  0.83528524  1  0  0.138326  0  3.77442  0  0  0.158435  0  4.007815  0  0  0.161709  0  4.031999  0  0  -0.001182  0.156351  0  3.991479  0
C  C35  1  0.69438981  0.51932998  0.16471410  1  0  0.138579  0  3.77421  0  0  0.158588  0  4.007762  0  0  0.161853  0  4.031965  0  0  -0.001135  0.156504  0  3.991428  0
C  C36  1  0.49444823  0.43207648  0.86151110  1  0  -0.18336  0  3.752458  0  0  -0.202651  0  3.999961  0  0  -0.210337  0  4.022271  0  0  -0.095127  -0.198002  0  3.9853  0
C  C37  1  0.50555582  0.56792061  0.13848703  1  0  -0.183509  0  3.752363  0  0  -0.20276  0  3.999893  0  0  -0.210444  0  4.022203  0  0  -0.095176  -0.198111  0  3.985233  0
C  C38  1  0.59488872  0.50754987  0.87450902  1  0  0.120888  0  3.746608  0  0  0.096216  0  3.992222  0  0  0.101685  0  4.012492  0  0  0.033835  0.092748  0  3.97855  0
C  C39  1  0.40512198  0.49244082  0.12548973  1  0  0.120987  0  3.746707  0  0  0.096323  0  3.992329  0  0  0.101793  0  4.012597  0  0  0.033908  0.092849  0  3.978658  0
C  C40  1  0.19314833  0.40006679  0.82481320  1  0  -0.187807  0  3.654787  0  0  -0.232072  0  3.912301  0  0  -0.231654  0  3.921189  0  0  -0.141842  -0.232375  0  3.906342  0
C  C41  1  0.80685435  0.59993030  0.17518730  1  0  -0.187823  0  3.6547  0  0  -0.232056  0  3.912251  0  0  -0.231623  0  3.921118  0  0  -0.141853  -0.232362  0  3.906295  0
C  C42  1  0.99929738  0.22910916  0.92787344  1  0  -0.193582  0  3.641247  0  0  -0.236538  0  3.896159  0  0  -0.236301  0  3.905316  0  0  -0.140029  -0.236627  0  3.889914  0
C  C43  1  0.00070378  0.77089158  0.07212922  1  0  -0.193604  0  3.641219  0  0  -0.236533  0  3.896172  0  0  -0.236292  0  3.905321  0  0  -0.14006  -0.236631  0  3.889941  0
C  C44  1  0.15001323  0.11882101  0.91799426  1  0  0.143839  0  3.757652  0  0  0.16175  0  3.995473  0  0  0.165042  0  4.019595  0  0  0.002769  0.159703  0  3.979023  0
C  C45  1  0.84998967  0.88117880  0.08200626  1  0  0.143896  0  3.757742  0  0  0.161767  0  3.995586  0  0  0.165059  0  4.019706  0  0  0.00279  0.15972  0  3.979142  0
C  C46  1  0.22803739  0.10582078  0.81906741  1  0  -0.175374  0  3.723699  0  0  -0.193763  0  3.972398  0  0  -0.200941  0  3.993747  0  0  -0.086068  -0.188984  0  3.957935  0
C  C47  1  0.77196721  0.89417811  0.18093405  1  0  -0.175473  0  3.723776  0  0  -0.19382  0  3.972455  0  0  -0.200999  0  3.993808  0  0  -0.086067  -0.18904  0  3.957991  0
C  C48  1  0.36927473  0.00089829  0.81570850  1  0  0.137092  0  3.698381  0  0  0.106615  0  3.954544  0  0  0.113164  0  3.97169  0  0  0.052396  0.102191  0  3.942859  0
C  C49  1  0.63072414  0.99910155  0.18429298  1  0  0.137086  0  3.698285  0  0  0.106639  0  3.954429  0  0  0.113188  0  3.971574  0  0  0.052409  0.102217  0  3.942742  0
C  C50  1  0.35880929  0.92364007  0.99918925  1  0  0.11563  0  3.758096  0  0  0.08827  0  4.013579  0  0  0.093363  0  4.033861  0  0  0.036058  0.085183  0  3.999519  0
C  C51  1  0.64118595  0.07635891  0.00081186  1  0  0.115619  0  3.757999  0  0  0.088241  0  4.013482  0  0  0.093338  0  4.033758  0  0  0.036047  0.085155  0  3.999425  0
C  C52  1  0.21798073  0.02435425  0.01038374  1  0  -0.170975  0  3.692178  0  0  -0.189619  0  3.937893  0  0  -0.197186  0  3.959133  0  0  -0.087429  -0.184744  0  3.923794  0
C  C53  1  0.78202056  0.97563652  0.98961774  1  0  -0.171006  0  3.692051  0  0  -0.189573  0  3.937767  0  0  -0.197136  0  3.959003  0  0  -0.08744  -0.1847  0  3.923669  0
C  C54  1  0.09456546  0.11983126  0.28176690  1  0  0.615651  0  3.969708  0  0  0.571221  0  4.257743  0  0  0.604259  0  4.252156  0  0  0.182539  0.548811  0  4.260573  0
C  C55  1  0.90543517  0.88017400  0.71823458  1  0  0.615651  0  3.969604  0  0  0.57128  0  4.257578  0  0  0.604319  0  4.251991  0  0  0.182659  0.548871  0  4.260409  0
C  C56  1  0.04600704  0.05803557  0.39483427  1  0  -0.052542  0  3.758929  0  0  -0.029241  0  3.985378  0  0  -0.03575  0  4.009373  0  0  -0.024107  -0.024932  0  3.969102  0
C  C57  1  0.95399021  0.94197154  0.60516382  1  0  -0.052572  0  3.75867  0  0  -0.029345  0  3.985242  0  0  -0.035855  0  4.009231  0  0  -0.024084  -0.025036  0  3.968965  0
C  C58  1  0.08176003  0.09480388  0.48191653  1  0  -0.088238  0  3.774995  0  0  -0.108281  0  4.018333  0  0  -0.109914  0  4.039584  0  0  -0.096749  -0.107052  0  4.003712  0
C  C59  1  0.91822914  0.90520330  0.51808498  1  0  -0.088238  0  3.775059  0  0  -0.108292  0  4.018414  0  0  -0.109925  0  4.039674  0  0  -0.09681  -0.107063  0  4.003791  0
C  C60  1  0.96398712  0.96273768  0.41410695  1  0  -0.093451  0  3.788736  0  0  -0.112524  0  4.033005  0  0  -0.114494  0  4.05519  0  0  -0.099747  -0.111065  0  4.017809  0
C  C61  1  0.03599775  0.03727680  0.58589052  1  0  -0.093221  0  3.788372  0  0  -0.112324  0  4.03264  0  0  -0.114259  0  4.054844  0  0  -0.099726  -0.110862  0  4.017443  0
S  S62  1  0.08369155  0.34692426  0.95453624  1  0  0.020041  0  2.68947  0  0  0.048498  0  3.1377  0  0  0.044777  0  3.124752  0  0  -0.007929  0.050601  0  3.146549  0
S  S63  1  0.91631208  0.65307373  0.04546550  1  0  0.020007  0  2.689484  0  0  0.048475  0  3.137682  0  0  0.04475  0  3.124725  0  0  -0.007925  0.050581  0  3.146538  0
N  N64  1  0.51883419  0.62728334  0.86214839  1  0  -0.285778  0  3.254932  0  0  -0.213362  0  3.5325  0  0  -0.228946  0  3.546699  0  0  -0.332008  -0.203174  0  3.522965  0
N  N65  1  0.48116605  0.37271650  0.13785072  1  0  -0.285897  0  3.254999  0  0  -0.213509  0  3.532582  0  0  -0.229092  0  3.546779  0  0  -0.332082  -0.203322  0  3.52305  0
N  N66  1  0.43478592  0.91066950  0.90433620  1  0  -0.299368  0  3.251006  0  0  -0.232429  0  3.536522  0  0  -0.247352  0  3.551104  0  0  -0.332073  -0.222352  0  3.526331  0
N  N67  1  0.56521335  0.08932945  0.09566319  1  0  -0.299411  0  3.251107  0  0  -0.232451  0  3.536618  0  0  -0.247374  0  3.551198  0  0  -0.332084  -0.222373  0  3.526424  0
O  O68  1  0.20400796  0.18674209  0.27281519  1  0  -0.636494  0  2.005705  0  0  -0.56902  0  2.25796  0  0  -0.596432  0  2.244597  0  0  -0.361691  -0.549605  0  2.266191  0
O  O69  1  0.79598903  0.81326230  0.72718594  1  0  -0.636532  0  2.005612  0  0  -0.569092  0  2.257855  0  0  -0.596502  0  2.244491  0  0  -0.361749  -0.549674  0  2.266088  0
O  O70  1  0.02433831  0.10317773  0.20459999  1  0  -0.655805  0  1.943596  0  0  -0.607374  0  2.173628  0  0  -0.631423  0  2.165041  0  0  -0.347108  -0.590156  0  2.17875  0
O  O71  1  0.97567163  0.89681477  0.79539908  1  0  -0.655755  0  1.943706  0  0  -0.607316  0  2.173714  0  0  -0.631363  0  2.16512  0  0  -0.347146  -0.5901  0  2.178838  0
