# generated using pymatgen
data_Zn2H19C29N9
_symmetry_space_group_name_H-M   'P 1'
_cell_length_a   14.91544094
_cell_length_b   15.01698628
_cell_length_c   14.95126012
_cell_angle_alpha   105.19723074
_cell_angle_beta   111.69745493
_cell_angle_gamma   111.60912382
_symmetry_Int_Tables_number   1
_chemical_formula_structural   Zn2H19C29N9
_chemical_formula_sum   'Zn4 H38 C58 N18'
_cell_volume   2567.05117539
_cell_formula_units_Z   2
loop_
 _symmetry_equiv_pos_site_id
 _symmetry_equiv_pos_as_xyz
  1  'x, y, z'
loop_
 _atom_site_type_symbol
 _atom_site_label
 _atom_site_symmetry_multiplicity
 _atom_site_fract_x
 _atom_site_fract_y
 _atom_site_fract_z
 _atom_site_occupancy
 _atom_site_pbe_bader_charge
 _atom_site_pbe_bader_spin_density
 _atom_site_pbe_cm5_charge
 _atom_site_pbe_ddec_charge
 _atom_site_pbe_ddec_spin_density
 _atom_site_pbe_ddec_sum_bond_order
 _atom_site_pbe_magmom
C  C0  1  0.16723691  0.79964409  0.69267862  1  0.406182  0  0.005648  -0.049409  0  3.962166  0
C  C1  1  0.38653671  0.59639908  0.68872661  1  0.424884  0  0.00202  -0.061638  0  3.997715  0
C  C2  1  0.80785399  0.61192902  0.61310762  1  0.024721  0  -0.034024  -0.029163  0  4.073816  0
C  C3  1  0.55437847  0.20548966  0.19483254  1  -0.013411  0  -0.03775  -0.028547  0  4.11082  0
C  C4  1  0.00783266  0.36718576  0.81392863  1  0.033583  0  -0.042218  -0.048855  0  4.120564  0
C  C5  1  0.00987778  0.39251189  0.20741193  1  -0.025905  0  -0.038316  -0.043474  0  4.083062  0
C  C6  1  0.00581611  0.81166090  0.37384111  1  0.016354  0  -0.040306  -0.043523  0  4.09768  0
C  C7  1  0.00610053  0.19809343  0.41854149  1  0.011939  0  -0.039674  -0.046163  0  4.084544  0
C  C8  1  0.90147372  0.92338878  0.34975046  1  -0.025379  0  -0.087206  -0.089931  0  3.675064  0
C  C9  1  0.93239296  0.98723349  0.28753270  1  -0.01516  0  -0.082248  -0.085627  0  3.651092  0
C  C10  1  0.97549263  0.03118291  0.45786391  1  -0.033923  0  -0.083858  -0.085915  0  3.658149  0
C  C11  1  0.03815163  0.97545847  0.31350518  1  -0.059551  0  -0.080512  -0.08433  0  3.643335  0
C  C12  1  0.00676396  0.09710746  0.39599930  1  0.03149  0  -0.000958  0.085187  0  3.691093  0
C  C13  1  0.00671876  0.91028480  0.37613207  1  0.023516  0  -0.003274  0.080057  0  3.702247  0
C  C14  1  0.11211290  0.08404851  0.42144527  1  -0.036548  0  -0.085295  -0.089831  0  3.667152  0
C  C15  1  0.08143065  0.02055858  0.48389924  1  -0.056128  0  -0.085833  -0.08724  0  3.668661  0
C  C16  1  0.69387929  0.60119492  0.70284945  1  -0.03468  0  -0.020195  0.016853  0  3.900224  0
C  C17  1  0.41748273  0.10953849  0.99499252  1  -0.035083  0  -0.023895  0.011835  0  3.914052  0
C  C18  1  0.74147839  0.64520166  0.64869368  1  0.019299  0  -0.012482  0.035146  0  4.064881  0
C  C19  1  0.44882991  0.11588944  0.09789941  1  0.009706  0  -0.019858  0.024969  0  4.087951  0
C  C20  1  0.70269301  0.71026922  0.61461637  1  -0.067694  0  -0.099775  -0.141998  0  4.016097  0
C  C21  1  0.37529780  0.02262570  0.09668021  1  -0.06171  0  -0.102824  -0.14353  0  4.022808  0
C  C22  1  0.83815927  0.53677073  0.63003156  1  0.436609  0  0.008372  -0.044679  0  3.948948  0
C  C23  1  0.62448718  0.30575080  0.20553849  1  0.41544  0  0.002787  -0.061232  0  4.003202  0
C  C24  1  0.61585963  0.71879001  0.62297892  1  -0.0158  0  -0.099194  -0.135022  0  4.020259  0
C  C25  1  0.28729296  0.92873875  0.00086831  1  -0.049367  0  -0.10146  -0.142799  0  3.994208  0
C  C26  1  0.55925693  0.66333358  0.66659990  1  0.024795  0  -0.017428  0.027566  0  4.07783  0
C  C27  1  0.26461820  0.91957092  0.89701103  1  0.029248  0  -0.013263  0.035926  0  4.06009  0
C  C28  1  0.60701130  0.60980184  0.71126822  1  -0.022047  0  -0.021523  0.016681  0  3.909033  0
C  C29  1  0.32933732  0.01610447  0.89920613  1  -0.045338  0  -0.020722  0.016946  0  3.904824  0
C  C30  1  0.59025415  0.53433650  0.76209106  1  -0.05524  0  -0.157274  -0.193143  0  3.911129  0
C  C31  1  0.35744381  0.06244093  0.82767454  1  -0.046813  0  -0.157237  -0.191278  0  3.902661  0
C  C32  1  0.68849241  0.52450931  0.75255912  1  -0.039228  0  -0.155474  -0.190261  0  3.900604  0
C  C33  1  0.45749146  0.16812737  0.93614032  1  -0.039961  0  -0.157857  -0.193209  0  3.909048  0
C  C34  1  0.10608137  0.43972442  0.10842088  1  -0.055944  0  -0.010265  -0.011888  0  3.908832  0
C  C35  1  0.10505228  0.43569017  0.01429087  1  -0.007741  0  -0.013318  -0.019481  0  3.918524  0
C  C36  1  0.01676789  0.36619893  0.11009956  1  0.02349  0  -0.004578  0.054968  0  4.049195  0
C  C37  1  0.01464866  0.35716507  0.91006730  1  0.010149  0  -0.008201  0.050538  0  4.065345  0
C  C38  1  0.92938208  0.27959880  0.00568110  1  -0.020831  0  -0.087896  -0.129019  0  3.969943  0
C  C39  1  0.92860087  0.27534652  0.91069743  1  -0.059884  0  -0.088659  -0.128645  0  3.973648  0
C  C40  1  0.21098457  0.54766818  0.07282043  1  0.08426  0  -0.035403  -0.059129  0  3.891303  0
C  C41  1  0.20857622  0.55442718  0.18077270  1  0.072767  0  -0.033827  -0.056451  0  3.885725  0
C  C42  1  0.09797497  0.43051091  0.80519090  1  0.444816  0  0.005646  -0.056664  0  4.007766  0
C  C43  1  0.10066672  0.46643351  0.31449922  1  0.413265  0  0.006725  -0.05317  0  3.954094  0
C  C44  1  0.91253930  0.71067947  0.33598960  1  0.418682  0  -0.0013  -0.068897  0  4.033075  0
C  C45  1  0.91184879  0.20978860  0.39379880  1  0.383095  0  -0.000376  -0.06055  0  3.98472  0
C  C46  1  0.91214965  0.32883013  0.71333748  1  0.38973  0  0.006272  -0.057856  0  3.998039  0
C  C47  1  0.91378015  0.37675441  0.21413757  1  0.401068  0  0.011686  -0.043469  0  3.953596  0
C  C48  1  0.09810254  0.79896948  0.42091298  1  0.387493  0  -0.000536  -0.066433  0  4.018474  0
C  C49  1  0.09832048  0.30401083  0.49035917  1  0.365224  0  -1.9e-05  -0.060248  0  3.984283  0
C  C50  1  0.83483695  0.62797899  0.53547283  1  0.394103  0  0.009876  -0.042475  0  3.949299  0
C  C51  1  0.61732085  0.20999936  0.29476202  1  0.431289  0  0.001889  -0.064078  0  3.999755  0
C  C52  1  0.16815322  0.71333784  0.79218423  1  0.414954  0  0.009143  -0.039365  0  3.927458  0
C  C53  1  0.38560679  0.68209549  0.58942048  1  0.405471  0  0.004352  -0.054949  0  3.993724  0
C  C54  1  0.19651544  0.81641333  0.79910636  1  0.000922  0  -0.034631  -0.027506  0  4.071484  0
C  C55  1  0.45314882  0.65194213  0.65300039  1  0.005516  0  -0.036976  -0.028612  0  4.102034  0
C  C56  1  0.19751174  0.62904210  0.04463605  1  0.847679  0  0.181856  0.246428  0  3.992831  0
C  C57  1  0.31125729  0.57581418  0.26860217  1  0.873382  0  0.173762  0.239963  0  3.999823  0
H  H58  1  0.17246453  0.85604873  0.65910678  1  0.083258  0  0.112369  0.096289  0  1.027613  0
H  H59  1  0.40470042  0.55849833  0.74018598  1  0.067911  0  0.11322  0.099332  0  1.017543  0
H  H60  1  0.81675355  0.85853376  0.32081069  1  0.036373  0  0.088046  0.069401  0  1.010004  0
H  H61  1  0.87308339  0.97428760  0.20840093  1  0.031482  0  0.092754  0.077448  0  1.001819  0
H  H62  1  0.19665754  0.14840615  0.44935787  1  0.044948  0  0.090278  0.073992  0  1.005023  0
H  H63  1  0.14085678  0.03201197  0.56223776  1  0.043705  0  0.087111  0.068213  0  1.017939  0
H  H64  1  0.73740441  0.75091139  0.57444550  1  0.036723  0  0.095095  0.096606  0  1.007069  0
H  H65  1  0.38990701  0.02218775  0.17369147  1  0.029293  0  0.092349  0.092676  0  1.009716  0
H  H66  1  0.58656581  0.76521145  0.58848227  1  0.044605  0  0.093361  0.094192  0  1.012373  0
H  H67  1  0.23787679  0.85862852  0.00694757  1  0.107697  0  0.092536  0.105024  0  1.049461  0
H  H68  1  0.50790873  0.45828281  0.71320368  1  0.03826  0  0.08701  0.087053  0  0.999712  0
H  H69  1  0.29300209  0.07314861  0.77356887  1  0.029559  0  0.087132  0.08756  0  1.002887  0
H  H70  1  0.60840222  0.57052722  0.84554109  1  0.02567  0  0.087864  0.089167  0  0.995043  0
H  H71  1  0.38418548  0.02094923  0.78017352  1  0.038884  0  0.088086  0.089783  0  0.997532  0
H  H72  1  0.66237961  0.44274434  0.69804822  1  0.037592  0  0.08735  0.086915  0  1.000216  0
H  H73  1  0.45195701  0.24074925  0.94525526  1  0.035873  0  0.086427  0.08741  0  0.996839  0
H  H74  1  0.76437995  0.55480723  0.83031939  1  0.029368  0  0.091999  0.096746  0  0.987624  0
H  H75  1  0.54216665  0.18748090  0.95147756  1  0.024208  0  0.087531  0.088986  0  0.997732  0
H  H76  1  0.85755932  0.21511121  0.99837615  1  0.071432  0  0.104449  0.108145  0  0.9897  0
H  H77  1  0.85668702  0.20713247  0.83323325  1  0.077872  0  0.102299  0.104411  0  0.9942  0
H  H78  1  0.83385521  0.50166767  0.68427186  1  0.0658  0  0.114352  0.100458  0  1.021542  0
H  H79  1  0.61008389  0.33822635  0.14822885  1  0.078655  0  0.115073  0.102106  0  1.012327  0
H  H80  1  0.28664756  0.54943530  0.07633900  1  0.108819  0  0.126246  0.118675  0  0.933468  0
H  H81  1  0.18694876  0.61392141  0.21093009  1  0.122546  0  0.129231  0.124261  0  0.930526  0
H  H82  1  0.18824310  0.47514524  0.86298410  1  0.054412  0  0.114563  0.100694  0  1.00291  0
H  H83  1  0.19075597  0.49937643  0.34887491  1  0.104535  0  0.115949  0.108054  0  1.02356  0
H  H84  1  0.82329984  0.68364757  0.29419665  1  0.036693  0  0.114772  0.10153  0  1.008588  0
H  H85  1  0.82242632  0.14920219  0.34051155  1  0.080554  0  0.114704  0.104006  0  1.00311  0
H  H86  1  0.82336443  0.27844624  0.68448169  1  0.086712  0  0.117296  0.10494  0  0.998655  0
H  H87  1  0.82502040  0.32712433  0.15087142  1  0.105758  0  0.11699  0.103956  0  1.005788  0
H  H88  1  0.18785958  0.85697479  0.46151917  1  0.092788  0  0.115221  0.103733  0  0.995932  0
H  H89  1  0.18820922  0.33379512  0.52939848  1  0.089145  0  0.112841  0.10013  0  1.01276  0
H  H90  1  0.82612753  0.67948233  0.49788116  1  0.078128  0  0.114583  0.099586  0  1.012463  0
H  H91  1  0.59695806  0.14945759  0.32257823  1  0.062287  0  0.114216  0.102117  0  1.003516  0
H  H92  1  0.17588395  0.68835728  0.85521442  1  0.107006  0  0.110744  0.10377  0  1.04546  0
H  H93  1  0.40155658  0.72432912  0.54314276  1  0.07858  0  0.114106  0.102692  0  1.009545  0
H  H94  1  0.95049849  0.05623206  0.51571043  1  0.034112  0  0.091275  0.076913  0  1.001513  0
H  H95  1  0.06318858  0.95181900  0.25527591  1  0.065033  0  0.094241  0.08028  0  1.000478  0
N  N96  1  0.12736060  0.69562685  0.62913509  1  -0.773685  0  -0.290053  -0.189638  0  3.646733  0
N  N97  1  0.28795521  0.59376533  0.64947041  1  -0.799546  0  -0.272068  -0.178556  0  3.540987  0
N  N98  1  0.87676738  0.50899201  0.56534135  1  -0.834441  0  -0.286843  -0.187917  0  3.64514  0
N  N99  1  0.72034743  0.36449998  0.30321693  1  -0.831439  0  -0.275233  -0.177124  0  3.570281  0
N  N100  1  0.05913589  0.42959354  0.70826368  1  -0.774372  0  -0.263317  -0.163346  0  3.527547  0
N  N101  1  0.06082392  0.49374277  0.37783583  1  -0.788291  0  -0.28034  -0.176349  0  3.625114  0
N  N102  1  0.94649931  0.64347390  0.35883709  1  -0.806041  0  -0.275797  -0.181186  0  3.553904  0
N  N103  1  0.94632098  0.31448986  0.44873836  1  -0.737321  0  -0.285293  -0.184322  0  3.640254  0
N  N104  1  0.94335876  0.36653751  0.65091110  1  -0.787797  0  -0.259869  -0.167644  0  3.508155  0
N  N105  1  0.94634925  0.43912719  0.31630228  1  -0.759224  0  -0.274677  -0.1724  0  3.608697  0
N  N106  1  0.06232532  0.69860684  0.41170006  1  -0.775506  0  -0.277015  -0.181063  0  3.556471  0
N  N107  1  0.06091906  0.37249200  0.50810081  1  -0.811608  0  -0.283335  -0.182726  0  3.626763  0
N  N108  1  0.87483043  0.56518832  0.50737598  1  -0.746882  0  -0.281411  -0.178912  0  3.628039  0
N  N109  1  0.71636247  0.30496242  0.35902851  1  -0.775446  0  -0.269378  -0.175493  0  3.535336  0
N  N110  1  0.12836831  0.64270900  0.69038118  1  -0.809548  0  -0.282401  -0.181071  0  3.626539  0
N  N111  1  0.28773845  0.64743587  0.58779187  1  -0.791254  0  -0.275476  -0.175927  0  3.569641  0
N  N112  1  0.18402148  0.69442002  0.02397384  1  -1.141872  0  -0.291599  -0.352874  0  2.800968  0
N  N113  1  0.39499579  0.59483206  0.33928132  1  -1.142825  0  -0.306522  -0.361381  0  2.735262  0
Zn  Zn114  1  0.14172686  0.64103981  0.50193346  1  1.181851  0  0.743698  0.597062  0  2.50797  0
Zn  Zn115  1  0.13880036  0.51111347  0.64281841  1  1.190629  0  0.739117  0.612585  0  2.420921  0
Zn  Zn116  1  0.86239982  0.36646893  0.50314086  1  1.18681  0  0.739486  0.60703  0  2.434737  0
Zn  Zn117  1  0.86674188  0.50467346  0.36633478  1  1.189779  0  0.742543  0.610622  0  2.450133  0
