# generated using pymatgen
data_CuH8Pt(C8N3)2
_symmetry_space_group_name_H-M   'P 1'
_cell_length_a   6.54389862
_cell_length_b   10.35990112
_cell_length_c   11.46677151
_cell_angle_alpha   90.01363159
_cell_angle_beta   90.00548877
_cell_angle_gamma   71.56900695
_symmetry_Int_Tables_number   1
_chemical_formula_structural   CuH8Pt(C8N3)2
_chemical_formula_sum   'Cu2 H16 Pt2 C32 N12'
_cell_volume   737.50431837
_cell_formula_units_Z   2
loop_
 _symmetry_equiv_pos_site_id
 _symmetry_equiv_pos_as_xyz
  1  'x, y, z'
loop_
 _atom_site_type_symbol
 _atom_site_label
 _atom_site_symmetry_multiplicity
 _atom_site_fract_x
 _atom_site_fract_y
 _atom_site_fract_z
 _atom_site_occupancy
 _atom_site_hle17_ddec_charge
 _atom_site_hle17_ddec_spin_density
 _atom_site_hle17_ddec_sum_bond_order
 _atom_site_hle17_magmom
 _atom_site_hse06_10hf_ddec_charge
 _atom_site_hse06_10hf_ddec_spin_density
 _atom_site_hse06_10hf_ddec_sum_bond_order
 _atom_site_hse06_10hf_magmom
 _atom_site_hse06_ddec_charge
 _atom_site_hse06_ddec_spin_density
 _atom_site_hse06_ddec_sum_bond_order
 _atom_site_hse06_magmom
 _atom_site_pbe_cm5_charge
 _atom_site_pbe_ddec_charge
 _atom_site_pbe_ddec_spin_density
 _atom_site_pbe_ddec_sum_bond_order
 _atom_site_pbe_magmom
Cu  Cu0  1  0.37120026  0.25714811  0.24999294  1  0.887089  -0.781446  1.949979  -0.551  0.850652  -0.837998  2.351014  -0.652  0.927592  -0.909555  2.291215  -0.731  0.823308  0.803834  -0.78471  2.392236  -0.598
Cu  Cu1  1  0.62880000  0.74285646  0.75001005  1  0.887072  0.781444  1.949988  0.551  0.850687  0.838002  2.350984  0.652  0.927558  0.909557  2.291193  0.731  0.823291  0.803835  0.78471  2.392174  0.598
H  H2  1  0.89298786  0.88305555  0.30217527  1  0.102874  -0.000517  0.963528  -0.001  0.104265  -0.00024  1.039977  0.0  0.107148  -0.00011  1.037733  0.0  0.096348  0.102083  -0.000398  1.041784  -0.001
H  H3  1  0.22374423  0.88290468  0.19798043  1  0.103271  -0.000539  0.963722  -0.001  0.104812  -0.000296  1.039706  0.0  0.107786  -0.000155  1.037383  0.0  0.096378  0.102495  -0.000397  1.041841  -0.001
H  H4  1  0.10702359  0.11694800  0.69782677  1  0.102809  0.000519  0.963522  0.001  0.104193  0.000239  1.039987  0.0  0.107076  0.000111  1.037742  0.0  0.096306  0.102015  0.000398  1.041802  0.001
H  H5  1  0.77626191  0.11709073  0.80201383  1  0.103228  0.00054  0.963657  0.001  0.104728  0.000295  1.039714  0.0  0.107716  0.000155  1.037377  0.0  0.09637  0.102413  0.000397  1.041857  0.001
H  H6  1  0.64417772  0.52031163  0.45127619  1  0.117815  -0.000793  0.941398  -0.001  0.125304  -0.000597  1.004446  -0.001  0.128187  -0.000403  1.00319  0.0  0.109762  0.123165  -0.000749  1.005621  -0.001
H  H7  1  0.83481276  0.51995131  0.04842161  1  0.118532  -0.000775  0.940939  -0.001  0.125768  -0.000591  1.004318  -0.001  0.128729  -0.000401  1.002933  0.0  0.109985  0.123736  -0.000749  1.005265  -0.001
H  H8  1  0.35581998  0.47969497  0.54872595  1  0.11789  0.000792  0.941286  0.001  0.125298  0.000596  1.004433  0.001  0.128186  0.000403  1.003173  0.0  0.109752  0.123162  0.000749  1.005606  0.001
H  H9  1  0.16519621  0.48004512  0.95158310  1  0.118494  0.00078  0.940971  0.001  0.125687  0.000591  1.004419  0.001  0.128643  0.000402  1.003036  0.0  0.109934  0.123664  0.000749  1.005342  0.001
H  H10  1  0.92810450  0.31134452  0.38409664  1  0.086621  -0.001994  0.981913  -0.003  0.094042  -0.00137  1.044318  -0.002  0.093354  -0.000906  1.04542  -0.001  0.11672  0.094452  -0.001776  1.043587  -0.003
H  H11  1  0.76003082  0.31108116  0.11584310  1  0.086735  -0.001982  0.981559  -0.003  0.093814  -0.001369  1.0444  -0.002  0.093144  -0.000905  1.045465  -0.001  0.116426  0.094217  -0.001775  1.043808  -0.003
H  H12  1  0.07189366  0.68866107  0.61590376  1  0.08666  0.001994  0.981828  0.003  0.094043  0.00137  1.044281  0.002  0.093355  0.000906  1.045387  0.001  0.116711  0.094461  0.001776  1.043543  0.003
H  H13  1  0.23997409  0.68891730  0.88416250  1  0.086739  0.001983  0.98152  0.003  0.093818  0.001369  1.044366  0.002  0.093146  0.000905  1.045434  0.001  0.116447  0.094217  0.001776  1.043782  0.003
H  H14  1  0.67734994  0.74803262  0.40669454  1  0.119994  -0.000464  0.928171  -0.001  0.1316  -4.1e-05  0.982524  0.0  0.13294  4e-06  0.98262  0.0  0.115717  0.130617  -0.000111  0.982482  0.0
H  H15  1  0.57399755  0.74771832  0.09314060  1  0.119981  -0.000466  0.927016  -0.001  0.131404  -4.1e-05  0.981461  0.0  0.132716  4e-06  0.981649  0.0  0.115716  0.130303  -0.000111  0.981733  0.0
H  H16  1  0.32265537  0.25197399  0.59330666  1  0.119971  0.000465  0.928071  0.001  0.131555  4e-05  0.982457  0.0  0.132894  -3e-06  0.982553  0.0  0.115701  0.130572  0.000111  0.98242  0.0
H  H17  1  0.42600822  0.25227811  0.90685889  1  0.119941  0.00047  0.927044  0.001  0.131354  4.1e-05  0.981503  0.0  0.132667  -4e-06  0.981688  0.0  0.115687  0.130254  0.000111  0.981773  0.0
Pt  Pt18  1  0.99999864  0.00000057  0.49999959  1  0.088239  -2e-06  4.07259  0.0  0.119172  -7e-06  4.625014  0.0  0.105247  9e-06  4.600424  0.0  0.550046  0.131283  1e-06  4.639596  0.0
Pt  Pt19  1  0.99998533  0.99999134  0.99999708  1  0.086474  3e-06  4.075559  0.0  0.12053  -0.0  4.624472  0.0  0.106739  0.0  4.599963  0.0  0.550573  0.131007  1e-06  4.642703  0.0
C  C20  1  0.01540623  0.78734057  0.27966255  1  -0.095216  -0.001402  3.742548  -0.001  -0.124305  -0.000603  4.012152  -0.001  -0.128084  -0.000443  4.036155  0.0  -0.085844  -0.121916  -0.000863  3.996268  -0.001
C  C21  1  0.19689293  0.78726484  0.22044338  1  -0.09541  -0.001603  3.743363  -0.001  -0.124485  -0.000619  4.013098  -0.001  -0.128357  -0.000468  4.036992  -0.001  -0.084661  -0.121593  -0.000865  3.997052  -0.001
C  C22  1  0.98460257  0.21266197  0.72033602  1  -0.095023  0.001387  3.742584  0.001  -0.124092  0.000603  4.012155  0.001  -0.127867  0.000436  4.036158  0.0  -0.085789  -0.121703  0.000863  3.99627  0.001
C  C23  1  0.80311173  0.21273667  0.77955262  1  -0.09547  0.001608  3.743263  0.002  -0.124506  0.000622  4.013019  0.001  -0.128388  0.000473  4.036906  0.001  -0.084655  -0.121608  0.000865  3.996978  0.001
C  C24  1  0.17082639  0.07352831  0.39208304  1  0.123495  0.013141  3.56339  0.007  0.103023  0.00208  3.901587  -0.003  0.122661  0.00393  3.907235  0.0  0.019435  0.089879  0.001078  3.89702  -0.005
C  C25  1  0.75558904  0.07345617  0.10794870  1  0.123961  0.014006  3.563019  0.008  0.103279  0.002463  3.8999  -0.003  0.12293  0.004201  3.905439  0.0  0.01921  0.090108  0.001068  3.896612  -0.005
C  C26  1  0.82917283  0.92647524  0.60791910  1  0.123462  -0.013136  3.563443  -0.007  0.102998  -0.002079  3.90163  0.003  0.122632  -0.003924  3.907276  0.0  0.019422  0.089852  -0.001077  3.897074  0.005
C  C27  1  0.24439170  0.92653517  0.89204842  1  0.123936  -0.013993  3.563137  -0.008  0.103242  -0.002455  3.90004  0.003  0.122886  -0.004213  3.905578  0.0  0.019175  0.090067  -0.001067  3.896758  0.005
C  C28  1  0.13682539  0.53829686  0.28162366  1  0.131799  0.000825  3.75793  0.001  0.129038  -0.001348  3.992284  -0.001  0.135158  -0.000176  4.014417  0.001  0.118759  0.125031  -0.002253  3.977386  -0.002
C  C29  1  0.32429099  0.53822908  0.21835502  1  0.130767  0.000784  3.759473  0.001  0.127838  -0.001325  3.994199  -0.001  0.133998  -0.000168  4.016262  0.001  0.117824  0.123982  -0.002256  3.979152  -0.002
C  C30  1  0.86317430  0.46170567  0.71837674  1  0.131935  -0.000822  3.757891  -0.001  0.129118  0.001351  3.992273  0.001  0.135237  0.000175  4.014404  -0.001  0.118773  0.125108  0.002253  3.977374  0.002
C  C31  1  0.67570918  0.46177243  0.78164451  1  0.130664  -0.000773  3.759662  -0.001  0.12778  0.001328  3.99437  0.001  0.133937  0.000168  4.016432  -0.001  0.117835  0.123925  0.002256  3.979318  0.002
C  C32  1  0.78137540  0.52955057  0.40247981  1  -0.101993  -0.011792  3.700266  -0.013  -0.120426  -0.004556  3.962769  -0.005  -0.127456  -0.003801  3.983167  -0.005  -0.07864  -0.116022  -0.005343  3.949503  -0.006
C  C33  1  0.68844110  0.52922996  0.09731495  1  -0.104121  -0.011691  3.703412  -0.013  -0.122597  -0.004553  3.966271  -0.005  -0.129644  -0.003791  3.98671  -0.005  -0.07929  -0.117943  -0.005338  3.952436  -0.006
C  C34  1  0.21862535  0.47045298  0.59752231  1  -0.101976  0.011764  3.700185  0.013  -0.120336  0.00456  3.962637  0.005  -0.127369  0.003801  3.983045  0.005  -0.078598  -0.115934  0.005343  3.949372  0.006
C  C35  1  0.31156317  0.47076952  0.90268542  1  -0.104106  0.011656  3.703483  0.013  -0.122569  0.004551  3.966363  0.005  -0.129612  0.003789  3.986799  0.005  -0.079269  -0.11791  0.005338  3.952531  0.006
C  C36  1  0.94222341  0.41098677  0.36590224  1  0.148702  0.008882  3.664451  0.01  0.119886  0.001128  3.922661  0.003  0.131401  0.002356  3.941829  0.004  0.059215  0.112336  0.000208  3.909751  0.002
C  C37  1  0.64623851  0.41075332  0.13401814  1  0.149864  0.008679  3.665955  0.01  0.120681  0.001058  3.924758  0.002  0.132164  0.002301  3.943915  0.004  0.05986  0.113078  0.000203  3.911797  0.002
C  C38  1  0.05777784  0.58901576  0.63409989  1  0.148685  -0.008865  3.664391  -0.01  0.119876  -0.00113  3.922592  -0.003  0.131384  -0.002358  3.941774  -0.004  0.05925  0.112321  -0.000207  3.90968  -0.002
C  C39  1  0.35376629  0.58924515  0.86598310  1  0.149857  -0.008659  3.66611  -0.01  0.120684  -0.001057  3.9249  -0.002  0.132165  -0.002302  3.944058  -0.004  0.059866  0.113076  -0.000202  3.911947  -0.002
C  C40  1  0.80008678  0.65566794  0.37714425  1  -0.031369  0.010314  3.649727  0.01  -0.057744  0.003093  3.897832  0.003  -0.054617  0.003253  3.916045  0.003  -0.054725  -0.059792  0.003032  3.885822  0.003
C  C41  1  0.54363984  0.65540360  0.12275156  1  -0.031644  0.010146  3.647871  0.009  -0.057205  0.003036  3.896236  0.003  -0.054136  0.003207  3.914426  0.003  -0.054936  -0.05918  0.003031  3.884047  0.003
C  C42  1  0.19991599  0.34433459  0.62285699  1  -0.031395  -0.010287  3.64955  -0.01  -0.057734  -0.003095  3.897643  -0.003  -0.054612  -0.003256  3.915861  -0.003  -0.05475  -0.059791  -0.003032  3.885635  -0.003
C  C43  1  0.45636494  0.34459487  0.87724881  1  -0.031559  -0.01013  3.64776  -0.009  -0.057091  -0.003035  3.896111  -0.003  -0.054018  -0.003203  3.914292  -0.003  -0.054877  -0.059066  -0.003031  3.883925  -0.003
C  C44  1  0.74106894  0.15553652  0.46018656  1  0.062602  0.001646  3.621816  0.002  0.043106  0.000977  3.974072  0.001  0.055649  0.00097  3.981057  0.001  -0.017029  0.033788  0.000965  3.969781  0.001
C  C45  1  0.10306733  0.15558914  0.03983025  1  0.062903  0.001614  3.625532  0.002  0.043055  0.000965  3.976653  0.001  0.055533  0.00095  3.983702  0.001  -0.016645  0.033936  0.000971  3.973371  0.001
C  C46  1  0.25893269  0.84446499  0.53981033  1  0.062693  -0.001652  3.621945  -0.002  0.043213  -0.000979  3.974171  -0.001  0.05575  -0.000959  3.98116  -0.001  -0.016958  0.03391  -0.000965  3.969856  -0.001
C  C47  1  0.89690519  0.84438796  0.96016438  1  0.063255  -0.001603  3.626232  -0.002  0.043433  -0.000957  3.977292  -0.001  0.055906  -0.000964  3.984341  -0.001  -0.016442  0.03436  -0.000971  3.973941  -0.001
C  C48  1  0.98074035  0.66299020  0.31328556  1  0.032481  -0.00674  3.780783  -0.008  0.05333  -0.002822  4.003869  -0.003  0.049602  -0.00219  4.029541  -0.003  0.00381  0.055637  -0.003447  3.986734  -0.004
C  C49  1  0.35574682  0.66284860  0.18671856  1  0.034729  -0.006633  3.779069  -0.007  0.054393  -0.002815  4.003604  -0.003  0.050782  -0.002187  4.029133  -0.003  0.003793  0.0567  -0.003447  3.986269  -0.004
C  C50  1  0.01926339  0.33701029  0.68671393  1  0.032406  0.006735  3.78085  0.008  0.053247  0.002821  4.003962  0.003  0.049518  0.002194  4.029635  0.003  0.003818  0.05556  0.003447  3.986826  0.004
C  C51  1  0.64425425  0.33715393  0.81327660  1  0.034772  0.006623  3.779097  0.007  0.054391  0.002815  4.003647  0.003  0.05078  0.002182  4.029179  0.003  0.003766  0.056696  0.003447  3.986311  0.004
N  N52  1  0.11655722  0.41518927  0.30825864  1  -0.308676  -0.10466  3.308545  -0.129  -0.276506  -0.065255  3.608415  -0.087  -0.309838  -0.051699  3.6335  -0.072  -0.32647  -0.255315  -0.074033  3.592379  -0.095
N  N53  1  0.46770423  0.41507203  0.19172102  1  -0.309684  -0.10424  3.310336  -0.128  -0.276845  -0.06512  3.60994  -0.086  -0.310108  -0.05165  3.634879  -0.072  -0.326378  -0.255457  -0.07402  3.593736  -0.095
N  N54  1  0.88343994  0.58481530  0.69174264  1  -0.30883  0.104653  3.308724  0.129  -0.276586  0.065253  3.608521  0.087  -0.3099  0.051702  3.633582  0.072  -0.326514  -0.255386  0.074034  3.592472  0.095
N  N55  1  0.53229392  0.58492745  0.80827940  1  -0.309632  0.10423  3.310454  0.128  -0.276816  0.06512  3.610052  0.086  -0.310061  0.051649  3.634976  0.072  -0.326375  -0.255412  0.074021  3.593823  0.095
N  N56  1  0.26280330  0.12430880  0.32860625  1  -0.422369  -0.065769  3.114796  -0.078  -0.383363  -0.04626  3.425267  -0.058  -0.411935  -0.040311  3.43375  -0.052  -0.392722  -0.365631  -0.049998  3.420231  -0.061
N  N57  1  0.61275269  0.12423451  0.17143056  1  -0.423103  -0.065798  3.114473  -0.078  -0.383527  -0.046447  3.42443  -0.058  -0.41205  -0.040486  3.43278  -0.052  -0.392534  -0.365806  -0.050038  3.419801  -0.061
N  N58  1  0.73720266  0.87569678  0.67140018  1  -0.42234  0.065766  3.114853  0.078  -0.38334  0.046261  3.425311  0.058  -0.411897  0.040305  3.433779  0.052  -0.392711  -0.365605  0.049997  3.420274  0.061
N  N59  1  0.38723839  0.87577006  0.82857165  1  -0.423131  0.065781  3.114426  0.078  -0.383564  0.046437  3.424401  0.058  -0.41207  0.040496  3.432737  0.052  -0.392552  -0.36584  0.050035  3.419764  0.061
N  N60  1  0.59254888  0.24931363  0.43426942  1  -0.45377  -0.000462  2.842049  -0.002  -0.426263  0.000168  3.127396  -0.001  -0.440822  0.000272  3.136995  -0.001  -0.371061  -0.415877  -9e-06  3.120747  -0.001
N  N61  1  0.15791768  0.24933010  0.06567106  1  -0.454291  -0.00055  2.844263  -0.002  -0.425946  0.000125  3.128667  -0.001  -0.440496  0.000262  3.138286  -0.001  -0.371685  -0.41609  -8e-06  3.122592  -0.001
N  N62  1  0.40745029  0.75068992  0.56573098  1  -0.453843  0.000468  2.842181  0.002  -0.426363  -0.000166  3.127545  0.001  -0.440902  -0.000286  3.137113  0.001  -0.371113  -0.415975  9e-06  3.120897  0.001
N  N63  1  0.84207834  0.75065514  0.93432595  1  -0.45444  0.000539  2.845117  0.002  -0.42613  -0.000132  3.129562  0.001  -0.440661  -0.00025  3.139151  0.001  -0.371763  -0.416283  7e-06  3.123491  0.001
