# generated using pymatgen
data_Cu3H42C40(N3O7)2
_symmetry_space_group_name_H-M   'P 1'
_cell_length_a   9.17772339
_cell_length_b   10.64612118
_cell_length_c   11.34570897
_cell_angle_alpha   87.77009358
_cell_angle_beta   65.99883562
_cell_angle_gamma   87.08371617
_symmetry_Int_Tables_number   1
_chemical_formula_structural   Cu3H42C40(N3O7)2
_chemical_formula_sum   'Cu3 H42 C40 N6 O14'
_cell_volume   1011.19489389
_cell_formula_units_Z   1
loop_
 _symmetry_equiv_pos_site_id
 _symmetry_equiv_pos_as_xyz
  1  'x, y, z'
loop_
 _atom_site_type_symbol
 _atom_site_label
 _atom_site_symmetry_multiplicity
 _atom_site_fract_x
 _atom_site_fract_y
 _atom_site_fract_z
 _atom_site_occupancy
 _atom_site_pbe_bader_charge
 _atom_site_pbe_bader_spin_density
 _atom_site_pbe_cm5_charge
 _atom_site_pbe_ddec_charge
 _atom_site_pbe_ddec_spin_density
 _atom_site_pbe_ddec_sum_bond_order
 _atom_site_pbe_magmom
Cu  Cu0  1  0.42809984  0.60769377  0.54319027  1  1.059756  0.530597  0.677784  0.754769  0.70248  2.39232  0.528
Cu  Cu1  1  0.57191955  0.39230581  0.45674499  1  1.060122  -0.530663  0.678  0.755552  -0.68496  2.390882  -0.528
Cu  Cu2  1  0.99999612  0.99999763  0.00000926  1  1.029739  -0.539555  0.724133  0.724944  -0.714354  2.246834  -0.541
H  H3  1  0.78780842  0.04888152  0.79557482  1  0.51838  -8.1e-05  0.305464  0.285911  -6.2e-05  0.992411  0.0
H  H4  1  0.21218194  0.95112004  0.20444791  1  0.518365  -8e-05  0.305451  0.285846  -5.9e-05  0.992553  0.0
H  H5  1  0.07216567  0.68648500  0.69851347  1  0.155363  -5.1e-05  0.125727  0.100494  -4.2e-05  1.007854  0.0
H  H6  1  0.92781491  0.31349828  0.30148252  1  0.1554  2.8e-05  0.125768  0.100533  1.6e-05  1.00811  0.0
H  H7  1  0.00175700  0.08387279  0.63610932  1  0.134359  2.1e-05  0.112331  0.111703  1.6e-05  1.023339  0.0
H  H8  1  0.99822055  0.91612913  0.36393014  1  0.135237  -2.9e-05  0.112328  0.111673  -4e-05  1.023393  0.0
H  H9  1  0.29505889  0.09392331  0.50884372  1  0.101827  -0.00027  0.107982  0.122266  -0.000292  1.024811  0.0
H  H10  1  0.70491993  0.90608615  0.49122462  1  0.102536  0.00026  0.107976  0.12242  0.000283  1.02472  0.0
H  H11  1  0.46413839  0.89275121  0.47823314  1  0.125381  -9.4e-05  0.117943  0.085635  -8.7e-05  1.008754  0.0
H  H12  1  0.53584921  0.10725767  0.52180311  1  0.125139  9.1e-05  0.117894  0.085658  8.6e-05  1.008777  0.0
H  H13  1  0.55161445  0.16178959  0.88749256  1  0.104275  -0.000857  0.114375  0.132882  -0.000411  1.019407  -0.001
H  H14  1  0.44835613  0.83821138  0.11255290  1  0.104471  -0.001005  0.11442  0.132908  -0.000535  1.019457  -0.001
H  H15  1  0.25539531  0.17437206  0.95976098  1  0.103391  -0.001746  0.117664  0.091509  -0.000792  1.021888  -0.002
H  H16  1  0.74458304  0.82563244  0.04027354  1  0.103513  -0.001759  0.117622  0.091492  -0.000801  1.022091  -0.002
H  H17  1  0.54681187  0.78610870  0.75582883  1  0.166194  -0.000948  0.117481  0.149201  -0.000482  1.020909  -0.001
H  H18  1  0.45317917  0.21389748  0.24419148  1  0.166007  -0.00098  0.117468  0.149169  -0.000515  1.021074  -0.001
H  H19  1  0.25486680  0.81207488  0.83913600  1  0.110165  -0.001685  0.119798  0.093267  -0.000746  1.009406  -0.001
H  H20  1  0.74512252  0.18792465  0.16088551  1  0.109499  -0.001694  0.11978  0.093249  -0.000756  1.009487  -0.001
H  H21  1  0.38050805  0.36470077  0.91072528  1  0.040219  0.000135  0.102929  0.116951  7.2e-05  0.976654  0.0
H  H22  1  0.61950689  0.63530829  0.08921416  1  0.040002  -0.000156  0.102951  0.116974  -8.5e-05  0.976638  0.0
H  H23  1  0.59128346  0.34665370  0.83910378  1  0.054648  0.001313  0.099298  0.114367  0.000629  1.003321  0.001
H  H24  1  0.40873228  0.65332949  0.16081482  1  0.053986  -0.001322  0.099286  0.114455  -0.00061  1.003209  -0.001
H  H25  1  0.40345555  0.59282558  0.94916493  1  0.029869  0.000137  0.088764  0.085062  0.000144  1.00008  0.0
H  H26  1  0.59661335  0.40718033  0.05075366  1  0.029942  -0.000179  0.088721  0.085203  -0.000149  1.000265  0.0
H  H27  1  0.61253234  0.57381734  0.88061705  1  0.032907  1e-06  0.090463  0.092731  -2e-06  0.996502  0.0
H  H28  1  0.38752705  0.42616986  0.11928268  1  0.032936  -7.3e-05  0.090599  0.092954  -4.3e-05  0.996537  0.0
H  H29  1  0.02918481  0.28733306  0.64381281  1  0.069268  9.9e-05  0.098611  0.118018  5.2e-05  1.024658  0.0
H  H30  1  0.97083430  0.71268115  0.35620597  1  0.069228  -6.5e-05  0.098568  0.118064  -2.3e-05  1.024671  0.0
H  H31  1  0.10625541  0.28830955  0.47293335  1  0.059116  0.001953  0.095662  0.11414  0.000968  1.013401  0.001
H  H32  1  0.89368923  0.71168037  0.52709376  1  0.059996  -0.001946  0.095675  0.114288  -0.000948  1.013351  -0.001
H  H33  1  0.94074501  0.51336468  0.64663384  1  0.024905  0.000117  0.087125  0.08032  8.6e-05  1.009414  0.0
H  H34  1  0.05921656  0.48662654  0.35339971  1  0.024485  -0.000246  0.087136  0.080255  -0.000181  1.009411  0.0
H  H35  1  0.85422366  0.41864456  0.56970878  1  0.042386  -0.00091  0.088697  0.094287  -0.000454  1.005013  -0.001
H  H36  1  0.14575696  0.58134490  0.43031046  1  0.042427  0.000914  0.088757  0.09422  0.00047  1.004967  0.001
H  H37  1  0.07132944  0.37350388  0.02557061  1  0.028869  -0.000318  0.08526  0.079996  -0.000258  1.004826  0.0
H  H38  1  0.92871298  0.62647742  0.97443173  1  0.029326  -0.000319  0.085255  0.08011  -0.000257  1.004945  0.0
H  H39  1  0.86815293  0.42112284  0.09940363  1  0.045076  -0.000125  0.087458  0.086905  -6.1e-05  0.995701  0.0
H  H40  1  0.13189353  0.57886744  0.90060268  1  0.044366  -2.7e-05  0.087441  0.086914  3.5e-05  0.995912  0.0
H  H41  1  0.05686442  0.40123730  0.80647317  1  0.058298  1.7e-05  0.104362  0.129051  8.4e-05  0.986485  0.0
H  H42  1  0.94315684  0.59876155  0.19352509  1  0.058341  -7e-05  0.104283  0.128938  -4e-06  0.986566  0.0
H  H43  1  0.84961865  0.42843110  0.88432964  1  0.036701  -0.002076  0.10108  0.11877  -0.000997  0.989094  -0.001
H  H44  1  0.15039827  0.57158359  0.11569867  1  0.036334  -0.002094  0.10108  0.118727  -0.001019  0.98892  -0.001
C  C45  1  0.11809820  0.77830354  0.65890501  1  0.462126  -0.000497  0.064909  0.094665  -0.00034  3.889723  0.0
C  C46  1  0.88188977  0.22169551  0.34110994  1  0.46177  0.000735  0.064805  0.094497  0.000502  3.889985  0.0
C  C47  1  0.01340871  0.88362951  0.67804915  1  0.0019  0.000236  -0.014161  -0.098874  0.0002  4.001908  0.0
C  C48  1  0.98658767  0.11637246  0.32197501  1  0.00248  7.7e-05  -0.014219  -0.099013  0.00011  4.001631  0.0
C  C49  1  0.07783158  0.99930137  0.62413032  1  -0.133752  -0.000371  -0.062956  -0.053519  -0.000188  3.941121  0.0
C  C50  1  0.92215123  0.00069848  0.37591724  1  -0.134817  0.000742  -0.062788  -0.053096  0.000523  3.940353  0.0
C  C51  1  0.24192960  0.00494861  0.55221516  1  0.014245  -0.00014  -0.085107  -0.12831  -8.3e-05  3.948104  0.0
C  C52  1  0.75805216  0.99506400  0.44784041  1  0.013881  0.000205  -0.085179  -0.128697  0.00012  3.947934  0.0
C  C53  1  0.33585829  0.89460327  0.53652177  1  0.463809  -0.000533  0.054256  0.107037  -0.000348  3.923676  0.0
C  C54  1  0.66411672  0.10539812  0.46351153  1  0.464083  0.000743  0.054203  0.106944  0.000502  3.92349  0.0
C  C55  1  0.83878758  0.86160663  0.74373957  1  1.388595  0.000354  0.24666  0.476156  0.000291  4.115573  0.0
C  C56  1  0.16119775  0.13839158  0.25626401  1  1.388546  0.00046  0.246947  0.476598  0.000388  4.11535  0.0
C  C57  1  0.48995167  0.45130511  0.72620312  1  1.525151  -0.000497  0.215788  0.634906  -0.000421  4.102045  -0.001
C  C58  1  0.51006642  0.54870164  0.27371161  1  1.525726  0.000487  0.215874  0.635227  0.000561  4.101896  0.001
C  C59  1  0.57557032  0.97203598  0.81790891  1  0.396687  0.002679  0.121611  0.293618  0.001848  4.011768  0.002
C  C60  1  0.42441440  0.02796385  0.18212121  1  0.395449  0.002677  0.121637  0.293557  0.001855  4.011792  0.002
C  C61  1  0.48950116  0.08281819  0.87427334  1  0.039554  -0.005974  -0.086751  -0.218609  -0.004128  3.918828  -0.005
C  C62  1  0.51047840  0.91718518  0.12575735  1  0.039915  -0.006045  -0.086782  -0.218626  -0.004143  3.918787  -0.005
C  C63  1  0.32531846  0.08992615  0.91555413  1  0.460946  -0.000241  0.03935  0.100454  -0.000804  3.955869  0.0
C  C64  1  0.67466773  0.91007090  0.08447574  1  0.461086  -0.000227  0.039317  0.100477  -0.000789  3.955682  0.0
C  C65  1  0.48923766  0.87362770  0.80122617  1  0.003406  -0.005751  -0.087363  -0.223054  -0.00399  3.88927  -0.005
C  C66  1  0.51074580  0.12638426  0.19880238  1  0.004077  -0.005729  -0.087277  -0.222746  -0.00398  3.889057  -0.005
C  C67  1  0.32444907  0.88836647  0.84743209  1  0.450677  -0.00012  0.04322  0.10737  -0.000781  3.958971  0.0
C  C68  1  0.67554123  0.11163493  0.15258803  1  0.451062  -0.000113  0.043089  0.106994  -0.000784  3.959134  0.0
C  C69  1  0.49123598  0.41492506  0.85635522  1  -0.018973  0.000938  -0.15803  -0.276773  0.000659  3.908746  0.0
C  C70  1  0.50879218  0.58508117  0.14357288  1  -0.019177  -0.000987  -0.158195  -0.277199  -0.000598  3.908742  0.0
C  C71  1  0.50210655  0.52366999  0.93499037  1  0.008825  -0.000992  -0.169968  -0.135267  -0.000557  3.957782  -0.001
C  C72  1  0.49795018  0.47632844  0.06494014  1  -0.014253  0.000919  -0.169911  -0.135516  0.000524  3.958089  0.001
C  C73  1  0.24137858  0.38981048  0.54738344  1  1.506363  0.001631  0.215994  0.631901  0.001597  4.099414  0.002
C  C74  1  0.75863539  0.61019672  0.45255738  1  1.50723  -0.001615  0.215986  0.631957  -0.001423  4.099562  -0.002
C  C75  1  0.08182591  0.34733142  0.55671861  1  -0.028563  0.000193  -0.167233  -0.295895  8e-05  3.909293  0.0
C  C76  1  0.91816886  0.65267051  0.44329109  1  -0.029988  -0.000169  -0.167224  -0.296347  3.1e-05  3.909463  0.0
C  C77  1  0.96716315  0.45737830  0.56034791  1  0.00996  -0.00226  -0.172012  -0.123281  -0.001456  3.914783  -0.002
C  C78  1  0.03280997  0.54261596  0.43967875  1  -0.016807  0.002148  -0.172149  -0.122897  0.001418  3.914635  0.002
C  C79  1  0.97740213  0.43132765  0.01036273  1  -0.039636  -0.000437  -0.170932  -0.12435  -0.000414  3.946184  0.0
C  C80  1  0.02264601  0.56865682  0.98964001  1  -0.008723  -0.000351  -0.170929  -0.124739  -0.000343  3.946426  0.0
C  C81  1  0.95203691  0.38082241  0.89625204  1  -0.013106  -0.011192  -0.164671  -0.296457  -0.00804  3.904351  -0.009
C  C82  1  0.04798611  0.61918563  0.10375537  1  -0.012867  -0.011325  -0.164584  -0.296124  -0.008135  3.903794  -0.009
C  C83  1  0.93194209  0.23953514  0.90125102  1  1.53234  -0.000146  0.209858  0.629954  -0.001046  4.14516  0.002
C  C84  1  0.06805804  0.76047499  0.09876405  1  1.532345  -0.00018  0.209782  0.62942  -0.001069  4.145515  0.002
N  N85  1  0.27568346  0.78342454  0.59019780  1  -1.207255  -0.001727  -0.326824  -0.240176  -0.000877  3.492079  0.0
N  N86  1  0.72430549  0.21657274  0.40980285  1  -1.207711  0.001686  -0.326845  -0.240249  0.000846  3.49198  0.0
N  N87  1  0.24163343  0.99317136  0.90551534  1  -1.221451  -0.093021  -0.357599  -0.262182  -0.063354  3.617624  -0.081
N  N88  1  0.75835795  0.00683217  0.09450775  1  -1.221283  -0.093028  -0.357496  -0.26201  -0.063365  3.617349  -0.081
N  N89  1  0.73981661  0.96819267  0.78014394  1  -1.295848  0.000235  -0.390103  -0.38739  0.000115  3.55732  0.0
N  N90  1  0.26016889  0.03179971  0.21988749  1  -1.295303  0.000256  -0.390181  -0.387531  0.000129  3.557156  0.0
O  O91  1  0.78892551  0.75378552  0.75897747  1  -1.116614  -0.000346  -0.269463  -0.455105  -0.000244  2.139612  0.0
O  O92  1  0.21104841  0.24620377  0.24105997  1  -1.116939  -0.000224  -0.269577  -0.455178  -0.000181  2.139785  0.0
O  O93  1  0.54906625  0.36861150  0.63932333  1  -1.108991  -0.078564  -0.324219  -0.545362  -0.051552  2.350839  -0.071
O  O94  1  0.45085668  0.63134636  0.36063294  1  -1.108281  0.07854  -0.324135  -0.545289  0.052878  2.351157  0.071
O  O95  1  0.43014097  0.55927719  0.71450110  1  -1.11104  0.086324  -0.312804  -0.515552  0.057885  2.333864  0.078
O  O96  1  0.56994541  0.44075178  0.28539260  1  -1.111277  -0.086394  -0.312853  -0.51567  -0.056449  2.33348  -0.078
O  O97  1  0.24235816  0.50020114  0.58657235  1  -1.123058  0.07342  -0.314769  -0.540562  0.049472  2.43332  0.066
O  O98  1  0.75766866  0.49978804  0.41341784  1  -1.123086  -0.07347  -0.314642  -0.540496  -0.048241  2.4335  -0.066
O  O99  1  0.36238240  0.31425910  0.49897451  1  -1.113979  -0.085106  -0.31909  -0.529373  -0.055706  2.329811  -0.077
O  O100  1  0.63763384  0.68575449  0.50089960  1  -1.114287  0.08504  -0.31917  -0.529384  0.057108  2.33019  0.077
O  O101  1  0.00030079  0.17813260  0.96700492  1  -1.135362  -0.107257  -0.336924  -0.559925  -0.070042  2.448258  -0.098
O  O102  1  0.99969108  0.82186265  0.03300640  1  -1.135138  -0.107361  -0.336858  -0.559749  -0.070106  2.448567  -0.098
O  O103  1  0.85814063  0.19149567  0.84316477  1  -1.203656  -0.001235  -0.3291  -0.587116  -0.000485  2.180134  -0.001
O  O104  1  0.14183991  0.80852074  0.15686172  1  -1.20376  -0.001364  -0.329068  -0.586825  -0.000578  2.180235  -0.001
