# generated using pymatgen
data_SmCuH16C16(NO)8
_symmetry_space_group_name_H-M   'P 1'
_cell_length_a   9.25196938
_cell_length_b   10.90464690
_cell_length_c   10.90464417
_cell_angle_alpha   88.29887879
_cell_angle_beta   72.84731161
_cell_angle_gamma   72.84731958
_symmetry_Int_Tables_number   1
_chemical_formula_structural   SmCuH16C16(NO)8
_chemical_formula_sum   'Sm2 Cu2 H32 C32 N16 O16'
_cell_volume   1002.49494611
_cell_formula_units_Z   2
loop_
 _symmetry_equiv_pos_site_id
 _symmetry_equiv_pos_as_xyz
  1  'x, y, z'
loop_
 _atom_site_type_symbol
 _atom_site_label
 _atom_site_symmetry_multiplicity
 _atom_site_fract_x
 _atom_site_fract_y
 _atom_site_fract_z
 _atom_site_occupancy
 _atom_site_pbe_bader_spin_density
 _atom_site_pbe_cm5_charge
 _atom_site_pbe_ddec_charge
 _atom_site_pbe_ddec_spin_density
 _atom_site_pbe_ddec_sum_bond_order
 _atom_site_pbe_magmom
Sm  Sm0  1  0.24999982  0.96699154  0.03300837  1  0  1.474122  2.249207  0  1.938847  0
Sm  Sm1  1  0.74999975  0.03300993  0.96699162  1  0  1.474118  2.249222  0  1.938869  0
Cu  Cu2  1  0.99999916  0.00000117  0.50000256  1  0  0.574335  0.351562  0  1.986764  0
Cu  Cu3  1  0.50000038  0.49999908  0.00000050  1  0  0.574337  0.351541  0  1.98673  0
H  H4  1  0.93505554  0.25322996  0.63354028  1  0  0.104717  0.110262  0  1.011159  0
H  H5  1  0.56494358  0.36645831  0.74676870  1  0  0.104717  0.110273  0  1.011152  0
H  H6  1  0.06494215  0.74677053  0.36646115  1  0  0.104724  0.110268  0  1.011186  0
H  H7  1  0.43505849  0.63353353  0.25323014  1  0  0.104718  0.110257  0  1.01118  0
H  H8  1  0.06801283  0.36262418  0.44683798  1  0  0.098402  0.097812  0  1.020778  0
H  H9  1  0.43198455  0.55316102  0.63737876  1  0  0.098365  0.097736  0  1.020774  0
H  H10  1  0.93198340  0.63738015  0.55316275  1  0  0.098359  0.097756  0  1.020738  0
H  H11  1  0.56801794  0.44683275  0.36262081  1  0  0.09837  0.097771  0  1.020798  0
H  H12  1  0.35744881  0.32403471  0.38671996  1  0  0.103685  0.095841  0  1.030538  0
H  H13  1  0.14254843  0.61328084  0.67596912  1  0  0.103699  0.095859  0  1.030564  0
H  H14  1  0.64254892  0.67596870  0.61328317  1  0  0.103675  0.095844  0  1.03056  0
H  H15  1  0.85745296  0.38671583  0.32403153  1  0  0.103694  0.095859  0  1.030536  0
H  H16  1  0.38408840  0.06963014  0.69575141  1  0  0.114501  0.120814  0  1.005085  0
H  H17  1  0.11591476  0.30424512  0.93036938  1  0  0.114506  0.120844  0  1.005045  0
H  H18  1  0.61591528  0.93036939  0.30424487  1  0  0.114507  0.120827  0  1.005054  0
H  H19  1  0.88408107  0.69575729  0.06963244  1  0  0.114524  0.120854  0  1.005042  0
H  H20  1  0.96314808  0.15745117  0.23024103  1  0  0.298849  0.348372  0  1.012248  0
H  H21  1  0.53685426  0.76975923  0.84254934  1  0  0.298845  0.348364  0  1.012259  0
H  H22  1  0.03685335  0.84254838  0.76975857  1  0  0.298831  0.348342  0  1.012284  0
H  H23  1  0.46314645  0.23024226  0.15745219  1  0  0.298821  0.348332  0  1.012298  0
H  H24  1  0.10855416  0.78772684  0.92700439  1  0  0.29431  0.394482  0  0.945054  0
H  H25  1  0.39144570  0.07299597  0.21227253  1  0  0.294308  0.394472  0  0.945065  0
H  H26  1  0.89144578  0.21227366  0.07299555  1  0  0.294308  0.394491  0  0.945042  0
H  H27  1  0.60855501  0.92700549  0.78772626  1  0  0.294316  0.394507  0  0.945022  0
H  H28  1  0.08226104  0.23793384  0.16908899  1  0  0.29624  0.361115  0  0.991306  0
H  H29  1  0.41773993  0.83091089  0.76206692  1  0  0.296255  0.361142  0  0.991267  0
H  H30  1  0.91773813  0.76206568  0.83091027  1  0  0.296224  0.361077  0  0.991358  0
H  H31  1  0.58226303  0.16909060  0.23793312  1  0  0.296222  0.361083  0  0.991353  0
H  H32  1  0.18144553  0.70431349  0.02717168  1  0  0.288808  0.35802  0  0.997874  0
H  H33  1  0.31855303  0.97282907  0.29568671  1  0  0.288804  0.358021  0  0.997879  0
H  H34  1  0.81855553  0.29568699  0.97282523  1  0  0.288798  0.358012  0  0.997887  0
H  H35  1  0.68144546  0.02717528  0.70431344  1  0  0.2888  0.358017  0  0.997876  0
C  C36  1  0.06874338  0.09024461  0.78326216  1  0  0.223851  0.627624  0  4.205121  0
C  C37  1  0.43125535  0.21673725  0.90975844  1  0  0.223835  0.627553  0  4.20514  0
C  C38  1  0.93125842  0.90975397  0.21673739  1  0  0.22381  0.627539  0  4.205022  0
C  C39  1  0.56874194  0.78326135  0.09024592  1  0  0.223826  0.627598  0  4.205058  0
C  C40  1  0.15229542  0.15508897  0.67445260  1  0  -0.019528  -0.045846  0  3.981496  0
C  C41  1  0.34770577  0.32554508  0.84490999  1  0  -0.019515  -0.045757  0  3.981492  0
C  C42  1  0.84770637  0.84490961  0.32554603  1  0  -0.019528  -0.045803  0  3.98155  0
C  C43  1  0.65229413  0.67445253  0.15509008  1  0  -0.019529  -0.045811  0  3.981522  0
C  C44  1  0.06269795  0.23714542  0.60412888  1  0  -0.088538  -0.111534  0  4.005401  0
C  C45  1  0.43730213  0.39586999  0.76285512  1  0  -0.088571  -0.111583  0  4.005436  0
C  C46  1  0.93730199  0.76285507  0.39587015  1  0  -0.088557  -0.111548  0  4.005467  0
C  C47  1  0.56269777  0.60412763  0.23714586  1  0  -0.088531  -0.111538  0  4.005415  0
C  C48  1  0.13664813  0.29846962  0.50166372  1  0  -0.092665  -0.076852  0  4.014441  0
C  C49  1  0.36335040  0.49833371  0.70153144  1  0  -0.092601  -0.076754  0  4.014415  0
C  C50  1  0.86334995  0.70153279  0.49833569  1  0  -0.092612  -0.076805  0  4.014424  0
C  C51  1  0.63665100  0.50166296  0.29847012  1  0  -0.092655  -0.076825  0  4.014492  0
C  C52  1  0.30000840  0.27630998  0.46725201  1  0  -0.077912  -0.087313  0  3.928088  0
C  C53  1  0.19999050  0.53274692  0.72368877  1  0  -0.077917  -0.087334  0  3.928181  0
C  C54  1  0.69999190  0.72368955  0.53274696  1  0  -0.077921  -0.087368  0  3.928244  0
C  C55  1  0.80000980  0.46725262  0.27631112  1  0  -0.07793  -0.087367  0  3.928223  0
C  C56  1  0.39155482  0.19253031  0.53534791  1  0  -0.005606  0.021159  0  4.003484  0
C  C57  1  0.10844587  0.46464886  0.80746988  1  0  -0.005599  0.021223  0  4.003565  0
C  C58  1  0.60844589  0.80747116  0.46465179  1  0  -0.005584  0.021273  0  4.003457  0
C  C59  1  0.89155629  0.53534876  0.19252961  1  0  -0.005595  0.021242  0  4.003505  0
C  C60  1  0.56365743  0.16636060  0.49318568  1  0  0.220459  0.2338  0  4.049509  0
C  C61  1  0.93634367  0.50681249  0.83363957  1  0  0.220463  0.233768  0  4.049563  0
C  C62  1  0.43634368  0.83364281  0.50681476  1  0  0.220475  0.233778  0  4.049516  0
C  C63  1  0.06365623  0.49318511  0.16635958  1  0  0.220448  0.233777  0  4.049582  0
C  C64  1  0.31600407  0.13338218  0.64043496  1  0  -0.07324  -0.10729  0  3.894459  0
C  C65  1  0.18399659  0.35956365  0.86661878  1  0  -0.073261  -0.107411  0  3.894535  0
C  C66  1  0.68399735  0.86661735  0.35956280  1  0  -0.073257  -0.107358  0  3.894457  0
C  C67  1  0.81600295  0.64043493  0.13338225  1  0  -0.07326  -0.107403  0  3.894513  0
N  N68  1  0.66448263  0.10965848  0.55998573  1  0  -0.198095  -0.237314  0  3.21232  0
N  N69  1  0.83551719  0.44001460  0.89034254  1  0  -0.19809  -0.237334  0  3.212399  0
N  N70  1  0.33551586  0.89034589  0.44001626  1  0  -0.198042  -0.237273  0  3.212279  0
N  N71  1  0.16448085  0.55998491  0.10965609  1  0  -0.19805  -0.237277  0  3.212248  0
N  N72  1  0.80863809  0.10264986  0.48014394  1  0  -0.172494  -0.031571  0  3.721829  0
N  N73  1  0.69136295  0.51985697  0.89735070  1  0  -0.172456  -0.031456  0  3.721729  0
N  N74  1  0.19136262  0.89735165  0.51985943  1  0  -0.172523  -0.031572  0  3.721795  0
N  N75  1  0.30863510  0.48014254  0.10264885  1  0  -0.172522  -0.031583  0  3.721733  0
N  N76  1  0.79712065  0.15414652  0.37004170  1  0  -0.079483  -0.047915  0  3.29546  0
N  N77  1  0.70288003  0.62995927  0.84585457  1  0  -0.079577  -0.04805  0  3.295433  0
N  N78  1  0.20288156  0.84585402  0.62996041  1  0  -0.07953  -0.047948  0  3.295434  0
N  N79  1  0.29711765  0.37004122  0.15414595  1  0  -0.079512  -0.047917  0  3.295427  0
N  N80  1  0.64477531  0.19393202  0.37557807  1  0  -0.197002  -0.247912  0  3.264572  0
N  N81  1  0.85522662  0.62442215  0.80606820  1  0  -0.196949  -0.247825  0  3.264434  0
N  N82  1  0.35522802  0.80606851  0.62442192  1  0  -0.196993  -0.247939  0  3.264569  0
N  N83  1  0.14477143  0.37557738  0.19393318  1  0  -0.19698  -0.247921  0  3.264508  0
O  O84  1  0.13598710  0.03939957  0.86672033  1  0  -0.407321  -0.717558  0  2.346954  0
O  O85  1  0.36401844  0.13327561  0.96060255  1  0  -0.407292  -0.717539  0  2.347007  0
O  O86  1  0.86401396  0.96060092  0.13327749  1  0  -0.407311  -0.717539  0  2.346916  0
O  O87  1  0.63598409  0.86672109  0.03940055  1  0  -0.407317  -0.717588  0  2.347032  0
O  O88  1  0.93080383  0.08910810  0.78563581  1  0  -0.397567  -0.663589  0  2.323684  0
O  O89  1  0.56919637  0.21436513  0.91089058  1  0  -0.397594  -0.663612  0  2.323724  0
O  O90  1  0.06919760  0.91089143  0.21436196  1  0  -0.397563  -0.66357  0  2.323605  0
O  O91  1  0.43080136  0.78563824  0.08910981  1  0  -0.397555  -0.663557  0  2.323554  0
O  O92  1  0.03644499  0.17211952  0.14701046  1  0  -0.605745  -0.828767  0  2.245272  0
O  O93  1  0.46355609  0.85298930  0.82788173  1  0  -0.605752  -0.828783  0  2.245269  0
O  O94  1  0.96355531  0.82788001  0.85298851  1  0  -0.605713  -0.828706  0  2.245322  0
O  O95  1  0.53644462  0.14701219  0.17211981  1  0  -0.605704  -0.828724  0  2.245369  0
O  O96  1  0.19340299  0.77505872  0.96896064  1  0  -0.652841  -0.86619  0  2.13037  0
O  O97  1  0.30659673  0.03104047  0.22494169  1  0  -0.652835  -0.866171  0  2.130389  0
O  O98  1  0.80659695  0.22494178  0.03103839  1  0  -0.652826  -0.866192  0  2.130371  0
O  O99  1  0.69340361  0.96896196  0.77505807  1  0  -0.652836  -0.8662  0  2.130343  0
