# generated using pymatgen
data_CuH12C6SIN2
_symmetry_space_group_name_H-M   'P 1'
_cell_length_a   5.50574632
_cell_length_b   13.17025437
_cell_length_c   13.49963431
_cell_angle_alpha   89.99949462
_cell_angle_beta   89.99960866
_cell_angle_gamma   98.57161216
_symmetry_Int_Tables_number   1
_chemical_formula_structural   CuH12C6SIN2
_chemical_formula_sum   'Cu4 H48 C24 S4 I4 N8'
_cell_volume   967.95273515
_cell_formula_units_Z   4
loop_
 _symmetry_equiv_pos_site_id
 _symmetry_equiv_pos_as_xyz
  1  'x, y, z'
loop_
 _atom_site_type_symbol
 _atom_site_label
 _atom_site_symmetry_multiplicity
 _atom_site_fract_x
 _atom_site_fract_y
 _atom_site_fract_z
 _atom_site_occupancy
 _atom_site_hle17_bader_spin_density
 _atom_site_hle17_ddec_charge
 _atom_site_hle17_ddec_spin_density
 _atom_site_hle17_ddec_sum_bond_order
 _atom_site_hle17_magmom
 _atom_site_hse06_10hf_bader_spin_density
 _atom_site_hse06_10hf_ddec_charge
 _atom_site_hse06_10hf_ddec_spin_density
 _atom_site_hse06_10hf_ddec_sum_bond_order
 _atom_site_hse06_10hf_magmom
 _atom_site_hse06_bader_spin_density
 _atom_site_hse06_ddec_charge
 _atom_site_hse06_ddec_spin_density
 _atom_site_hse06_ddec_sum_bond_order
 _atom_site_hse06_magmom
 _atom_site_pbe_bader_spin_density
 _atom_site_pbe_cm5_charge
 _atom_site_pbe_ddec_charge
 _atom_site_pbe_ddec_spin_density
 _atom_site_pbe_ddec_sum_bond_order
 _atom_site_pbe_magmom
Cu  Cu0  1  0.75787853  0.49673260  0.49233076  1  0  0.228018  0  2.265921  0  0  0.166604  0  2.751008  0  0  0.176642  0  2.697902  0  0  0.21365  0.161324  0  2.785914  0
Cu  Cu1  1  0.74213902  0.00326834  0.99233987  1  0  0.22802  0  2.265979  0  0  0.166597  0  2.751101  0  0  0.176631  0  2.698043  0  0  0.21363  0.161332  0  2.785937  0
Cu  Cu2  1  0.24213805  0.50327524  0.50766152  1  0  0.227981  0  2.26606  0  0  0.166572  0  2.75114  0  0  0.176636  0  2.698036  0  0  0.213634  0.161289  0  2.786038  0
Cu  Cu3  1  0.25786825  0.99673416  0.00766574  1  0  0.228021  0  2.265931  0  0  0.16661  0  2.751043  0  0  0.176651  0  2.697931  0  0  0.213648  0.161333  0  2.785936  0
H  H4  1  0.30791058  0.56946504  0.71749200  1  0  0.271851  0  0.96861  0  0  0.25128  0  1.046373  0  0  0.260028  0  1.038569  0  0  0.273279  0.245072  0  1.051933  0
H  H5  1  0.19208477  0.93052923  0.21749997  1  0  0.272073  0  0.968624  0  0  0.251485  0  1.046406  0  0  0.26023  0  1.038603  0  0  0.273423  0.245286  0  1.051948  0
H  H6  1  0.69210365  0.43053665  0.28250547  1  0  0.272067  0  0.9685  0  0  0.251461  0  1.046321  0  0  0.260207  0  1.03852  0  0  0.273372  0.245253  0  1.051893  0
H  H7  1  0.80790201  0.06946722  0.78250787  1  0  0.272036  0  0.968583  0  0  0.251478  0  1.046364  0  0  0.260219  0  1.038567  0  0  0.273392  0.245272  0  1.051922  0
H  H8  1  0.56606878  0.59311983  0.87904626  1  0  0.069853  0  0.94321  0  0  0.090766  0  0.997623  0  0  0.090829  0  0.998566  0  0  0.107388  0.09061  0  0.99706  0
H  H9  1  0.93390469  0.90686185  0.37904338  1  0  0.069736  0  0.943402  0  0  0.090572  0  0.997826  0  0  0.090635  0  0.998768  0  0  0.107347  0.090428  0  0.997242  0
H  H10  1  0.43393124  0.40688270  0.12095120  1  0  0.069883  0  0.943124  0  0  0.090796  0  0.997543  0  0  0.090859  0  0.998487  0  0  0.107399  0.09064  0  0.996978  0
H  H11  1  0.06606464  0.09312699  0.62095927  1  0  0.069864  0  0.943242  0  0  0.090685  0  0.997746  0  0  0.090748  0  0.998691  0  0  0.107341  0.090529  0  0.997179  0
H  H12  1  0.44609480  0.71016977  0.85743496  1  0  0.059982  0  0.952527  0  0  0.072181  0  1.022101  0  0  0.073409  0  1.021135  0  0  0.090645  0.071138  0  1.022932  0
H  H13  1  0.05388207  0.78982473  0.35743940  1  0  0.05998  0  0.952588  0  0  0.072163  0  1.022107  0  0  0.073391  0  1.021142  0  0  0.090663  0.071123  0  1.02294  0
H  H14  1  0.55391281  0.28982888  0.14256473  1  0  0.059984  0  0.952491  0  0  0.072181  0  1.022069  0  0  0.07341  0  1.021103  0  0  0.090652  0.071139  0  1.022898  0
H  H15  1  0.94608658  0.21017180  0.64256399  1  0  0.05999  0  0.952452  0  0  0.072211  0  1.021999  0  0  0.073439  0  1.021033  0  0  0.090664  0.071168  0  1.022827  0
H  H16  1  0.96704837  0.67022959  0.82514092  1  0  0.065894  0  0.920056  0  0  0.07994  0  0.985541  0  0  0.08112  0  0.984648  0  0  0.098798  0.078946  0  0.986358  0
H  H17  1  0.53293556  0.82974873  0.32513099  1  0  0.065941  0  0.919898  0  0  0.079925  0  0.985477  0  0  0.081105  0  0.984584  0  0  0.098807  0.078935  0  0.986296  0
H  H18  1  0.03295439  0.32977062  0.17486173  1  0  0.065923  0  0.920012  0  0  0.079976  0  0.985495  0  0  0.081156  0  0.984604  0  0  0.098805  0.078978  0  0.986315  0
H  H19  1  0.46703858  0.17024316  0.67486573  1  0  0.066039  0  0.919962  0  0  0.080002  0  0.985528  0  0  0.081182  0  0.984635  0  0  0.098846  0.079009  0  0.986348  0
H  H20  1  0.85269668  0.79026939  0.83219259  1  0  0.07864  0  0.957988  0  0  0.0896  0  1.028995  0  0  0.090471  0  1.029136  0  0  0.092293  0.088777  0  1.029129  0
H  H21  1  0.64729883  0.70971572  0.33218044  1  0  0.078573  0  0.95792  0  0  0.08956  0  1.028935  0  0  0.090432  0  1.029073  0  0  0.092289  0.088748  0  1.029069  0
H  H22  1  0.14731089  0.20973388  0.16781228  1  0  0.078679  0  0.95812  0  0  0.089632  0  1.029116  0  0  0.090503  0  1.029257  0  0  0.092322  0.088814  0  1.029248  0
H  H23  1  0.35267286  0.29027926  0.66781406  1  0  0.078625  0  0.958052  0  0  0.089583  0  1.029058  0  0  0.090451  0  1.0292  0  0  0.092282  0.088769  0  1.029188  0
H  H24  1  0.02957227  0.71646092  0.56582763  1  0  0.066057  0  0.957933  0  0  0.076821  0  1.033036  0  0  0.077793  0  1.032364  0  0  0.09407  0.075896  0  1.03372  0
H  H25  1  0.47042383  0.78354794  0.06582426  1  0  0.065972  0  0.957988  0  0  0.076773  0  1.033122  0  0  0.077735  0  1.032474  0  0  0.094022  0.075845  0  1.033805  0
H  H26  1  0.97043648  0.28354542  0.43417502  1  0  0.065966  0  0.957923  0  0  0.076704  0  1.033083  0  0  0.077675  0  1.032412  0  0  0.094033  0.075772  0  1.033786  0
H  H27  1  0.52956228  0.21645620  0.93417394  1  0  0.065994  0  0.957928  0  0  0.076737  0  1.033082  0  0  0.077709  0  1.032409  0  0  0.094056  0.075808  0  1.033765  0
H  H28  1  0.19127712  0.74953654  0.67739249  1  0  0.065364  0  0.946496  0  0  0.081607  0  1.009928  0  0  0.081847  0  1.010664  0  0  0.098821  0.081218  0  1.009661  0
H  H29  1  0.30873323  0.75045728  0.17739063  1  0  0.065375  0  0.94639  0  0  0.081701  0  1.009823  0  0  0.08194  0  1.010559  0  0  0.098853  0.081314  0  1.009544  0
H  H30  1  0.80873951  0.25046668  0.32261163  1  0  0.065316  0  0.946577  0  0  0.081628  0  1.009941  0  0  0.081876  0  1.010669  0  0  0.09882  0.081242  0  1.009669  0
H  H31  1  0.69125296  0.24953762  0.82260535  1  0  0.065352  0  0.946455  0  0  0.081651  0  1.00985  0  0  0.081899  0  1.010577  0  0  0.098853  0.081261  0  1.009576  0
H  H32  1  0.87587496  0.88535181  0.56659234  1  0  0.056941  0  0.945097  0  0  0.076338  0  1.00692  0  0  0.076832  0  1.007534  0  0  0.083567  0.075869  0  1.006621  0
H  H33  1  0.62411742  0.61465674  0.06657593  1  0  0.057077  0  0.945038  0  0  0.076434  0  1.006852  0  0  0.076929  0  1.007463  0  0  0.083605  0.075958  0  1.00657  0
H  H34  1  0.12413560  0.11465452  0.43341253  1  0  0.057026  0  0.945111  0  0  0.076419  0  1.006886  0  0  0.076916  0  1.007495  0  0  0.083606  0.075946  0  1.006587  0
H  H35  1  0.37587893  0.38535042  0.93341413  1  0  0.057054  0  0.945122  0  0  0.076414  0  1.006933  0  0  0.076911  0  1.007539  0  0  0.083596  0.075945  0  1.006638  0
H  H36  1  0.01891559  0.91633161  0.68263436  1  0  0.0642  0  0.9539  0  0  0.078587  0  1.023352  0  0  0.079841  0  1.0233  0  0  0.078768  0.077581  0  1.023525  0
H  H37  1  0.48111123  0.58366747  0.18261719  1  0  0.064306  0  0.95394  0  0  0.078687  0  1.023304  0  0  0.079936  0  1.023261  0  0  0.078819  0.077688  0  1.023473  0
H  H38  1  0.98109801  0.08367317  0.31737051  1  0  0.064247  0  0.953881  0  0  0.078648  0  1.023265  0  0  0.079883  0  1.023235  0  0  0.078805  0.077643  0  1.02343  0
H  H39  1  0.51890211  0.41633192  0.81737508  1  0  0.064262  0  0.953833  0  0  0.07866  0  1.023228  0  0  0.079898  0  1.023196  0  0  0.078838  0.077657  0  1.023399  0
H  H40  1  0.43322795  0.90964628  0.60945922  1  0  0.091872  0  0.969983  0  0  0.110223  0  1.038342  0  0  0.111701  0  1.038608  0  0  0.075173  0.109089  0  1.038224  0
H  H41  1  0.06678829  0.59034589  0.10945208  1  0  0.091968  0  0.969923  0  0  0.11028  0  1.038325  0  0  0.111761  0  1.03859  0  0  0.075229  0.109147  0  1.03821  0
H  H42  1  0.56678055  0.09035467  0.39054343  1  0  0.09191  0  0.969874  0  0  0.110253  0  1.038258  0  0  0.111728  0  1.038526  0  0  0.075185  0.109121  0  1.038134  0
H  H43  1  0.93321843  0.40965046  0.89054242  1  0  0.091843  0  0.970037  0  0  0.110188  0  1.038415  0  0  0.111669  0  1.038679  0  0  0.075183  0.109055  0  1.038302  0
H  H44  1  0.28587720  0.99820590  0.54179794  1  0  0.084747  0  0.98007  0  0  0.106913  0  1.043459  0  0  0.107929  0  1.043875  0  0  0.081209  0.106132  0  1.043226  0
H  H45  1  0.21414028  0.50179617  0.04178228  1  0  0.084799  0  0.980089  0  0  0.106895  0  1.043543  0  0  0.107905  0  1.043973  0  0  0.081204  0.106115  0  1.043311  0
H  H46  1  0.71413791  0.00179809  0.45820619  1  0  0.08478  0  0.979921  0  0  0.106933  0  1.043329  0  0  0.107949  0  1.043743  0  0  0.081216  0.106149  0  1.043102  0
H  H47  1  0.78586973  0.49820401  0.95821000  1  0  0.08474  0  0.979939  0  0  0.106895  0  1.043369  0  0  0.107907  0  1.043791  0  0  0.081201  0.106115  0  1.043139  0
H  H48  1  0.30009441  0.87432750  0.49246307  1  0  0.085109  0  0.966121  0  0  0.107339  0  1.030473  0  0  0.108194  0  1.031343  0  0  0.080449  0.106656  0  1.029908  0
H  H49  1  0.19988752  0.62568101  0.99245268  1  0  0.085054  0  0.966145  0  0  0.107285  0  1.030487  0  0  0.108168  0  1.031322  0  0  0.080427  0.10661  0  1.029926  0
H  H50  1  0.69991075  0.12567424  0.50754106  1  0  0.085043  0  0.966184  0  0  0.107277  0  1.030547  0  0  0.108131  0  1.031413  0  0  0.080423  0.106599  0  1.029979  0
H  H51  1  0.80010706  0.37432155  0.00753811  1  0  0.085062  0  0.966146  0  0  0.107288  0  1.030514  0  0  0.108142  0  1.031386  0  0  0.080453  0.106609  0  1.029955  0
C  C52  1  0.61430721  0.65736624  0.65574578  1  0  0.392847  0  3.823541  0  0  0.345441  0  4.118452  0  0  0.372617  0  4.124492  0  0  0.236584  0.3271  0  4.113874  0
C  C53  1  0.88568751  0.84262372  0.15574139  1  0  0.392586  0  3.823925  0  0  0.345197  0  4.118724  0  0  0.372372  0  4.124761  0  0  0.236431  0.326844  0  4.114173  0
C  C54  1  0.38569609  0.34264012  0.34425612  1  0  0.392829  0  3.823552  0  0  0.345385  0  4.118443  0  0  0.372559  0  4.124488  0  0  0.236513  0.327031  0  4.113893  0
C  C55  1  0.11430138  0.15737348  0.84426274  1  0  0.392775  0  3.823191  0  0  0.345387  0  4.118044  0  0  0.372561  0  4.124082  0  0  0.236515  0.327031  0  4.1135  0
C  C56  1  0.56137411  0.65629830  0.82661568  1  0  0.043981  0  3.588602  0  0  -0.012961  0  3.840748  0  0  -0.008405  0  3.850213  0  0  -0.053653  -0.015843  0  3.834271  0
C  C57  1  0.93860937  0.84369309  0.32660964  1  0  0.043951  0  3.589238  0  0  -0.012761  0  3.841091  0  0  -0.008207  0  3.850558  0  0  -0.053694  -0.015666  0  3.834641  0
C  C58  1  0.43863620  0.34370265  0.17338549  1  0  0.043956  0  3.588528  0  0  -0.013006  0  3.840678  0  0  -0.008452  0  3.850144  0  0  -0.053666  -0.015892  0  3.834203  0
C  C59  1  0.06136595  0.15630187  0.67338930  1  0  0.043876  0  3.588707  0  0  -0.013011  0  3.840802  0  0  -0.008458  0  3.850268  0  0  -0.053685  -0.015896  0  3.834327  0
C  C60  1  0.81949942  0.71260364  0.80069509  1  0  -0.008628  0  3.580115  0  0  -0.069102  0  3.837725  0  0  -0.065456  0  3.848359  0  0  -0.053568  -0.071407  0  3.830548  0
C  C61  1  0.68050274  0.78738330  0.30068882  1  0  -0.008417  0  3.579914  0  0  -0.068997  0  3.837587  0  0  -0.065353  0  3.848221  0  0  -0.053496  -0.071329  0  3.830451  0
C  C62  1  0.18050819  0.28739501  0.19930533  1  0  -0.008715  0  3.580057  0  0  -0.069233  0  3.837715  0  0  -0.065588  0  3.848348  0  0  -0.053639  -0.071536  0  3.830529  0
C  C63  1  0.31947801  0.21261164  0.69931012  1  0  -0.008657  0  3.580106  0  0  -0.069097  0  3.837729  0  0  -0.065448  0  3.848359  0  0  -0.053594  -0.071426  0  3.830571  0
C  C64  1  0.02707520  0.76079149  0.63478486  1  0  0.01334  0  3.655887  0  0  -0.044122  0  3.904914  0  0  -0.040162  0  3.918202  0  0  -0.064236  -0.046545  0  3.895909  0
C  C65  1  0.47293227  0.73921201  0.13477744  1  0  0.01354  0  3.655752  0  0  -0.044213  0  3.904926  0  0  -0.040252  0  3.918208  0  0  -0.064106  -0.04661  0  3.895878  0
C  C66  1  0.97293570  0.23921099  0.36521779  1  0  0.013539  0  3.656037  0  0  -0.04397  0  3.904944  0  0  -0.040013  0  3.91823  0  0  -0.064189  -0.046393  0  3.895926  0
C  C67  1  0.52705961  0.26078826  0.86521855  1  0  0.013569  0  3.655693  0  0  -0.043928  0  3.904625  0  0  -0.03997  0  3.917905  0  0  -0.064173  -0.04633  0  3.895585  0
C  C68  1  0.03551081  0.87491598  0.61263263  1  0  -0.091572  0  3.70905  0  0  -0.127511  0  3.969957  0  0  -0.128747  0  3.984004  0  0  -0.175428  -0.126489  0  3.960135  0
C  C69  1  0.46449617  0.62509005  0.11261810  1  0  -0.09201  0  3.709315  0  0  -0.127737  0  3.970001  0  0  -0.128972  0  3.984045  0  0  -0.175532  -0.126719  0  3.960185  0
C  C70  1  0.96449857  0.12508728  0.38737373  1  0  -0.091799  0  3.709354  0  0  -0.127651  0  3.970107  0  0  -0.128878  0  3.984155  0  0  -0.175473  -0.126623  0  3.960273  0
C  C71  1  0.53550718  0.37491169  0.88737270  1  0  -0.091953  0  3.709218  0  0  -0.127802  0  3.970025  0  0  -0.129029  0  3.984071  0  0  -0.175578  -0.126784  0  3.960206  0
C  C72  1  0.27605315  0.91677700  0.56102032  1  0  -0.287179  0  3.73168  0  0  -0.361956  0  3.977795  0  0  -0.364983  0  3.989744  0  0  -0.25344  -0.359591  0  3.969497  0
C  C73  1  0.22395097  0.58322418  0.06100835  1  0  -0.287192  0  3.73179  0  0  -0.361937  0  3.977813  0  0  -0.364984  0  3.989742  0  0  -0.253499  -0.359571  0  3.969525  0
C  C74  1  0.72395804  0.08322625  0.43898233  1  0  -0.287138  0  3.731654  0  0  -0.361962  0  3.977755  0  0  -0.36498  0  3.989703  0  0  -0.25346  -0.359602  0  3.969454  0
C  C75  1  0.77604909  0.41677374  0.93898319  1  0  -0.286962  0  3.731633  0  0  -0.361762  0  3.977673  0  0  -0.364787  0  3.989616  0  0  -0.253411  -0.359392  0  3.969389  0
S  S76  1  0.55261027  0.63865838  0.53235891  1  0  -0.369256  0  2.580579  0  0  -0.34399  0  3.026321  0  0  -0.354063  0  3.000127  0  0  -0.22313  -0.337595  0  3.043814  0
S  S77  1  0.94741184  0.86134576  0.03236380  1  0  -0.369164  0  2.580778  0  0  -0.34392  0  3.026495  0  0  -0.353982  0  3.000296  0  0  -0.223093  -0.337528  0  3.043998  0
S  S78  1  0.44741028  0.36134559  0.46764003  1  0  -0.369172  0  2.580445  0  0  -0.343919  0  3.026172  0  0  -0.35399  0  2.999979  0  0  -0.223106  -0.337517  0  3.043677  0
S  S79  1  0.05259122  0.13865522  0.96764329  1  0  -0.369103  0  2.580606  0  0  -0.343864  0  3.026355  0  0  -0.353922  0  3.000143  0  0  -0.223058  -0.337475  0  3.043854  0
I  I80  1  0.95546840  0.43973072  0.65912858  1  0  -0.39315  0  1.45961  0  0  -0.338455  0  1.857744  0  0  -0.353566  0  1.823421  0  0  -0.18095  -0.327849  0  1.880742  0
I  I81  1  0.54453458  0.06027055  0.15913214  1  0  -0.393246  0  1.459644  0  0  -0.338537  0  1.857784  0  0  -0.353644  0  1.823464  0  0  -0.180981  -0.327945  0  1.880773  0
I  I82  1  0.04454852  0.56027327  0.34086666  1  0  -0.393248  0  1.459771  0  0  -0.338541  0  1.857923  0  0  -0.353651  0  1.823602  0  0  -0.180986  -0.327932  0  1.880936  0
I  I83  1  0.45545760  0.93973048  0.84087125  1  0  -0.393222  0  1.459594  0  0  -0.338513  0  1.857727  0  0  -0.353616  0  1.823412  0  0  -0.180963  -0.327908  0  1.88071  0
N  N84  1  0.46862873  0.61803535  0.73013856  1  0  -0.402783  0  3.356829  0  0  -0.342192  0  3.605315  0  0  -0.361197  0  3.61238  0  0  -0.424883  -0.329506  0  3.600478  0
N  N85  1  0.03139049  0.88196483  0.23014076  1  0  -0.403016  0  3.356575  0  0  -0.342473  0  3.604924  0  0  -0.361476  0  3.611978  0  0  -0.425075  -0.32978  0  3.600091  0
N  N86  1  0.53137883  0.38196792  0.26986039  1  0  -0.403037  0  3.356857  0  0  -0.342377  0  3.605254  0  0  -0.361381  0  3.612326  0  0  -0.42498  -0.329691  0  3.600437  0
N  N87  1  0.96859815  0.11802699  0.76986189  1  0  -0.403014  0  3.356402  0  0  -0.342422  0  3.604746  0  0  -0.361427  0  3.61181  0  0  -0.425041  -0.329728  0  3.599916  0
N  N88  1  0.81523621  0.71624626  0.69200769  1  0  -0.186075  0  3.426042  0  0  -0.093293  0  3.656149  0  0  -0.11263  0  3.678738  0  0  -0.275362  -0.08053  0  3.640694  0
N  N89  1  0.68477922  0.78374707  0.19200293  1  0  -0.185887  0  3.426306  0  0  -0.092967  0  3.656364  0  0  -0.112297  0  3.67895  0  0  -0.275281  -0.080205  0  3.640922  0
N  N90  1  0.18477140  0.28375238  0.30799569  1  0  -0.186105  0  3.425931  0  0  -0.093273  0  3.656025  0  0  -0.11261  0  3.678616  0  0  -0.275328  -0.080503  0  3.640567  0
N  N91  1  0.31521001  0.21624628  0.80799602  1  0  -0.186178  0  3.426156  0  0  -0.093388  0  3.656268  0  0  -0.112724  0  3.678855  0  0  -0.275361  -0.080622  0  3.640815  0
