# generated using pymatgen
data_CdPH8C6ClO3
_symmetry_space_group_name_H-M   'P 1'
_cell_length_a   5.84151747
_cell_length_b   12.78822813
_cell_length_c   13.47921459
_cell_angle_alpha   63.93872898
_cell_angle_beta   77.47266377
_cell_angle_gamma   76.81424908
_symmetry_Int_Tables_number   1
_chemical_formula_structural   CdPH8C6ClO3
_chemical_formula_sum   'Cd4 P4 H32 C24 Cl4 O12'
_cell_volume   872.83180340
_cell_formula_units_Z   4
loop_
 _symmetry_equiv_pos_site_id
 _symmetry_equiv_pos_as_xyz
  1  'x, y, z'
loop_
 _atom_site_type_symbol
 _atom_site_label
 _atom_site_symmetry_multiplicity
 _atom_site_fract_x
 _atom_site_fract_y
 _atom_site_fract_z
 _atom_site_occupancy
 _atom_site_hle17_bader_spin_density
 _atom_site_hle17_ddec_charge
 _atom_site_hle17_ddec_spin_density
 _atom_site_hle17_ddec_sum_bond_order
 _atom_site_hle17_magmom
 _atom_site_hse06_10hf_bader_spin_density
 _atom_site_hse06_10hf_ddec_charge
 _atom_site_hse06_10hf_ddec_spin_density
 _atom_site_hse06_10hf_ddec_sum_bond_order
 _atom_site_hse06_10hf_magmom
 _atom_site_hse06_bader_spin_density
 _atom_site_hse06_ddec_charge
 _atom_site_hse06_ddec_spin_density
 _atom_site_hse06_ddec_sum_bond_order
 _atom_site_hse06_magmom
 _atom_site_pbe_bader_spin_density
 _atom_site_pbe_cm5_charge
 _atom_site_pbe_ddec_charge
 _atom_site_pbe_ddec_spin_density
 _atom_site_pbe_ddec_sum_bond_order
 _atom_site_pbe_magmom
Cd  Cd0  1  0.22851218  0.74992600  0.24998619  1  0  1.19884  0  1.795895  0  0  1.038959  0  2.251997  0  0  1.087043  0  2.200684  0  0  0.697989  1.004654  0  2.286988  0
Cd  Cd1  1  0.77149208  0.25007460  0.75001311  1  0  1.198905  0  1.795829  0  0  1.038973  0  2.251955  0  0  1.087057  0  2.200639  0  0  0.697986  1.00467  0  2.28695  0
Cd  Cd2  1  0.00000057  0.00000089  0.00000056  1  0  1.231306  0  1.653163  0  0  1.074387  0  2.09848  0  0  1.124126  0  2.043948  0  0  0.699456  1.03879  0  2.136007  0
Cd  Cd3  1  0.00000417  0.50000016  0.49999856  1  0  1.231273  0  1.655362  0  0  1.074548  0  2.100789  0  0  1.124226  0  2.046293  0  0  0.699451  1.039052  0  2.1382  0
P  P4  1  0.65399449  0.89522790  0.26660264  1  0  1.185962  0  4.663153  0  0  1.022161  0  5.128901  0  0  1.063815  0  5.108671  0  0  0.23589  0.993145  0  5.142418  0
P  P5  1  0.81603973  0.60455131  0.23346911  1  0  1.183844  0  4.662599  0  0  1.019889  0  5.12859  0  0  1.061613  0  5.108291  0  0  0.235156  0.990809  0  5.142172  0
P  P6  1  0.34601485  0.10476919  0.73339929  1  0  1.185984  0  4.66326  0  0  1.022127  0  5.129009  0  0  1.063777  0  5.108778  0  0  0.235864  0.993109  0  5.142528  0
P  P7  1  0.18395738  0.39545194  0.76652850  1  0  1.183901  0  4.662592  0  0  1.019954  0  5.128582  0  0  1.06168  0  5.108282  0  0  0.235159  0.990878  0  5.142155  0
H  H8  1  0.67399984  0.78971909  0.36413458  1  0  -0.116453  0  0.90288  0  0  -0.086506  0  0.99007  0  0  -0.089515  0  0.987056  0  0  0.085634  -0.08461  0  0.992388  0
H  H9  1  0.82847529  0.71004386  0.13586616  1  0  -0.116151  0  0.902678  0  0  -0.086238  0  0.989891  0  0  -0.089252  0  0.986908  0  0  0.085738  -0.084341  0  0.992199  0
H  H10  1  0.32600836  0.21027622  0.63586622  1  0  -0.116439  0  0.902891  0  0  -0.086511  0  0.990114  0  0  -0.089521  0  0.987104  0  0  0.085638  -0.084609  0  0.992428  0
H  H11  1  0.17152269  0.28996203  0.86413223  1  0  -0.116117  0  0.902658  0  0  -0.086226  0  0.989897  0  0  -0.089243  0  0.986918  0  0  0.08576  -0.084331  0  0.992207  0
H  H12  1  0.32978637  0.00958794  0.11525323  1  0  0.430515  0  0.877575  0  0  0.397944  0  0.943384  0  0  0.409014  0  0.927558  0  0  0.284718  0.390156  0  0.954486  0
H  H13  1  0.45492841  0.49039348  0.38491560  1  0  0.430617  0  0.877426  0  0  0.398312  0  0.942914  0  0  0.409373  0  0.9271  0  0  0.28473  0.39052  0  0.954023  0
H  H14  1  0.67022037  0.99041003  0.88474893  1  0  0.430536  0  0.87754  0  0  0.397943  0  0.943381  0  0  0.409011  0  0.927557  0  0  0.284731  0.390151  0  0.95449  0
H  H15  1  0.54507500  0.50960711  0.61508281  1  0  0.430664  0  0.877363  0  0  0.398361  0  0.942847  0  0  0.409423  0  0.927032  0  0  0.284738  0.390567  0  0.95396  0
H  H16  1  0.37843340  0.11735215  0.00065488  1  0  0.407549  0  0.888112  0  0  0.37738  0  0.960508  0  0  0.38737  0  0.94593  0  0  0.271716  0.370218  0  0.970962  0
H  H17  1  0.49637015  0.38265162  0.49955079  1  0  0.407758  0  0.889175  0  0  0.377676  0  0.960319  0  0  0.387663  0  0.945741  0  0  0.271847  0.370515  0  0.97077  0
H  H18  1  0.62156889  0.88264758  0.99934700  1  0  0.407549  0  0.888104  0  0  0.377383  0  0.960506  0  0  0.387372  0  0.945927  0  0  0.27172  0.37022  0  0.970959  0
H  H19  1  0.50363594  0.61734720  0.50044443  1  0  0.407747  0  0.889195  0  0  0.377677  0  0.960304  0  0  0.387664  0  0.945727  0  0  0.271878  0.370519  0  0.970753  0
H  H20  1  0.89593180  0.08422961  0.24600023  1  0  0.09837  0  0.952608  0  0  0.109766  0  1.013476  0  0  0.112221  0  1.012554  0  0  0.102223  0.107983  0  1.014185  0
H  H21  1  0.22539656  0.41542180  0.25425661  1  0  0.097862  0  0.954048  0  0  0.109014  0  1.015256  0  0  0.111558  0  1.014265  0  0  0.101866  0.107158  0  1.016024  0
H  H22  1  0.10406581  0.91576839  0.75400752  1  0  0.098348  0  0.952601  0  0  0.109752  0  1.01347  0  0  0.112206  0  1.01255  0  0  0.102197  0.107964  0  1.014181  0
H  H23  1  0.77459266  0.58458499  0.74574464  1  0  0.097872  0  0.954196  0  0  0.109042  0  1.015371  0  0  0.11157  0  1.014402  0  0  0.101833  0.107184  0  1.016142  0
H  H24  1  0.76734290  0.23630050  0.32385111  1  0  0.090528  0  0.970232  0  0  0.099688  0  1.033064  0  0  0.101656  0  1.034257  0  0  0.09664  0.098272  0  1.032349  0
H  H25  1  0.32691360  0.26344916  0.17635164  1  0  0.090554  0  0.969609  0  0  0.099745  0  1.03242  0  0  0.101701  0  1.033662  0  0  0.096533  0.098338  0  1.031637  0
H  H26  1  0.23264005  0.76369836  0.67615316  1  0  0.090526  0  0.970195  0  0  0.099727  0  1.032971  0  0  0.101699  0  1.034161  0  0  0.096634  0.098307  0  1.032261  0
H  H27  1  0.67308967  0.73655323  0.82365265  1  0  0.09057  0  0.969581  0  0  0.099755  0  1.032411  0  0  0.101716  0  1.033634  0  0  0.096533  0.098349  0  1.03163  0
H  H28  1  0.36956074  0.24833153  0.43321112  1  0  0.089186  0  0.98298  0  0  0.096744  0  1.05187  0  0  0.099683  0  1.049684  0  0  0.091032  0.094591  0  1.053493  0
H  H29  1  0.05089385  0.25142270  0.06686648  1  0  0.089674  0  0.982324  0  0  0.096942  0  1.051475  0  0  0.099869  0  1.049336  0  0  0.090807  0.09478  0  1.053112  0
H  H30  1  0.63042012  0.75166554  0.56678948  1  0  0.089152  0  0.982873  0  0  0.096702  0  1.051782  0  0  0.099641  0  1.049596  0  0  0.091008  0.094547  0  1.053411  0
H  H31  1  0.94911389  0.74857967  0.93313337  1  0  0.089653  0  0.982316  0  0  0.096898  0  1.051479  0  0  0.099823  0  1.049343  0  0  0.090807  0.094735  0  1.05311  0
H  H32  1  0.09690245  0.11011328  0.46585252  1  0  0.085792  0  0.964488  0  0  0.095817  0  1.028375  0  0  0.098199  0  1.028028  0  0  0.093648  0.09411  0  1.02869  0
H  H33  1  0.67275640  0.38956941  0.03420323  1  0  0.085617  0  0.963599  0  0  0.09564  0  1.027545  0  0  0.098055  0  1.027156  0  0  0.093151  0.093936  0  1.027864  0
H  H34  1  0.90308537  0.88988115  0.53414648  1  0  0.085767  0  0.96455  0  0  0.095823  0  1.028407  0  0  0.098207  0  1.028055  0  0  0.093665  0.094118  0  1.028725  0
H  H35  1  0.32724904  0.61042942  0.96579438  1  0  0.085701  0  0.96368  0  0  0.095681  0  1.027669  0  0  0.098091  0  1.027283  0  0  0.093186  0.093978  0  1.02797  0
H  H36  1  0.22323638  0.95757593  0.38881030  1  0  0.085791  0  0.960317  0  0  0.095799  0  1.026233  0  0  0.098517  0  1.024649  0  0  0.096878  0.093822  0  1.027408  0
H  H37  1  0.56950932  0.54224798  0.11112201  1  0  0.086047  0  0.959892  0  0  0.096176  0  1.025742  0  0  0.098846  0  1.024247  0  0  0.097182  0.094218  0  1.026902  0
H  H38  1  0.77676139  0.04241499  0.61119346  1  0  0.085813  0  0.960253  0  0  0.095826  0  1.026174  0  0  0.098546  0  1.024591  0  0  0.096924  0.093852  0  1.027349  0
H  H39  1  0.43048759  0.45775524  0.88887231  1  0  0.08604  0  0.959917  0  0  0.096187  0  1.02575  0  0  0.098858  0  1.024253  0  0  0.097168  0.094229  0  1.026919  0
C  C40  1  0.56780964  0.01172115  0.31286656  1  0  -0.230756  0  3.816929  0  0  -0.18406  0  4.051904  0  0  -0.194912  0  4.07742  0  0  -0.036684  -0.176764  0  4.034673  0
C  C41  1  0.89194880  0.48805642  0.18726002  1  0  -0.230707  0  3.81846  0  0  -0.183262  0  4.052166  0  0  -0.194147  0  4.077772  0  0  -0.036873  -0.175942  0  4.034868  0
C  C42  1  0.43219240  0.98827418  0.68713687  1  0  -0.230709  0  3.81705  0  0  -0.183963  0  4.051949  0  0  -0.194814  0  4.077466  0  0  -0.036631  -0.176671  0  4.034724  0
C  C43  1  0.10806837  0.51194595  0.81273918  1  0  -0.230774  0  3.818513  0  0  -0.183332  0  4.052258  0  0  -0.194217  0  4.077855  0  0  -0.036956  -0.176021  0  4.034972  0
C  C44  1  0.72171523  0.08985685  0.29456706  1  0  -0.043696  0  3.74175  0  0  -0.066225  0  3.98229  0  0  -0.06553  0  4.003931  0  0  -0.08101  -0.066507  0  3.967567  0
C  C45  1  0.10546963  0.40985848  0.20564170  1  0  -0.043587  0  3.742879  0  0  -0.066239  0  3.983109  0  0  -0.065616  0  4.00478  0  0  -0.080958  -0.066463  0  3.968364  0
C  C46  1  0.27827742  0.91014113  0.70543690  1  0  -0.043697  0  3.741808  0  0  -0.066255  0  3.9824  0  0  -0.065563  0  4.004044  0  0  -0.08102  -0.066529  0  3.967672  0
C  C47  1  0.89452424  0.59014739  0.79435380  1  0  -0.043798  0  3.742394  0  0  -0.066471  0  3.982654  0  0  -0.065837  0  4.004328  0  0  -0.080973  -0.066687  0  3.967915  0
C  C48  1  0.64933095  0.17479490  0.33824384  1  0  -0.074425  0  3.745238  0  0  -0.084386  0  3.990326  0  0  -0.088052  0  4.012689  0  0  -0.090049  -0.081973  0  3.975175  0
C  C49  1  0.16176070  0.32491061  0.16194027  1  0  -0.072911  0  3.741892  0  0  -0.082795  0  3.986812  0  0  -0.086456  0  4.009147  0  0  -0.08929  -0.080361  0  3.97166  0
C  C50  1  0.35065896  0.82520130  0.66175883  1  0  -0.074434  0  3.745129  0  0  -0.08445  0  3.990265  0  0  -0.088117  0  4.012629  0  0  -0.090016  -0.082035  0  3.97511  0
C  C51  1  0.83824859  0.67509530  0.83806257  1  0  -0.072803  0  3.741917  0  0  -0.0827  0  3.986809  0  0  -0.08636  0  4.009152  0  0  -0.089277  -0.080262  0  3.971632  0
C  C52  1  0.42568149  0.18114214  0.40021048  1  0  -0.05183  0  3.735892  0  0  -0.065143  0  3.981124  0  0  -0.06546  0  4.001551  0  0  -0.084727  -0.064722  0  3.967197  0
C  C53  1  0.00664051  0.31858275  0.09991581  1  0  -0.053689  0  3.736692  0  0  -0.067011  0  3.982443  0  0  -0.067352  0  4.002875  0  0  -0.085336  -0.066576  0  3.968516  0
C  C54  1  0.57429994  0.81885582  0.59979068  1  0  -0.051704  0  3.735856  0  0  -0.06497  0  3.981053  0  0  -0.065289  0  4.001485  0  0  -0.084673  -0.064549  0  3.967125  0
C  C55  1  0.99335718  0.68142311  0.90007764  1  0  -0.05364  0  3.736864  0  0  -0.066917  0  3.982562  0  0  -0.067256  0  4.002988  0  0  -0.085303  -0.066478  0  3.968627  0
C  C56  1  0.27171999  0.10359717  0.41807501  1  0  -0.065038  0  3.751177  0  0  -0.076712  0  3.997881  0  0  -0.080483  0  4.021312  0  0  -0.088294  -0.074188  0  3.981969  0
C  C57  1  0.79312467  0.39610108  0.08202039  1  0  -0.064527  0  3.750988  0  0  -0.076049  0  3.997366  0  0  -0.079821  0  4.020777  0  0  -0.087521  -0.07354  0  3.981482  0
C  C58  1  0.72827269  0.89639727  0.58192613  1  0  -0.065058  0  3.751205  0  0  -0.076782  0  3.99795  0  0  -0.080554  0  4.021384  0  0  -0.088381  -0.074258  0  3.982034  0
C  C59  1  0.20689267  0.60390040  0.91797751  1  0  -0.064633  0  3.750784  0  0  -0.076132  0  3.997152  0  0  -0.079898  0  4.020554  0  0  -0.087576  -0.073617  0  3.98126  0
C  C60  1  0.34177976  0.01896071  0.37457725  1  0  -0.047367  0  3.753182  0  0  -0.067089  0  3.990878  0  0  -0.066969  0  4.013311  0  0  -0.079957  -0.066947  0  3.975553  0
C  C61  1  0.73506841  0.48080222  0.12548652  1  0  -0.047353  0  3.752131  0  0  -0.067439  0  3.989806  0  0  -0.067304  0  4.012188  0  0  -0.07974  -0.067333  0  3.974558  0
C  C62  1  0.65821492  0.98103550  0.62542592  1  0  -0.047449  0  3.753154  0  0  -0.067188  0  3.990885  0  0  -0.067073  0  4.013323  0  0  -0.080001  -0.067059  0  3.975585  0
C  C63  1  0.26492969  0.51919923  0.87450610  1  0  -0.047247  0  3.752326  0  0  -0.067356  0  3.989971  0  0  -0.067223  0  4.01236  0  0  -0.079637  -0.067243  0  3.97472  0
Cl  Cl64  1  0.30046905  0.79957916  0.03770995  1  0  -0.570053  0  0.948202  0  0  -0.497029  0  1.224601  0  0  -0.518407  0  1.200849  0  0  -0.249244  -0.481605  0  1.240819  0
Cl  Cl65  1  0.13731888  0.70046654  0.46223979  1  0  -0.56996  0  0.948184  0  0  -0.497108  0  1.224603  0  0  -0.518504  0  1.200894  0  0  -0.249416  -0.481677  0  1.240789  0
Cl  Cl66  1  0.69953440  0.20042409  0.96228833  1  0  -0.570088  0  0.948228  0  0  -0.497056  0  1.224625  0  0  -0.518435  0  1.200875  0  0  -0.249253  -0.481627  0  1.240844  0
Cl  Cl67  1  0.86268582  0.29953229  0.53775857  1  0  -0.570009  0  0.948157  0  0  -0.49715  0  1.224602  0  0  -0.518545  0  1.200893  0  0  -0.249431  -0.481713  0  1.240789  0
O  O68  1  0.90100956  0.90163137  0.19672046  1  0  -0.831466  0  2.087609  0  0  -0.729799  0  2.37781  0  0  -0.75992  0  2.358545  0  0  -0.383009  -0.7084  0  2.390329  0
O  O69  1  0.99984508  0.59805727  0.30322435  1  0  -0.830188  0  2.087971  0  0  -0.728327  0  2.37785  0  0  -0.758457  0  2.358622  0  0  -0.382546  -0.706947  0  2.390368  0
O  O70  1  0.09900225  0.09836837  0.80328241  1  0  -0.83147  0  2.087622  0  0  -0.729777  0  2.377814  0  0  -0.759899  0  2.358555  0  0  -0.383002  -0.708379  0  2.390338  0
O  O71  1  0.00015648  0.40194420  0.69677354  1  0  -0.830177  0  2.087954  0  0  -0.728297  0  2.37782  0  0  -0.758432  0  2.358593  0  0  -0.382537  -0.706912  0  2.390334  0
O  O72  1  0.45510914  0.89290921  0.21011318  1  0  -0.821865  0  2.108336  0  0  -0.72335  0  2.377474  0  0  -0.751953  0  2.359588  0  0  -0.377175  -0.703114  0  2.389214  0
O  O73  1  0.55840903  0.60713870  0.29009373  1  0  -0.821269  0  2.106668  0  0  -0.723285  0  2.376105  0  0  -0.751915  0  2.358273  0  0  -0.377167  -0.702939  0  2.387651  0
O  O74  1  0.54490578  0.10708698  0.78988556  1  0  -0.82197  0  2.108414  0  0  -0.72334  0  2.377486  0  0  -0.75193  0  2.35959  0  0  -0.377171  -0.703098  0  2.389225  0
O  O75  1  0.44159209  0.39286455  0.70990512  1  0  -0.821284  0  2.106561  0  0  -0.723309  0  2.376002  0  0  -0.751935  0  2.358167  0  0  -0.377149  -0.702985  0  2.387613  0
O  O76  1  0.24949621  0.07506129  0.05213743  1  0  -0.83589  0  1.913636  0  0  -0.771529  0  2.119771  0  0  -0.794691  0  2.086667  0  0  -0.586761  -0.755075  0  2.14277  0
O  O77  1  0.37684694  0.42491343  0.44802064  1  0  -0.836581  0  1.915079  0  0  -0.772509  0  2.119719  0  0  -0.795627  0  2.086598  0  0  -0.587061  -0.7561  0  2.142745  0
O  O78  1  0.75050607  0.92493844  0.94786444  1  0  -0.835897  0  1.913572  0  0  -0.771544  0  2.119737  0  0  -0.794707  0  2.086641  0  0  -0.586787  -0.755086  0  2.142737  0
O  O79  1  0.62315982  0.57508628  0.55197679  1  0  -0.836652  0  1.9151  0  0  -0.772583  0  2.119738  0  0  -0.7957  0  2.086612  0  0  -0.587122  -0.756172  0  2.142768  0
