# generated using pymatgen
data_CuH10C6(N2Cl)2
_symmetry_space_group_name_H-M   'P 1'
_cell_length_a   6.87096831
_cell_length_b   8.55869806
_cell_length_c   16.32949911
_cell_angle_alpha   90.00007128
_cell_angle_beta   90.00008691
_cell_angle_gamma   108.79174612
_symmetry_Int_Tables_number   1
_chemical_formula_structural   CuH10C6(N2Cl)2
_chemical_formula_sum   'Cu4 H40 C24 N16 Cl8'
_cell_volume   909.09424216
_cell_formula_units_Z   4
loop_
 _symmetry_equiv_pos_site_id
 _symmetry_equiv_pos_as_xyz
  1  'x, y, z'
loop_
 _atom_site_type_symbol
 _atom_site_label
 _atom_site_symmetry_multiplicity
 _atom_site_fract_x
 _atom_site_fract_y
 _atom_site_fract_z
 _atom_site_occupancy
 _atom_site_hle17_ddec_charge
 _atom_site_hle17_ddec_spin_density
 _atom_site_hle17_ddec_sum_bond_order
 _atom_site_hle17_magmom
 _atom_site_hse06_10hf_ddec_charge
 _atom_site_hse06_10hf_ddec_spin_density
 _atom_site_hse06_10hf_ddec_sum_bond_order
 _atom_site_hse06_10hf_magmom
 _atom_site_hse06_ddec_charge
 _atom_site_hse06_ddec_spin_density
 _atom_site_hse06_ddec_sum_bond_order
 _atom_site_hse06_magmom
 _atom_site_pbe_cm5_charge
 _atom_site_pbe_ddec_charge
 _atom_site_pbe_ddec_spin_density
 _atom_site_pbe_ddec_sum_bond_order
 _atom_site_pbe_magmom
Cu  Cu0  1  0.00000195  0.00000123  0.00000000  1  0.713986  0.649276  2.014946  0.459  0.714618  0.75411  2.399074  0.581  0.804942  0.835817  2.322581  0.667  0.592994  0.665367  0.69687  2.445496  0.527
Cu  Cu1  1  0.49999663  0.49999929  0.50000034  1  0.713977  0.649272  2.014925  0.459  0.714615  0.754108  2.399035  0.581  0.804906  0.835805  2.322565  0.667  0.593007  0.665374  0.696863  2.445438  0.527
Cu  Cu2  1  0.50000196  0.99999943  0.99999959  1  0.680327  -0.647088  2.008895  -0.458  0.673424  -0.755635  2.405315  -0.584  0.764004  -0.837913  2.329319  -0.671  0.598683  0.623377  -0.698665  2.452275  -0.53
Cu  Cu3  1  0.99999746  0.50000057  0.50000050  1  0.680332  -0.647092  2.008889  -0.458  0.673418  -0.755644  2.405311  -0.584  0.764016  -0.837936  2.329318  -0.671  0.598681  0.623367  -0.698658  2.452271  -0.53
H  H4  1  0.33262132  0.31100020  0.92637216  1  0.104957  -2e-05  1.000165  0.0  0.11042  -6.4e-05  1.078464  0.0  0.112019  -5.7e-05  1.078806  0.0  0.090443  0.108985  -7.4e-05  1.078958  0.0
H  H5  1  0.16738000  0.18900314  0.42637020  1  0.105004  -1.9e-05  1.000123  0.0  0.11047  -6.4e-05  1.078442  0.0  0.11207  -5.7e-05  1.078782  0.0  0.09046  0.109033  -7.4e-05  1.078932  0.0
H  H6  1  0.66738070  0.68900207  0.07362853  1  0.105003  -2.1e-05  1.000146  0.0  0.110476  -6.4e-05  1.078464  0.0  0.112076  -5.7e-05  1.078803  0.0  0.090466  0.109039  -7.4e-05  1.078956  0.0
H  H7  1  0.83261666  0.81099667  0.57362865  1  0.104991  -2e-05  1.000156  0.0  0.110465  -6.4e-05  1.078458  0.0  0.112063  -5.7e-05  1.078801  0.0  0.090458  0.109029  -7.4e-05  1.078947  0.0
H  H8  1  0.33108373  0.51712860  0.93142566  1  0.112321  -0.000238  0.936128  -0.001  0.124589  -0.000235  1.001632  0.0  0.127066  -0.000188  1.000108  0.0  0.09644  0.122923  -0.000272  1.002667  0.0
H  H9  1  0.16891490  0.98287508  0.43142390  1  0.112295  -0.000239  0.936186  -0.001  0.124591  -0.000235  1.00167  0.0  0.127068  -0.000188  1.000146  0.0  0.096429  0.122915  -0.000272  1.002707  0.0
H  H10  1  0.66892025  0.48287490  0.06857503  1  0.112312  -0.000238  0.936153  -0.001  0.124605  -0.000235  1.00165  0.0  0.127082  -0.000188  1.000125  0.0  0.096433  0.122929  -0.000272  1.002689  0.0
H  H11  1  0.83108031  0.01712473  0.56857618  1  0.112321  -0.00024  0.936141  -0.001  0.124602  -0.000235  1.001645  0.0  0.127079  -0.000188  1.000119  0.0  0.096425  0.122924  -0.000272  1.00268  0.0
H  H12  1  0.47252250  0.43548133  0.79952267  1  0.069988  4.6e-05  0.942281  0.0  0.085984  8.4e-05  1.008769  0.0  0.087412  5.8e-05  1.007874  0.0  0.088749  0.084903  0.0001  1.009573  0.0
H  H13  1  0.02747860  0.06451906  0.29951993  1  0.07001  4.6e-05  0.942223  0.0  0.085963  8.4e-05  1.008728  0.0  0.087389  5.8e-05  1.007837  0.0  0.088714  0.084884  0.0001  1.009531  0.0
H  H14  1  0.52748193  0.56451969  0.20047802  1  0.069998  4.6e-05  0.942252  0.0  0.085968  8.3e-05  1.008733  0.0  0.087393  5.8e-05  1.007844  0.0  0.088726  0.084891  0.0001  1.009529  0.0
H  H15  1  0.97251897  0.93547581  0.70047953  1  0.069997  4.6e-05  0.942195  0.0  0.085992  8.3e-05  1.008673  0.0  0.087419  5.8e-05  1.007779  0.0  0.088723  0.084908  0.0001  1.009483  0.0
H  H16  1  0.22333370  0.30713785  0.77487452  1  0.071111  -0.000137  0.934201  0.0  0.09151  -0.00013  0.992365  0.0  0.092644  -0.0001  0.992636  0.0  0.087584  0.090657  -0.000152  0.992265  0.0
H  H17  1  0.27666778  0.19286368  0.27487263  1  0.071088  -0.000136  0.934263  0.0  0.091471  -0.00013  0.992416  0.0  0.092606  -0.0001  0.992686  0.0  0.087567  0.090618  -0.000152  0.992317  0.0
H  H18  1  0.77666878  0.69286195  0.22512617  1  0.071121  -0.000136  0.934239  0.0  0.091503  -0.00013  0.992389  0.0  0.092638  -0.0001  0.992658  0.0  0.0876  0.090651  -0.000152  0.992291  0.0
H  H19  1  0.72332739  0.80713242  0.72512622  1  0.071086  -0.000136  0.934233  0.0  0.091472  -0.00013  0.992406  0.0  0.092606  -0.0001  0.992678  0.0  0.087586  0.090621  -0.000152  0.99231  0.0
H  H20  1  0.32382534  0.58020509  0.70610707  1  0.072454  -8.1e-05  0.95617  0.0  0.08557  -3.3e-05  1.025588  0.0  0.08641  -1.9e-05  1.026493  0.0  0.080632  0.085006  -4.9e-05  1.024958  0.0
H  H21  1  0.17617352  0.91979405  0.20610527  1  0.072413  -8.2e-05  0.95619  0.0  0.085523  -3.3e-05  1.025613  0.0  0.086362  -1.9e-05  1.026519  0.0  0.080599  0.084959  -4.9e-05  1.02498  0.0
H  H22  1  0.67617569  0.41979471  0.29389362  1  0.072462  -8.1e-05  0.956162  0.0  0.085566  -3.3e-05  1.025592  0.0  0.086405  -1.9e-05  1.026498  0.0  0.080631  0.085002  -4.9e-05  1.024959  0.0
H  H23  1  0.82382406  0.08020081  0.79389542  1  0.072434  -8.2e-05  0.95619  0.0  0.085536  -3.3e-05  1.025611  0.0  0.086377  -1.9e-05  1.026521  0.0  0.080612  0.084971  -4.9e-05  1.024977  0.0
H  H24  1  0.35895591  0.68207245  0.80218477  1  0.063778  0.000152  0.973214  0.0  0.082672  6.1e-05  1.038566  0.0  0.084148  3.3e-05  1.037958  0.0  0.075859  0.081618  9.7e-05  1.039067  0.0
H  H25  1  0.14104395  0.81792828  0.30218411  1  0.063789  0.000154  0.97322  0.0  0.082667  6.1e-05  1.038585  0.0  0.084147  3.3e-05  1.037973  0.0  0.075863  0.081617  9.7e-05  1.039079  0.0
H  H26  1  0.64104561  0.31792858  0.19781470  1  0.063779  0.000153  0.973235  0.0  0.082659  6.1e-05  1.038597  0.0  0.08414  3.3e-05  1.037984  0.0  0.075856  0.081608  9.7e-05  1.039086  0.0
H  H27  1  0.85895558  0.18206782  0.69781719  1  0.063858  0.000154  0.973186  0.0  0.082695  6.1e-05  1.038588  0.0  0.084189  3.3e-05  1.037965  0.0  0.075879  0.081637  9.7e-05  1.039088  0.0
H  H28  1  0.03129843  0.67300519  0.73439998  1  0.082887  0.000196  0.938348  0.0  0.100183  0.000255  1.001417  0.0  0.100561  0.000202  1.002407  0.0  0.093657  0.099751  0.000287  1.001018  0.0
H  H29  1  0.46869958  0.82699158  0.23439891  1  0.082888  0.000196  0.938311  0.0  0.10015  0.000255  1.001414  0.0  0.100528  0.000202  1.002406  0.0  0.093646  0.099718  0.000287  1.001014  0.0
H  H30  1  0.96870260  0.32699460  0.26559887  1  0.082893  0.000196  0.938325  0.0  0.100179  0.000255  1.001396  0.0  0.100556  0.000202  1.002388  0.0  0.093655  0.09975  0.000287  1.000996  0.0
H  H31  1  0.53130045  0.17300575  0.76560178  1  0.082868  0.000196  0.938316  0.0  0.100131  0.000255  1.001422  0.0  0.100506  0.000202  1.002416  0.0  0.093647  0.0997  0.000288  1.001021  0.0
H  H32  1  0.94864267  0.45690280  0.73219987  1  0.079772  0.001381  0.956153  0.0  0.097921  0.001198  1.018274  0.001  0.099096  0.000904  1.01849  0.0  0.084433  0.097135  0.001412  1.018003  0.001
H  H33  1  0.55135775  0.04309497  0.23219898  1  0.079783  0.00138  0.956184  0.0  0.09793  0.001198  1.018297  0.001  0.099105  0.000904  1.018513  0.0  0.084436  0.097142  0.001412  1.018029  0.001
H  H34  1  0.05135736  0.54309453  0.26780020  1  0.079763  0.00138  0.956158  0.0  0.097901  0.001198  1.018282  0.001  0.099077  0.000904  1.018497  0.0  0.084431  0.097116  0.001412  1.018016  0.001
H  H35  1  0.44864178  0.95690113  0.76780049  1  0.079734  0.001381  0.956217  0.0  0.097881  0.001198  1.018339  0.001  0.099058  0.000904  1.018551  0.0  0.084423  0.097096  0.001412  1.018072  0.001
H  H36  1  0.04147601  0.66730919  0.88895585  1  0.089911  -0.000216  0.951301  0.0  0.101227  -0.000183  1.021581  0.0  0.102151  -0.000152  1.02024  0.0  0.102177  0.100547  -0.000194  1.021626  0.0
H  H37  1  0.45852576  0.83269186  0.38895478  1  0.089875  -0.000215  0.951354  0.0  0.1012  -0.000183  1.021629  0.0  0.102126  -0.000152  1.020285  0.0  0.102176  0.10052  -0.000194  1.021672  0.0
H  H38  1  0.95852601  0.33269308  0.11104361  1  0.089916  -0.000216  0.951305  0.0  0.101222  -0.000183  1.021585  0.0  0.102148  -0.000153  1.020239  0.0  0.102186  0.100542  -0.000194  1.021627  0.0
H  H39  1  0.54147381  0.16730794  0.61104529  1  0.089884  -0.000216  0.951347  0.0  0.101213  -0.000183  1.021619  0.0  0.102139  -0.000152  1.020273  0.0  0.102179  0.100532  -0.000194  1.021659  0.0
H  H40  1  0.79347218  0.58647046  0.84525110  1  0.098566  -0.000828  0.918197  0.0  0.116036  -0.000802  0.977272  0.0  0.117479  -0.000616  0.975211  0.0  0.119491  0.114876  -0.000934  0.978192  0.0
H  H41  1  0.70652806  0.91352929  0.34525116  1  0.098585  -0.000827  0.918175  0.0  0.116061  -0.000802  0.977248  0.0  0.117504  -0.000616  0.975183  0.0  0.119492  0.114898  -0.000934  0.978165  0.0
H  H42  1  0.20653225  0.41353057  0.15474898  1  0.098555  -0.000827  0.918187  0.0  0.116026  -0.000802  0.97725  0.0  0.117469  -0.000616  0.975185  0.0  0.119482  0.114864  -0.000934  0.978169  0.0
H  H43  1  0.29347055  0.08647175  0.65475015  1  0.098583  -0.000828  0.918167  0.0  0.116056  -0.000802  0.977254  0.0  0.117499  -0.000616  0.975189  0.0  0.119487  0.114896  -0.000934  0.97817  0.0
C  C44  1  0.26291498  0.39770152  0.89995494  1  -0.227584  -0.000646  3.70743  0.0  -0.263566  -0.000637  3.951025  0.0  -0.267506  -0.000449  3.959283  0.0  -0.162142  -0.260705  -0.00077  3.944208  0.0
C  C45  1  0.23708474  0.10230171  0.39995359  1  -0.227512  -0.000644  3.707339  0.0  -0.263614  -0.000637  3.951058  0.0  -0.267554  -0.000449  3.95932  0.0  -0.162146  -0.260746  -0.00077  3.94424  0.0
C  C46  1  0.73708704  0.60230074  0.10004636  1  -0.227578  -0.000642  3.707358  0.0  -0.263675  -0.000637  3.951065  0.0  -0.267616  -0.000449  3.959319  0.0  -0.162176  -0.260807  -0.00077  3.944254  0.0
C  C47  1  0.76291483  0.89769809  0.60004588  1  -0.227553  -0.000636  3.707299  0.0  -0.263611  -0.000637  3.951058  0.0  -0.267548  -0.000449  3.95931  0.0  -0.162151  -0.260747  -0.00077  3.944239  0.0
C  C48  1  0.30880906  0.42096820  0.80758042  1  -0.081258  -0.000615  3.649277  0.0  -0.120854  -0.000412  3.906832  0.0  -0.12111  -0.000368  3.919207  0.0  -0.163329  -0.120423  -0.000441  3.898187  0.0
C  C49  1  0.19119405  0.07903345  0.30757902  1  -0.081317  -0.000615  3.649325  0.0  -0.120794  -0.000412  3.906784  0.0  -0.121051  -0.000367  3.919161  0.0  -0.163297  -0.120363  -0.00044  3.898136  0.0
C  C50  1  0.69119488  0.57903159  0.19242088  1  -0.0813  -0.000617  3.649308  0.0  -0.120779  -0.000412  3.906765  0.0  -0.121035  -0.000368  3.919141  0.0  -0.163316  -0.120354  -0.00044  3.898118  0.0
C  C51  1  0.80880548  0.92096265  0.69241983  1  -0.081274  -0.000618  3.649185  0.0  -0.120818  -0.000412  3.90669  0.0  -0.121073  -0.000368  3.919072  0.0  -0.163304  -0.120384  -0.00044  3.898047  0.0
C  C52  1  0.26712445  0.57018890  0.76943171  1  -0.120931  0.000156  3.681963  0.0  -0.161833  0.000108  3.943785  0.0  -0.162884  6.8e-05  3.95774  0.0  -0.179385  -0.160841  0.000157  3.93396  0.0
C  C53  1  0.23287473  0.92981047  0.26943057  1  -0.12087  0.00015  3.682059  0.0  -0.161767  0.000108  3.943812  0.0  -0.16282  6.9e-05  3.957764  0.0  -0.179334  -0.160776  0.000157  3.933985  0.0
C  C54  1  0.73287753  0.42980966  0.23056837  1  -0.120964  0.000155  3.682073  0.0  -0.161874  0.000108  3.943842  0.0  -0.162926  6.8e-05  3.957791  0.0  -0.179401  -0.160883  0.000157  3.934014  0.0
C  C55  1  0.76712480  0.07018563  0.73056890  1  -0.120966  0.000151  3.68205  0.0  -0.161812  0.000108  3.943794  0.0  -0.162884  6.8e-05  3.957754  0.0  -0.179369  -0.160815  0.000157  3.933966  0.0
C  C56  1  0.04239822  0.56429392  0.76738932  1  -0.129517  0.002203  3.67382  0.002  -0.170058  0.002063  3.933045  0.002  -0.171887  0.001537  3.944928  0.001  -0.16917  -0.168377  0.002451  3.923167  0.002
C  C57  1  0.45760000  0.93570668  0.26738832  1  -0.129529  0.002209  3.673907  0.002  -0.170033  0.002063  3.933095  0.002  -0.171862  0.001536  3.944974  0.001  -0.169168  -0.168359  0.002451  3.923223  0.002
C  C58  1  0.95760475  0.43570711  0.23261014  1  -0.129519  0.002208  3.673816  0.002  -0.170042  0.002063  3.932993  0.002  -0.171871  0.001537  3.94487  0.001  -0.169166  -0.168369  0.002451  3.923127  0.002
C  C59  1  0.54239907  0.06429188  0.73261176  1  -0.129438  0.002206  3.673828  0.002  -0.169947  0.002063  3.933026  0.002  -0.171773  0.001537  3.944908  0.001  -0.169137  -0.168273  0.002451  3.923156  0.002
C  C60  1  0.94326382  0.56725748  0.85056974  1  -0.009256  -0.000867  3.587862  -0.001  -0.081972  -0.000801  3.842556  -0.001  -0.068322  -0.000631  3.853174  -0.001  -0.049523  -0.084457  -0.000905  3.836563  -0.001
C  C61  1  0.55673500  0.93274228  0.35056849  1  -0.009226  -0.00087  3.587807  -0.001  -0.081959  -0.000801  3.84253  -0.001  -0.068286  -0.000631  3.853151  -0.001  -0.049522  -0.084448  -0.000905  3.836532  -0.001
C  C62  1  0.05673866  0.43274231  0.14942973  1  -0.009212  -0.000871  3.58782  -0.001  -0.081898  -0.000801  3.842455  -0.001  -0.06822  -0.000631  3.853076  -0.001  -0.049508  -0.084385  -0.000905  3.83646  -0.001
C  C63  1  0.44326457  0.06725752  0.64943159  1  -0.009232  -0.000866  3.587798  -0.001  -0.081974  -0.000801  3.842518  -0.001  -0.068296  -0.000632  3.85314  -0.001  -0.049514  -0.084463  -0.000905  3.836522  -0.001
C  C64  1  0.04028488  0.33460306  0.91722483  1  0.349248  -0.004689  3.60723  -0.004  0.30773  -0.001236  3.877694  -0.001  0.334463  -0.001866  3.88974  -0.002  0.261099  0.296674  -0.000826  3.870173  -0.001
C  C65  1  0.45971684  0.16539777  0.41722365  1  0.349185  -0.004698  3.607162  -0.005  0.307688  -0.001235  3.877655  -0.001  0.334442  -0.001866  3.889708  -0.002  0.261075  0.296633  -0.000826  3.870132  -0.001
C  C66  1  0.95971764  0.66540044  0.08277525  1  0.349256  -0.004699  3.606899  -0.005  0.307731  -0.001235  3.87741  -0.001  0.334492  -0.001867  3.889457  -0.002  0.261077  0.296676  -0.000827  3.869897  -0.001
C  C67  1  0.54027882  0.83459957  0.58277582  1  0.349249  -0.0047  3.607106  -0.005  0.307664  -0.001235  3.877672  -0.001  0.334422  -0.001865  3.889724  -0.002  0.261046  0.296612  -0.000826  3.87015  -0.001
N  N68  1  0.93020909  0.19410610  0.95397695  1  -0.280428  0.055115  3.230302  0.069  -0.246517  0.044437  3.537923  0.059  -0.27195  0.039241  3.553754  0.054  -0.239169  -0.232039  0.046406  3.527741  0.059
N  N69  1  0.56979058  0.30589496  0.45397685  1  -0.28034  0.055121  3.230172  0.069  -0.246425  0.044435  3.537782  0.059  -0.271847  0.039239  3.553599  0.054  -0.239115  -0.231949  0.046406  3.527599  0.059
N  N70  1  0.06979439  0.80589617  0.04602252  1  -0.2804  0.055122  3.230199  0.069  -0.246443  0.044434  3.537789  0.059  -0.271873  0.039239  3.553607  0.054  -0.239128  -0.231967  0.046404  3.527615  0.059
N  N71  1  0.43020703  0.69410361  0.54602384  1  -0.280383  0.05512  3.230201  0.069  -0.2464  0.044436  3.537794  0.059  -0.271822  0.03924  3.553609  0.054  -0.239116  -0.231925  0.046406  3.527614  0.059
N  N72  1  0.73216084  0.18980289  0.95271965  1  -0.037121  -0.056002  3.285385  -0.069  -0.015002  -0.045981  3.613672  -0.061  -0.028938  -0.040944  3.62903  -0.057  -0.109531  -0.008276  -0.04776  3.604449  -0.061
N  N73  1  0.76783737  0.31019816  0.45272029  1  -0.037137  -0.056016  3.28532  -0.069  -0.015014  -0.045979  3.613604  -0.061  -0.028956  -0.040941  3.628963  -0.057  -0.10956  -0.008288  -0.04776  3.604381  -0.061
N  N74  1  0.26784118  0.81019937  0.04727920  1  -0.037108  -0.056015  3.285315  -0.069  -0.015021  -0.045981  3.613615  -0.061  -0.028955  -0.040943  3.628961  -0.057  -0.109565  -0.008293  -0.04776  3.604395  -0.061
N  N75  1  0.23216074  0.68980164  0.54728040  1  -0.03715  -0.056009  3.285341  -0.069  -0.015044  -0.04598  3.613626  -0.061  -0.028984  -0.040942  3.628979  -0.057  -0.109554  -0.008316  -0.047758  3.604407  -0.061
N  N76  1  0.71263150  0.31926099  0.91703457  1  -0.038185  0.007274  2.830023  0.009  -0.048536  0.003108  3.098495  0.004  -0.031957  0.003304  3.113294  0.004  -0.043073  -0.05281  0.003071  3.092715  0.004
N  N77  1  0.78736944  0.18073993  0.41703452  1  -0.038195  0.007282  2.830021  0.009  -0.048521  0.003107  3.098472  0.004  -0.031917  0.003304  3.113286  0.004  -0.04306  -0.052793  0.003071  3.092685  0.004
N  N78  1  0.28737198  0.68074127  0.08296550  1  -0.03819  0.007281  2.829968  0.009  -0.048518  0.003108  3.098428  0.004  -0.031911  0.003304  3.113238  0.004  -0.043043  -0.052792  0.003071  3.09265  0.004
N  N79  1  0.21263258  0.81926234  0.58296617  1  -0.038179  0.007277  2.829991  0.009  -0.048533  0.003107  3.098475  0.004  -0.031926  0.003304  3.113293  0.004  -0.043068  -0.052806  0.003071  3.092693  0.004
N  N80  1  0.90376867  0.41093041  0.89489804  1  -0.002933  0.002471  3.462038  0.003  0.108924  0.000684  3.656457  0.001  0.068578  0.001119  3.710691  0.001  -0.104672  0.115898  0.00038  3.64387  0.0
N  N81  1  0.59623119  0.08907166  0.39489659  1  -0.002978  0.002475  3.462058  0.003  0.108853  0.000684  3.65652  0.001  0.068435  0.001119  3.710832  0.001  -0.10468  0.11583  0.00038  3.643926  0.0
N  N82  1  0.09623481  0.58907186  0.10510265  1  -0.002973  0.002478  3.461937  0.003  0.108863  0.000684  3.656375  0.001  0.068432  0.001119  3.710707  0.001  -0.104666  0.115842  0.000381  3.643787  0.0
N  N83  1  0.40377033  0.91092937  0.60510288  1  -0.003018  0.002477  3.462102  0.003  0.108864  0.000684  3.65656  0.001  0.068431  0.001119  3.710887  0.001  -0.104669  0.115844  0.000381  3.643973  0.0
Cl  Cl84  1  0.61960300  0.82186691  0.92660512  1  -0.482309  -0.138967  1.0087  -0.157  -0.499685  -0.089303  1.304562  -0.107  -0.536199  -0.06982  1.282608  -0.087  -0.279854  -0.478907  -0.0994  1.320349  -0.116
Cl  Cl85  1  0.88039331  0.67813314  0.42660451  1  -0.482306  -0.138967  1.008663  -0.157  -0.499681  -0.089302  1.304514  -0.107  -0.536198  -0.069817  1.282566  -0.087  -0.279864  -0.478904  -0.099403  1.320295  -0.116
Cl  Cl86  1  0.38039803  0.17813288  0.07339496  1  -0.482317  -0.138968  1.008699  -0.157  -0.499689  -0.089304  1.304546  -0.107  -0.536205  -0.06982  1.282594  -0.087  -0.279855  -0.478911  -0.099406  1.320328  -0.116
Cl  Cl87  1  0.11960580  0.32186913  0.57339556  1  -0.482353  -0.138966  1.008699  -0.157  -0.499708  -0.089303  1.304536  -0.107  -0.536227  -0.069817  1.282591  -0.087  -0.279872  -0.478931  -0.099405  1.320313  -0.116
Cl  Cl88  1  0.18121668  0.98606321  0.88395891  1  -0.482638  0.133221  1.007411  0.153  -0.498759  0.088586  1.302912  0.108  -0.535743  0.0698  1.282114  0.088  -0.276547  -0.476499  0.098315  1.31737  0.117
Cl  Cl89  1  0.31877878  0.51394030  0.38396122  1  -0.482637  0.133221  1.007419  0.153  -0.498756  0.088584  1.302923  0.108  -0.535733  0.069801  1.282128  0.088  -0.276556  -0.476499  0.098316  1.317379  0.117
Cl  Cl90  1  0.81878488  0.01394152  0.11603994  1  -0.482643  0.133217  1.007387  0.153  -0.498774  0.088583  1.302912  0.108  -0.535758  0.069798  1.282114  0.088  -0.276554  -0.476511  0.098315  1.317369  0.117
Cl  Cl91  1  0.68121792  0.48606321  0.61604008  1  -0.482632  0.133221  1.007368  0.153  -0.498767  0.088585  1.302883  0.108  -0.535744  0.069801  1.282088  0.088  -0.276557  -0.476511  0.098316  1.317339  0.117
