# generated using pymatgen
data_AlH12C27(NO4)3
_symmetry_space_group_name_H-M   'P 1'
_cell_length_a   4.20849054
_cell_length_b   15.70763473
_cell_length_c   15.76764954
_cell_angle_alpha   60.15386897
_cell_angle_beta   87.26072026
_cell_angle_gamma   86.82073339
_symmetry_Int_Tables_number   1
_chemical_formula_structural   AlH12C27(NO4)3
_chemical_formula_sum   'Al1 H12 C27 N3 O12'
_cell_volume   902.44143251
_cell_formula_units_Z   1
loop_
 _symmetry_equiv_pos_site_id
 _symmetry_equiv_pos_as_xyz
  1  'x, y, z'
loop_
 _atom_site_type_symbol
 _atom_site_label
 _atom_site_symmetry_multiplicity
 _atom_site_fract_x
 _atom_site_fract_y
 _atom_site_fract_z
 _atom_site_occupancy
 _atom_site_pbe_bader_charge
 _atom_site_pbe_bader_spin_density
 _atom_site_pbe_cm5_charge
 _atom_site_pbe_ddec_charge
 _atom_site_pbe_ddec_spin_density
 _atom_site_pbe_ddec_sum_bond_order
 _atom_site_pbe_magmom
Al  Al0  1  0.92796701  0.50220408  0.49992996  1  2.518692  0  0.450394  1.640213  0  2.519772  0
H  H1  1  0.12808980  0.75481916  0.52288681  1  0.10332  0  0.116226  0.125116  0  0.973482  0
H  H2  1  0.15764114  0.84991115  0.61135322  1  0.097841  0  0.11062  0.114203  0  0.994044  0
H  H3  1  0.64305025  0.60253030  0.84579849  1  0.092518  0  0.112964  0.119566  0  0.993665  0
H  H4  1  0.69040735  0.04567633  0.60465891  1  0.09948  0  0.112962  0.119057  0  0.991156  0
H  H5  1  0.20079868  0.23744613  0.75350342  1  0.098731  0  0.11612  0.125327  0  0.975612  0
H  H6  1  0.22352963  0.05329046  0.84946818  1  0.098204  0  0.111285  0.114066  0  0.992748  0
H  H7  1  0.66527397  0.84960903  0.04798931  1  0.103791  0  0.112857  0.118861  0  0.994185  0
H  H8  1  0.23095220  0.51544101  0.23338836  1  0.115238  0  0.115867  0.124984  0  0.974897  0
H  H9  1  0.25527906  0.60409244  0.04989231  1  0.084992  0  0.11073  0.113551  0  0.997621  0
H  H10  1  0.27616138  0.42202081  0.79272695  1  0.672104  0  0.313033  0.379702  0  0.960729  0
H  H11  1  0.33018745  0.27845841  0.42471209  1  0.690038  0  0.313165  0.380026  0  0.958817  0
H  H12  1  0.26904854  0.79875310  0.28015619  1  0.687264  0  0.313084  0.37982  0  0.959078  0
C  C13  1  0.43659989  0.57558861  0.35174618  1  1.547384  0  0.278593  0.663605  0  4.06033  0
C  C14  1  0.39533025  0.57704455  0.57421976  1  1.600791  0  0.278317  0.662643  0  4.058867  0
C  C15  1  0.44123692  0.35343937  0.57468614  1  1.59228  0  0.278342  0.664035  0  4.05768  0
C  C16  1  0.45345440  0.93058715  0.78641282  1  1.094523  0  0.258738  0.384519  0  4.014431  0
C  C17  1  0.42602435  0.78636851  0.78677763  1  1.083844  0  0.258065  0.38328  0  4.017971  0
C  C18  1  0.45774650  0.78635015  0.93037192  1  1.083348  0  0.257692  0.383184  0  4.013042  0
C  C19  1  0.24164192  0.72248345  0.59349121  1  -0.011191  0  -0.070736  -0.077288  0  3.947289  0
C  C20  1  0.25787790  0.77523000  0.64245274  1  0.090185  0  -0.073335  -0.095321  0  3.950529  0
C  C21  1  0.40362987  0.73178376  0.73355471  1  -0.053175  0  -0.000555  0.013112  0  3.977451  0
C  C22  1  0.53224223  0.63562073  0.77475597  1  -0.02861  0  -0.068439  -0.112282  0  3.920973  0
C  C23  1  0.52458344  0.58356953  0.72478628  1  -0.016448  0  -0.000136  -0.046662  0  3.953884  0
C  C24  1  0.38076315  0.62774563  0.63282609  1  -0.029333  0  0.001014  -0.049113  0  3.931135  0
C  C25  1  0.58839448  0.08815309  0.63741341  1  -0.028618  0  -0.06928  -0.112377  0  3.918741  0
C  C26  1  0.58719797  0.19044825  0.58518814  1  0.041621  0  0.000301  -0.046554  0  3.953237  0
C  C27  1  0.44466748  0.24417741  0.62748621  1  -0.03395  0  3.4e-05  -0.051973  0  3.929385  0
C  C28  1  0.31039056  0.19456820  0.72212680  1  0.023652  0  -0.071688  -0.0771  0  3.950077  0
C  C29  1  0.32255641  0.09261481  0.77528573  1  0.00713  0  -0.073314  -0.095813  0  3.955068  0
C  C30  1  0.45687866  0.03892868  0.73233787  1  -0.061132  0  -8.4e-05  0.014468  0  3.979451  0
C  C31  1  0.57362382  0.77594551  0.08911887  1  -0.004335  0  -0.068508  -0.111666  0  3.915743  0
C  C32  1  0.56594477  0.72634432  0.19101328  1  0.065607  0  0.000189  -0.046993  0  3.95491  0
C  C33  1  0.44066345  0.63192692  0.24294244  1  0.024729  0  0.00094  -0.049775  0  3.930627  0
C  C34  1  0.32688571  0.58848331  0.19190472  1  -0.077476  0  -0.071754  -0.07774  0  3.952196  0
C  C35  1  0.34071259  0.63736498  0.09038459  1  0.071192  0  -0.0734  -0.094835  0  3.952242  0
C  C36  1  0.46036108  0.73210121  0.03834399  1  -0.042875  0  -3.9e-05  0.014061  0  3.970183  0
C  C37  1  0.67967692  0.48226765  0.77225713  1  1.586702  0  0.252536  0.626401  0  4.079998  0
C  C38  1  0.73969559  0.23939255  0.48462989  1  1.597736  0  0.252671  0.626615  0  4.082779  0
C  C39  1  0.69220657  0.77724661  0.24111312  1  1.56821  0  0.252454  0.626143  0  4.082543  0
N  N40  1  0.43160795  0.88496705  0.73387515  1  -1.18275  0  -0.308588  -0.413285  0  3.188501  0
N  N41  1  0.43926672  0.73366247  0.88485416  1  -1.198277  0  -0.307705  -0.410338  0  3.200495  0
N  N42  1  0.46750783  0.88494911  0.88448999  1  -1.171725  0  -0.307121  -0.41032  0  3.192442  0
O  O43  1  0.19981770  0.39734232  0.58993315  1  -1.260822  0  -0.237543  -0.603613  0  2.356615  0
O  O44  1  0.20977029  0.51720729  0.39452483  1  -1.261653  0  -0.236647  -0.601911  0  2.352287  0
O  O45  1  0.16910216  0.59380159  0.51626819  1  -1.251469  0  -0.237085  -0.596932  0  2.334707  0
O  O46  1  0.68224791  0.39396259  0.51934233  1  -1.25282  0  -0.232014  -0.602129  0  2.381406  0
O  O47  1  0.64138664  0.52099608  0.58689071  1  -1.253489  0  -0.231806  -0.608624  0  2.415373  0
O  O48  1  0.66474027  0.58991099  0.39317236  1  -1.257848  0  -0.231387  -0.605018  0  2.3953  0
O  O49  1  0.51388617  0.40431973  0.79671719  1  -1.163946  0  -0.324436  -0.466  0  2.248  0
O  O50  1  0.96412881  0.47388751  0.79213849  1  -1.182128  0  -0.279556  -0.50917  0  2.269884  0
O  O51  1  0.56491375  0.29222528  0.40688892  1  -1.179838  0  -0.324412  -0.466499  0  2.241299  0
O  O52  1  0.02869795  0.22598602  0.47656575  1  -1.182826  0  -0.277765  -0.505903  0  2.26083  0
O  O53  1  0.50029520  0.80300270  0.29367756  1  -1.178753  0  -0.323548  -0.464528  0  2.241892  0
O  O54  1  0.97579075  0.79774562  0.22844025  1  -1.175663  0  -0.278311  -0.506795  0  2.263528  0
