# generated using pymatgen
data_CaH7C7NO6
_symmetry_space_group_name_H-M   'P 1'
_cell_length_a   7.47011028
_cell_length_b   8.17215179
_cell_length_c   8.17214406
_cell_angle_alpha   101.22503567
_cell_angle_beta   101.09401692
_cell_angle_gamma   101.09443102
_symmetry_Int_Tables_number   1
_chemical_formula_structural   CaH7C7NO6
_chemical_formula_sum   'Ca2 H14 C14 N2 O12'
_cell_volume   466.29968614
_cell_formula_units_Z   2
loop_
 _symmetry_equiv_pos_site_id
 _symmetry_equiv_pos_as_xyz
  1  'x, y, z'
loop_
 _atom_site_type_symbol
 _atom_site_label
 _atom_site_symmetry_multiplicity
 _atom_site_fract_x
 _atom_site_fract_y
 _atom_site_fract_z
 _atom_site_occupancy
 _atom_site_hle17_bader_spin_density
 _atom_site_hle17_ddec_charge
 _atom_site_hle17_ddec_spin_density
 _atom_site_hle17_ddec_sum_bond_order
 _atom_site_hle17_magmom
 _atom_site_hse06_10hf_bader_spin_density
 _atom_site_hse06_10hf_ddec_charge
 _atom_site_hse06_10hf_ddec_spin_density
 _atom_site_hse06_10hf_ddec_sum_bond_order
 _atom_site_hse06_10hf_magmom
 _atom_site_hse06_bader_spin_density
 _atom_site_hse06_ddec_charge
 _atom_site_hse06_ddec_spin_density
 _atom_site_hse06_ddec_sum_bond_order
 _atom_site_hse06_magmom
 _atom_site_pbe_bader_spin_density
 _atom_site_pbe_cm5_charge
 _atom_site_pbe_ddec_charge
 _atom_site_pbe_ddec_spin_density
 _atom_site_pbe_ddec_sum_bond_order
 _atom_site_pbe_magmom
Ca  Ca0  1  0.41090763  0.78566806  0.09799041  1  0  1.477772  0  1.143073  0  0  1.337004  0  1.495908  0  0  1.380397  0  1.453236  0  0  0.897636  1.304494  0  1.526144  0
Ca  Ca1  1  0.91090720  0.09798857  0.78566602  1  0  1.477768  0  1.143057  0  0  1.337028  0  1.495842  0  0  1.380427  0  1.453164  0  0  0.897639  1.304526  0  1.526075  0
H  H2  1  0.37627873  0.76747478  0.49651582  1  0  0.087598  0  0.955877  0  0  0.095276  0  1.021457  0  0  0.099081  0  1.016716  0  0  0.132651  0.092491  0  1.024838  0
H  H3  1  0.87628123  0.49651227  0.76747679  1  0  0.087592  0  0.955829  0  0  0.095281  0  1.021401  0  0  0.099085  0  1.016658  0  0  0.132679  0.092496  0  1.024783  0
H  H4  1  0.41157411  0.27756151  0.60591027  1  0  0.11831  0  0.947525  0  0  0.128236  0  1.010797  0  0  0.132493  0  1.005933  0  0  0.122788  0.125029  0  1.014433  0
H  H5  1  0.91158266  0.60591358  0.27756764  1  0  0.118237  0  0.947654  0  0  0.128188  0  1.010886  0  0  0.132446  0  1.006022  0  0  0.122733  0.124982  0  1.014519  0
H  H6  1  0.44338220  0.38713751  0.11549506  1  0  0.086295  0  0.957212  0  0  0.09387  0  1.023024  0  0  0.097621  0  1.018368  0  0  0.132694  0.091115  0  1.02635  0
H  H7  1  0.94336529  0.11548803  0.38713027  1  0  0.086294  0  0.957163  0  0  0.093851  0  1.022993  0  0  0.097599  0  1.018344  0  0  0.132688  0.091087  0  1.026339  0
H  H8  1  0.79720161  0.83899551  0.30166972  1  0  0.427654  0  0.877188  0  0  0.395477  0  0.944018  0  0  0.40657  0  0.92768  0  0  0.295725  0.387585  0  0.955619  0
H  H9  1  0.29720086  0.30167108  0.83899624  1  0  0.427657  0  0.877181  0  0  0.395488  0  0.943997  0  0  0.40658  0  0.927662  0  0  0.295735  0.387596  0  0.955599  0
H  H10  1  0.81198079  0.93059513  0.14753182  1  0  0.43757  0  0.859216  0  0  0.407326  0  0.921217  0  0  0.418681  0  0.904527  0  0  0.304064  0.39924  0  0.933096  0
H  H11  1  0.31198094  0.14753197  0.93059620  1  0  0.437601  0  0.85917  0  0  0.407363  0  0.921157  0  0  0.418718  0  0.904469  0  0  0.304101  0.399277  0  0.933036  0
H  H12  1  0.02480485  0.58135830  0.04354336  1  0  0.428145  0  0.87661  0  0  0.396231  0  0.943011  0  0  0.407292  0  0.92673  0  0  0.295905  0.388339  0  0.954619  0
H  H13  1  0.52480362  0.04354202  0.58135010  1  0  0.428127  0  0.876636  0  0  0.396226  0  0.943022  0  0  0.407285  0  0.926744  0  0  0.295918  0.388335  0  0.954628  0
H  H14  1  0.00987897  0.73538302  0.95159247  1  0  0.436534  0  0.860872  0  0  0.405768  0  0.923721  0  0  0.417135  0  0.907027  0  0  0.303174  0.397686  0  0.935578  0
H  H15  1  0.50987692  0.95159491  0.73537754  1  0  0.436489  0  0.860933  0  0  0.405716  0  0.923777  0  0  0.417083  0  0.90708  0  0  0.303144  0.397637  0  0.935628  0
C  C16  1  0.39469120  0.63766532  0.45953141  1  0  0.141249  0  3.674671  0  0  0.098451  0  3.932312  0  0  0.108894  0  3.947089  0  0  0.070579  0.091902  0  3.92215  0
C  C17  1  0.89469268  0.45953019  0.63766803  1  0  0.141278  0  3.674473  0  0  0.098489  0  3.932122  0  0  0.108936  0  3.946894  0  0  0.070595  0.09194  0  3.921961  0
C  C18  1  0.40131876  0.53416969  0.57717992  1  0  -0.119717  0  3.734782  0  0  -0.095107  0  3.980656  0  0  -0.108887  0  4.004272  0  0  -0.008135  -0.086642  0  3.965077  0
C  C19  1  0.90132505  0.57718023  0.53417255  1  0  -0.119495  0  3.734823  0  0  -0.09493  0  3.980743  0  0  -0.108713  0  4.004362  0  0  -0.008088  -0.086467  0  3.965165  0
C  C20  1  0.39923035  0.61116700  0.75902319  1  0  0.654674  0  3.926539  0  0  0.601246  0  4.222455  0  0  0.635648  0  4.216778  0  0  0.214069  0.578043  0  4.225413  0
C  C21  1  0.89923308  0.75901940  0.61117049  1  0  0.654498  0  3.926845  0  0  0.601098  0  4.222736  0  0  0.6355  0  4.217062  0  0  0.214037  0.577895  0  4.225693  0
C  C22  1  0.41100724  0.36388143  0.51950065  1  0  -0.006638  0  3.631852  0  0  -0.047474  0  3.878801  0  0  -0.039588  0  3.894289  0  0  -0.045503  -0.05202  0  3.868181  0
C  C23  1  0.91101332  0.51950332  0.36388616  1  0  -0.006748  0  3.631765  0  0  -0.047609  0  3.878738  0  0  -0.039723  0  3.894227  0  0  -0.045519  -0.052152  0  3.868116  0
C  C24  1  0.42000238  0.30634945  0.34901455  1  0  -0.120384  0  3.736089  0  0  -0.095503  0  3.981351  0  0  -0.109374  0  4.005069  0  0  -0.008452  -0.086974  0  3.965684  0
C  C25  1  0.91999882  0.34900749  0.30634919  1  0  -0.120224  0  3.735802  0  0  -0.095339  0  3.981049  0  0  -0.109208  0  4.004767  0  0  -0.008391  -0.086813  0  3.96538  0
C  C26  1  0.42268134  0.12467129  0.27193334  1  0  0.655437  0  3.925013  0  0  0.602272  0  4.220501  0  0  0.636697  0  4.214817  0  0  0.214393  0.579051  0  4.223464  0
C  C27  1  0.92267778  0.27193619  0.12466950  1  0  0.655441  0  3.925023  0  0  0.602283  0  4.220506  0  0  0.636707  0  4.214824  0  0  0.214417  0.579064  0  4.223468  0
C  C28  1  0.42557513  0.42394680  0.24549263  1  0  0.142146  0  3.6751  0  0  0.099276  0  3.932798  0  0  0.109788  0  3.947537  0  0  0.070145  0.092702  0  3.922634  0
C  C29  1  0.92556743  0.24549014  0.42394458  1  0  0.142084  0  3.67525  0  0  0.099236  0  3.932961  0  0  0.109749  0  3.947701  0  0  0.070167  0.092666  0  3.922789  0
N  N30  1  0.40994163  0.58560277  0.29774426  1  0  -0.367628  0  3.149442  0  0  -0.304356  0  3.420544  0  0  -0.322403  0  3.436944  0  0  -0.360917  -0.29204  0  3.408949  0
N  N31  1  0.90993818  0.29773791  0.58559716  1  0  -0.367642  0  3.149566  0  0  -0.304374  0  3.420662  0  0  -0.322423  0  3.437059  0  0  -0.360956  -0.292059  0  3.409067  0
O  O32  1  0.41035038  0.77258172  0.80244888  1  0  -0.67442  0  1.962408  0  0  -0.6085  0  2.185954  0  0  -0.636232  0  2.176558  0  0  -0.345296  -0.588926  0  2.191737  0
O  O33  1  0.91035062  0.80244810  0.77258150  1  0  -0.674386  0  1.962572  0  0  -0.608469  0  2.186114  0  0  -0.636202  0  2.176717  0  0  -0.345292  -0.588895  0  2.1919  0
O  O34  1  0.38785752  0.51735883  0.86580185  1  0  -0.666083  0  1.959034  0  0  -0.603642  0  2.1832  0  0  -0.630927  0  2.173515  0  0  -0.324778  -0.584486  0  2.189249  0
O  O35  1  0.88786096  0.86579958  0.51735883  1  0  -0.666058  0  1.958962  0  0  -0.603617  0  2.183106  0  0  -0.630903  0  2.173423  0  0  -0.324798  -0.584458  0  2.189154  0
O  O36  1  0.43444562  0.01792222  0.36577743  1  0  -0.667261  0  1.957635  0  0  -0.605076  0  2.181842  0  0  -0.632375  0  2.172144  0  0  -0.325269  -0.585897  0  2.187918  0
O  O37  1  0.93444720  0.36577679  0.01792429  1  0  -0.667208  0  1.957765  0  0  -0.605019  0  2.181959  0  0  -0.632318  0  2.172259  0  0  -0.325211  -0.585843  0  2.188035  0
O  O38  1  0.41168543  0.08139125  0.11056073  1  0  -0.673932  0  1.961078  0  0  -0.608495  0  2.18459  0  0  -0.636181  0  2.175174  0  0  -0.345096  -0.588943  0  2.190393  0
O  O39  1  0.91167958  0.11055786  0.08138563  1  0  -0.674007  0  1.96094  0  0  -0.608583  0  2.184459  0  0  -0.636271  0  2.175041  0  0  -0.34518  -0.589029  0  2.190262  0
O  O40  1  0.73642414  0.83408568  0.18074435  1  0  -0.898753  0  1.782362  0  0  -0.846329  0  1.967939  0  0  -0.867347  0  1.934292  0  0  -0.645321  -0.831073  0  1.991443  0
O  O41  1  0.23642502  0.18074286  0.83408376  1  0  -0.898794  0  1.782328  0  0  -0.846394  0  1.967915  0  0  -0.867405  0  1.934256  0  0  -0.645368  -0.831139  0  1.99142  0
O  O42  1  0.08538949  0.70224377  0.04817859  1  0  -0.898566  0  1.783797  0  0  -0.845965  0  1.969739  0  0  -0.866999  0  1.936104  0  0  -0.645062  -0.830692  0  1.993248  0
O  O43  1  0.58538857  0.04817668  0.70223376  1  0  -0.898505  0  1.783888  0  0  -0.8459  0  1.969844  0  0  -0.866934  0  1.936215  0  0  -0.645046  -0.830629  0  1.99335  0
