# generated using pymatgen
data_UH9C14NO6
_symmetry_space_group_name_H-M   'P 1'
_cell_length_a   9.30716247
_cell_length_b   12.16246359
_cell_length_c   12.16243414
_cell_angle_alpha   96.42319466
_cell_angle_beta   91.50351340
_cell_angle_gamma   91.50340061
_symmetry_Int_Tables_number   1
_chemical_formula_structural   UH9C14NO6
_chemical_formula_sum   'U4 H36 C56 N4 O24'
_cell_volume   1367.06032798
_cell_formula_units_Z   4
loop_
 _symmetry_equiv_pos_site_id
 _symmetry_equiv_pos_as_xyz
  1  'x, y, z'
loop_
 _atom_site_type_symbol
 _atom_site_label
 _atom_site_symmetry_multiplicity
 _atom_site_fract_x
 _atom_site_fract_y
 _atom_site_fract_z
 _atom_site_occupancy
 _atom_site_hle17_bader_spin_density
 _atom_site_hle17_ddec_charge
 _atom_site_hle17_ddec_spin_density
 _atom_site_hle17_ddec_sum_bond_order
 _atom_site_hle17_magmom
 _atom_site_hse06_10hf_bader_spin_density
 _atom_site_hse06_10hf_ddec_charge
 _atom_site_hse06_10hf_ddec_spin_density
 _atom_site_hse06_10hf_ddec_sum_bond_order
 _atom_site_hse06_10hf_magmom
 _atom_site_hse06_bader_spin_density
 _atom_site_hse06_ddec_charge
 _atom_site_hse06_ddec_spin_density
 _atom_site_hse06_ddec_sum_bond_order
 _atom_site_hse06_magmom
 _atom_site_pbe_bader_spin_density
 _atom_site_pbe_cm5_charge
 _atom_site_pbe_ddec_charge
 _atom_site_pbe_ddec_spin_density
 _atom_site_pbe_ddec_sum_bond_order
 _atom_site_pbe_magmom
U  U0  1  0.09245253  0.63861811  0.85806822  1  0  2.475947  0  4.173453  0  0  2.533478  0  4.835114  0  0  2.647621  0  4.793553  0  0  2.201186  2.451601  0  4.866232  0
U  U1  1  0.40754784  0.14193500  0.36138292  1  0  2.476026  0  4.173316  0  0  2.53353  0  4.835039  0  0  2.647711  0  4.793422  0  0  2.201177  2.451712  0  4.86608  0
U  U2  1  0.90754484  0.36138973  0.14193277  1  0  2.476045  0  4.173532  0  0  2.53359  0  4.835073  0  0  2.647638  0  4.793648  0  0  2.201189  2.451652  0  4.866287  0
U  U3  1  0.59245249  0.85806704  0.63861671  1  0  2.47605  0  4.173371  0  0  2.533459  0  4.835116  0  0  2.647644  0  4.793509  0  0  2.201109  2.451592  0  4.866223  0
H  H4  1  0.04581909  0.59029160  0.55241862  1  0  0.104701  0  0.970648  0  0  0.113561  0  1.03425  0  0  0.116695  0  1.032918  0  0  0.109115  0.111151  0  1.035702  0
H  H5  1  0.45418054  0.44758209  0.40970449  1  0  0.104656  0  0.970791  0  0  0.113585  0  1.034305  0  0  0.116721  0  1.032968  0  0  0.109107  0.111175  0  1.035758  0
H  H6  1  0.95418106  0.40970630  0.44758139  1  0  0.104712  0  0.970681  0  0  0.11357  0  1.034276  0  0  0.116704  0  1.032945  0  0  0.109114  0.111159  0  1.035728  0
H  H7  1  0.54582080  0.55241828  0.59029417  1  0  0.104736  0  0.970668  0  0  0.113597  0  1.034261  0  0  0.116731  0  1.03293  0  0  0.109129  0.111186  0  1.035715  0
H  H8  1  0.89307011  0.58665351  0.38067666  1  0  0.097149  0  0.947028  0  0  0.108463  0  1.005858  0  0  0.111227  0  1.004022  0  0  0.112193  0.106784  0  1.00663  0
H  H9  1  0.60693138  0.61932311  0.41334454  1  0  0.097155  0  0.947013  0  0  0.108467  0  1.005855  0  0  0.111234  0  1.004012  0  0  0.112178  0.106786  0  1.006626  0
H  H10  1  0.10693219  0.41334438  0.61932340  1  0  0.097101  0  0.947047  0  0  0.108432  0  1.005864  0  0  0.111197  0  1.004026  0  0  0.112179  0.106752  0  1.006635  0
H  H11  1  0.39306885  0.38067644  0.58665401  1  0  0.097169  0  0.947027  0  0  0.108472  0  1.005871  0  0  0.111239  0  1.004032  0  0  0.112173  0.106792  0  1.006642  0
H  H12  1  0.94276029  0.72222831  0.24720604  1  0  0.10376  0  0.930086  0  0  0.115931  0  0.983755  0  0  0.118586  0  0.983286  0  0  0.110601  0.114132  0  0.98404  0
H  H13  1  0.55723938  0.75279613  0.27777081  1  0  0.103748  0  0.930091  0  0  0.115928  0  0.98375  0  0  0.118585  0  0.983281  0  0  0.110595  0.114129  0  0.984035  0
H  H14  1  0.05724090  0.27776876  0.75279473  1  0  0.103713  0  0.93015  0  0  0.115926  0  0.983772  0  0  0.118583  0  0.983305  0  0  0.110594  0.114126  0  0.984059  0
H  H15  1  0.44275987  0.24720592  0.72223044  1  0  0.103719  0  0.930121  0  0  0.115912  0  0.983769  0  0  0.11857  0  0.983299  0  0  0.110583  0.114113  0  0.984055  0
H  H16  1  0.14575994  0.85964821  0.28663567  1  0  0.091716  0  0.995238  0  0  0.099977  0  1.05918  0  0  0.102175  0  1.059346  0  0  0.102339  0.098553  0  1.058849  0
H  H17  1  0.35424017  0.71336421  0.14034891  1  0  0.091672  0  0.995325  0  0  0.099943  0  1.059261  0  0  0.10214  0  1.059428  0  0  0.102345  0.09852  0  1.058926  0
H  H18  1  0.85424129  0.14034969  0.71336437  1  0  0.091713  0  0.995315  0  0  0.099979  0  1.05925  0  0  0.102176  0  1.059416  0  0  0.102356  0.098557  0  1.05891  0
H  H19  1  0.64576001  0.28663452  0.85965119  1  0  0.091696  0  0.995238  0  0  0.099955  0  1.059187  0  0  0.102151  0  1.059354  0  0  0.102329  0.098537  0  1.058835  0
H  H20  1  0.83420527  0.80965551  0.02961108  1  0  0.1129  0  0.955413  0  0  0.125404  0  1.013196  0  0  0.128725  0  1.011151  0  0  0.114412  0.122975  0  1.015102  0
H  H21  1  0.66579027  0.97039299  0.19034913  1  0  0.112775  0  0.955458  0  0  0.125309  0  1.013215  0  0  0.128629  0  1.011173  0  0  0.114344  0.122878  0  1.015122  0
H  H22  1  0.16579499  0.19034488  0.97039002  1  0  0.112897  0  0.955416  0  0  0.125403  0  1.013199  0  0  0.128724  0  1.011152  0  0  0.114404  0.122972  0  1.015106  0
H  H23  1  0.33420568  0.02960742  0.80965186  1  0  0.112817  0  0.95543  0  0  0.125311  0  1.01323  0  0  0.128632  0  1.011186  0  0  0.114361  0.122881  0  1.015136  0
H  H24  1  0.47490757  0.94864383  0.08322204  1  0  0.115151  0  0.97908  0  0  0.125241  0  1.04038  0  0  0.12831  0  1.039475  0  0  0.110995  0.122946  0  1.041793  0
H  H25  1  0.02508942  0.91677956  0.05135822  1  0  0.115111  0  0.979187  0  0  0.1252  0  1.040482  0  0  0.128272  0  1.039571  0  0  0.110968  0.122899  0  1.041891  0
H  H26  1  0.52509263  0.05135488  0.91677559  1  0  0.115164  0  0.979042  0  0  0.125257  0  1.040352  0  0  0.128328  0  1.039443  0  0  0.111017  0.122958  0  1.041763  0
H  H27  1  0.97490766  0.08322167  0.94864207  1  0  0.115138  0  0.979118  0  0  0.125213  0  1.04044  0  0  0.128282  0  1.039536  0  0  0.11101  0.122918  0  1.041853  0
H  H28  1  0.24874947  0.86914737  0.98838807  1  0  0.073122  0  0.964158  0  0  0.08091  0  1.031672  0  0  0.082379  0  1.030564  0  0  0.120853  0.07979  0  1.032489  0
H  H29  1  0.25124927  0.01161265  0.13085441  1  0  0.073135  0  0.964157  0  0  0.080965  0  1.03163  0  0  0.082434  0  1.030524  0  0  0.120884  0.079847  0  1.032446  0
H  H30  1  0.75125287  0.13085134  0.01161126  1  0  0.073115  0  0.964125  0  0  0.080907  0  1.03163  0  0  0.082377  0  1.030522  0  0  0.120846  0.079787  0  1.03245  0
H  H31  1  0.74874885  0.98838774  0.86914499  1  0  0.073116  0  0.964178  0  0  0.080945  0  1.03164  0  0  0.082413  0  1.030535  0  0  0.120864  0.079826  0  1.032457  0
H  H32  1  0.45033548  0.58788774  0.85501248  1  0  0.080429  0  0.943713  0  0  0.088082  0  1.009103  0  0  0.089866  0  1.007904  0  0  0.125684  0.086668  0  1.010418  0
H  H33  1  0.04966416  0.14498829  0.41211514  1  0  0.08035  0  0.94372  0  0  0.088036  0  1.009094  0  0  0.089818  0  1.007893  0  0  0.125681  0.086623  0  1.010407  0
H  H34  1  0.54966574  0.41211016  0.14498838  1  0  0.080334  0  0.9439  0  0  0.088102  0  1.009151  0  0  0.089888  0  1.007952  0  0  0.125691  0.086688  0  1.010468  0
H  H35  1  0.95033499  0.85501128  0.58788502  1  0  0.080381  0  0.943705  0  0  0.088064  0  1.009091  0  0  0.089846  0  1.007891  0  0  0.125684  0.086653  0  1.010403  0
H  H36  1  0.68815138  0.65761150  0.94036779  1  0  0.118374  0  0.977206  0  0  0.1284  0  1.035765  0  0  0.131948  0  1.034813  0  0  0.113152  0.125582  0  1.036873  0
H  H37  1  0.81185017  0.05963547  0.34239143  1  0  0.118305  0  0.977285  0  0  0.128375  0  1.035796  0  0  0.131925  0  1.034841  0  0  0.113146  0.12556  0  1.036911  0
H  H38  1  0.31185091  0.34238640  0.05963309  1  0  0.118382  0  0.977252  0  0  0.128413  0  1.035806  0  0  0.131961  0  1.034853  0  0  0.113159  0.125597  0  1.036916  0
H  H39  1  0.18815008  0.94036493  0.65761049  1  0  0.118297  0  0.977319  0  0  0.12837  0  1.035815  0  0  0.131919  0  1.034863  0  0  0.113147  0.125556  0  1.036929  0
C  C40  1  0.18458620  0.72386517  0.51468622  1  0  -0.069542  0  3.697588  0  0  -0.055367  0  3.922835  0  0  -0.060894  0  3.944323  0  0  -0.000889  -0.051898  0  3.90894  0
C  C41  1  0.31541746  0.48531481  0.27613318  1  0  -0.069626  0  3.697563  0  0  -0.055459  0  3.922868  0  0  -0.060994  0  3.944356  0  0  -0.000922  -0.051989  0  3.908972  0
C  C42  1  0.81541606  0.27613190  0.48531457  1  0  -0.069595  0  3.697448  0  0  -0.055397  0  3.922742  0  0  -0.060919  0  3.94423  0  0  -0.000898  -0.051953  0  3.908876  0
C  C43  1  0.68458613  0.51468805  0.72386826  1  0  -0.069459  0  3.697475  0  0  -0.055295  0  3.922722  0  0  -0.060818  0  3.944212  0  0  -0.000872  -0.051836  0  3.908835  0
C  C44  1  0.06844103  0.64808680  0.49258541  1  0  -0.072551  0  3.706478  0  0  -0.097591  0  3.957339  0  0  -0.099097  0  3.977361  0  0  -0.076227  -0.096582  0  3.944249  0
C  C45  1  0.43155916  0.50741529  0.35191239  1  0  -0.072523  0  3.706545  0  0  -0.097614  0  3.957393  0  0  -0.09912  0  3.977416  0  0  -0.076244  -0.096606  0  3.944302  0
C  C46  1  0.93156127  0.35191109  0.50741465  1  0  -0.072613  0  3.706343  0  0  -0.097641  0  3.957221  0  0  -0.099149  0  3.977241  0  0  -0.076257  -0.096625  0  3.944138  0
C  C47  1  0.56844328  0.49258592  0.64808884  1  0  -0.072596  0  3.70648  0  0  -0.097635  0  3.957341  0  0  -0.099143  0  3.977364  0  0  -0.076234  -0.096622  0  3.944251  0
C  C48  1  0.98171235  0.64700219  0.39734718  1  0  -0.029423  0  3.719456  0  0  -0.049761  0  3.980313  0  0  -0.049587  0  3.999154  0  0  -0.068673  -0.049331  0  3.966181  0
C  C49  1  0.51828602  0.60265344  0.35299739  1  0  -0.029388  0  3.719357  0  0  -0.049728  0  3.980228  0  0  -0.049555  0  3.999068  0  0  -0.068624  -0.049296  0  3.966093  0
C  C50  1  0.01828884  0.35299488  0.60265359  1  0  -0.029314  0  3.719257  0  0  -0.049669  0  3.980119  0  0  -0.049492  0  3.998958  0  0  -0.06863  -0.049237  0  3.965982  0
C  C51  1  0.48171428  0.39734777  0.64700297  1  0  -0.029449  0  3.719493  0  0  -0.049776  0  3.980343  0  0  -0.049606  0  3.999188  0  0  -0.068642  -0.049345  0  3.96621  0
C  C52  1  0.00939342  0.72308084  0.32233110  1  0  -0.04577  0  3.715329  0  0  -0.063977  0  3.9739  0  0  -0.066931  0  3.994835  0  0  -0.075386  -0.061653  0  3.958585  0
C  C53  1  0.49060657  0.67766870  0.27691656  1  0  -0.045795  0  3.715283  0  0  -0.064005  0  3.973857  0  0  -0.06696  0  3.994794  0  0  -0.075405  -0.061681  0  3.958541  0
C  C54  1  0.99060773  0.27691541  0.67766959  1  0  -0.045756  0  3.715323  0  0  -0.063996  0  3.973892  0  0  -0.066953  0  3.99483  0  0  -0.075393  -0.06167  0  3.958574  0
C  C55  1  0.50939259  0.32233085  0.72308196  1  0  -0.045747  0  3.71532  0  0  -0.063978  0  3.973883  0  0  -0.066934  0  3.994821  0  0  -0.075407  -0.061655  0  3.958568  0
C  C56  1  0.12318183  0.79956079  0.34404094  1  0  -0.05394  0  3.722127  0  0  -0.079212  0  3.973127  0  0  -0.079158  0  3.995449  0  0  -0.07744  -0.078777  0  3.957531  0
C  C57  1  0.37681716  0.65596050  0.20043700  1  0  -0.0539  0  3.722184  0  0  -0.079198  0  3.973207  0  0  -0.079143  0  3.995527  0  0  -0.077449  -0.078763  0  3.957611  0
C  C58  1  0.87681931  0.20043545  0.65595974  1  0  -0.053974  0  3.722095  0  0  -0.079256  0  3.973114  0  0  -0.079202  0  3.995434  0  0  -0.077464  -0.078823  0  3.95752  0
C  C59  1  0.62318206  0.34404072  0.79956334  1  0  -0.053922  0  3.721999  0  0  -0.079186  0  3.972999  0  0  -0.079133  0  3.995325  0  0  -0.077422  -0.078749  0  3.957407  0
C  C60  1  0.21208387  0.80214688  0.43930770  1  0  -0.093154  0  3.711046  0  0  -0.07854  0  3.937992  0  0  -0.087271  0  3.961294  0  0  -0.008294  -0.072979  0  3.922475  0
C  C61  1  0.28791658  0.56069276  0.19785079  1  0  -0.093059  0  3.711026  0  0  -0.078422  0  3.937956  0  0  -0.087149  0  3.961261  0  0  -0.008252  -0.07286  0  3.922429  0
C  C62  1  0.78791728  0.19784936  0.56069134  1  0  -0.093064  0  3.710935  0  0  -0.078441  0  3.93787  0  0  -0.087171  0  3.961171  0  0  -0.008249  -0.07287  0  3.922345  0
C  C63  1  0.71208376  0.43930928  0.80214883  1  0  -0.093128  0  3.710995  0  0  -0.078517  0  3.937939  0  0  -0.087248  0  3.961243  0  0  -0.008264  -0.072951  0  3.922415  0
C  C64  1  0.27188024  0.71298197  0.61827048  1  0  0.729074  0  3.800797  0  0  0.700391  0  4.082786  0  0  0.742564  0  4.065847  0  0  0.259272  0.670854  0  4.093716  0
C  C65  1  0.22811840  0.38173031  0.28701689  1  0  0.729094  0  3.800705  0  0  0.700373  0  4.082753  0  0  0.742565  0  4.065776  0  0  0.259271  0.670836  0  4.093681  0
C  C66  1  0.72812214  0.28701758  0.38172976  1  0  0.729205  0  3.800574  0  0  0.700416  0  4.082733  0  0  0.742578  0  4.065807  0  0  0.259284  0.670883  0  4.093666  0
C  C67  1  0.77187756  0.61827009  0.71298411  1  0  0.728911  0  3.800948  0  0  0.700239  0  4.082933  0  0  0.742405  0  4.066005  0  0  0.259234  0.67071  0  4.093846  0
C  C68  1  0.32273555  0.89458853  0.45855959  1  0  0.700283  0  3.820486  0  0  0.667022  0  4.115337  0  0  0.708164  0  4.100956  0  0  0.250398  0.638808  0  4.123938  0
C  C69  1  0.17726099  0.54143951  0.10540788  1  0  0.700158  0  3.820545  0  0  0.666873  0  4.115451  0  0  0.708009  0  4.101074  0  0  0.250325  0.638668  0  4.124033  0
C  C70  1  0.67726350  0.10540854  0.54143866  1  0  0.700249  0  3.820439  0  0  0.666985  0  4.115297  0  0  0.708125  0  4.100921  0  0  0.250374  0.638779  0  4.123887  0
C  C71  1  0.82273820  0.45856087  0.89459072  1  0  0.70025  0  3.820468  0  0  0.66699  0  4.115336  0  0  0.708129  0  4.100955  0  0  0.250373  0.63878  0  4.123925  0
C  C72  1  0.74082669  0.85039237  0.06646039  1  0  -0.101515  0  3.693847  0  0  -0.122536  0  3.944736  0  0  -0.125947  0  3.965245  0  0  -0.072827  -0.120596  0  3.931331  0
C  C73  1  0.75917135  0.93354325  0.14961078  1  0  -0.101314  0  3.693814  0  0  -0.12235  0  3.94463  0  0  -0.125764  0  3.965142  0  0  -0.072683  -0.12041  0  3.93123  0
C  C74  1  0.25917246  0.14960719  0.93353977  1  0  -0.101531  0  3.693843  0  0  -0.122568  0  3.944698  0  0  -0.125979  0  3.965206  0  0  -0.072813  -0.120625  0  3.931293  0
C  C75  1  0.24082784  0.06645714  0.85038947  1  0  -0.10136  0  3.693736  0  0  -0.122325  0  3.944584  0  0  -0.125735  0  3.965092  0  0  -0.072704  -0.120384  0  3.931185  0
C  C76  1  0.60192883  0.80871907  0.01956383  1  0  0.147632  0  3.778925  0  0  0.162756  0  4.008506  0  0  0.168529  0  4.030377  0  0  0.017094  0.15948  0  3.993306  0
C  C77  1  0.89806885  0.98043997  0.19128612  1  0  0.147578  0  3.778982  0  0  0.16278  0  4.008476  0  0  0.16855  0  4.030349  0  0  0.0171  0.1595  0  3.993275  0
C  C78  1  0.39807036  0.19128132  0.98043642  1  0  0.147617  0  3.779015  0  0  0.162804  0  4.008513  0  0  0.168577  0  4.030385  0  0  0.017113  0.159524  0  3.993317  0
C  C79  1  0.10192929  0.01956126  0.80871502  1  0  0.147751  0  3.77874  0  0  0.162843  0  4.00838  0  0  0.168613  0  4.030254  0  0  0.017138  0.159564  0  3.993181  0
C  C80  1  0.47485613  0.86836791  0.03347497  1  0  -0.158319  0  3.66516  0  0  -0.172981  0  3.902971  0  0  -0.180953  0  3.922525  0  0  -0.074984  -0.168826  0  3.890808  0
C  C81  1  0.02513918  0.96652705  0.13163565  1  0  -0.158222  0  3.665159  0  0  -0.172897  0  3.902943  0  0  -0.180865  0  3.922494  0  0  -0.074931  -0.168731  0  3.890772  0
C  C82  1  0.52514311  0.13163329  0.96652372  1  0  -0.158377  0  3.665205  0  0  -0.173061  0  3.903015  0  0  -0.181034  0  3.92257  0  0  -0.075021  -0.168901  0  3.890849  0
C  C83  1  0.97485789  0.03347418  0.86836464  1  0  -0.158309  0  3.665025  0  0  -0.172965  0  3.902888  0  0  -0.180932  0  3.922437  0  0  -0.074985  -0.168809  0  3.890725  0
C  C84  1  0.34864930  0.82472919  0.98134067  1  0  0.136445  0  3.721935  0  0  0.11147  0  3.984188  0  0  0.120628  0  4.000094  0  0  0.054472  0.105845  0  3.972993  0
C  C85  1  0.15134839  0.01866086  0.17527409  1  0  0.13646  0  3.721826  0  0  0.111456  0  3.984061  0  0  0.120612  0  3.99997  0  0  0.054466  0.105831  0  3.972866  0
C  C86  1  0.65135096  0.17527119  0.01865961  1  0  0.136481  0  3.721918  0  0  0.111518  0  3.984169  0  0  0.120677  0  4.000071  0  0  0.054477  0.105892  0  3.972971  0
C  C87  1  0.84864969  0.98133870  0.82472522  1  0  0.136478  0  3.721875  0  0  0.111486  0  3.984098  0  0  0.120645  0  4.000004  0  0  0.054488  0.10586  0  3.972904  0
C  C88  1  0.46078678  0.66743363  0.90599800  1  0  0.147815  0  3.700849  0  0  0.118939  0  3.969601  0  0  0.129288  0  3.984272  0  0  0.064384  0.111576  0  3.959791  0
C  C89  1  0.03920995  0.09400430  0.33257046  1  0  0.148082  0  3.700719  0  0  0.119167  0  3.969527  0  0  0.129521  0  3.984194  0  0  0.064429  0.111804  0  3.959723  0
C  C90  1  0.53921233  0.33256511  0.09400290  1  0  0.147897  0  3.70095  0  0  0.118936  0  3.969738  0  0  0.129282  0  3.984408  0  0  0.064381  0.111574  0  3.959923  0
C  C91  1  0.96078816  0.90599609  0.66742976  1  0  0.14791  0  3.700822  0  0  0.118978  0  3.969644  0  0  0.129332  0  3.984314  0  0  0.06436  0.111616  0  3.959835  0
C  C92  1  0.59229407  0.70630867  0.95356502  1  0  -0.148041  0  3.649468  0  0  -0.164607  0  3.889414  0  0  -0.172349  0  3.907979  0  0  -0.069433  -0.158773  0  3.876595  0
C  C93  1  0.90770457  0.04643870  0.29369564  1  0  -0.148066  0  3.649604  0  0  -0.164708  0  3.889577  0  0  -0.17245  0  3.908142  0  0  -0.069489  -0.158879  0  3.876765  0
C  C94  1  0.40770726  0.29369171  0.04643528  1  0  -0.148038  0  3.649549  0  0  -0.164634  0  3.88952  0  0  -0.172377  0  3.908085  0  0  -0.069449  -0.158805  0  3.876709  0
C  C95  1  0.09229461  0.95356169  0.70630544  1  0  -0.148052  0  3.649568  0  0  -0.164641  0  3.889559  0  0  -0.172384  0  3.908123  0  0  -0.06948  -0.158816  0  3.876749  0
N  N96  1  0.34005226  0.72542163  0.91935526  1  0  -0.384871  0  3.286109  0  0  -0.356412  0  3.58183  0  0  -0.378582  0  3.603515  0  0  -0.377381  -0.340357  0  3.566  0
N  N97  1  0.15994473  0.08064695  0.27458262  1  0  -0.385073  0  3.286005  0  0  -0.356602  0  3.581762  0  0  -0.378777  0  3.603444  0  0  -0.37743  -0.340557  0  3.565941  0
N  N98  1  0.65994797  0.27457793  0.08064493  1  0  -0.384913  0  3.286116  0  0  -0.356472  0  3.581887  0  0  -0.378631  0  3.603569  0  0  -0.377393  -0.34041  0  3.566051  0
N  N99  1  0.84005338  0.91935345  0.72541843  1  0  -0.384978  0  3.286135  0  0  -0.356495  0  3.581878  0  0  -0.37867  0  3.603564  0  0  -0.377387  -0.34044  0  3.566046  0
O  O100  1  0.16855832  0.50498451  0.81930840  1  0  -0.70332  0  1.518591  0  0  -0.706469  0  1.790071  0  0  -0.727281  0  1.777217  0  0  -0.760121  -0.694595  0  1.80019  0
O  O101  1  0.33144021  0.18069277  0.49502221  1  0  -0.70335  0  1.518405  0  0  -0.706515  0  1.789926  0  0  -0.727337  0  1.777056  0  0  -0.760016  -0.694651  0  1.800033  0
O  O102  1  0.83143996  0.49501917  0.18068806  1  0  -0.703296  0  1.518881  0  0  -0.706434  0  1.790384  0  0  -0.727223  0  1.777546  0  0  -0.760096  -0.694543  0  1.800516  0
O  O103  1  0.66856218  0.81930676  0.50497473  1  0  -0.70338  0  1.518402  0  0  -0.706517  0  1.789912  0  0  -0.727342  0  1.777045  0  0  -0.759986  -0.694645  0  1.800024  0
O  O104  1  0.02514519  0.77398028  0.90567355  1  0  -0.71656  0  1.582201  0  0  -0.7228  0  1.879604  0  0  -0.745177  0  1.867366  0  0  -0.757157  -0.708971  0  1.889218  0
O  O105  1  0.47485329  0.09433273  0.22602518  1  0  -0.716557  0  1.58226  0  0  -0.722804  0  1.879722  0  0  -0.745174  0  1.867444  0  0  -0.757254  -0.708996  0  1.889335  0
O  O106  1  0.97485311  0.22602424  0.09432629  1  0  -0.71662  0  1.581945  0  0  -0.722869  0  1.879301  0  0  -0.74523  0  1.867091  0  0  -0.757191  -0.709032  0  1.888935  0
O  O107  1  0.52514497  0.90567097  0.77397540  1  0  -0.716586  0  1.582274  0  0  -0.722779  0  1.879695  0  0  -0.745159  0  1.867448  0  0  -0.757234  -0.708959  0  1.889312  0
O  O108  1  0.20132186  0.69551293  0.70335326  1  0  -0.665964  0  2.105926  0  0  -0.656207  0  2.384182  0  0  -0.695289  0  2.378247  0  0  -0.367736  -0.627329  0  2.387038  0
O  O109  1  0.29868037  0.29664783  0.30448880  1  0  -0.665945  0  2.105788  0  0  -0.656173  0  2.384087  0  0  -0.695273  0  2.378149  0  0  -0.36778  -0.627307  0  2.386942  0
O  O110  1  0.79867969  0.30449243  0.29664921  1  0  -0.666018  0  2.105846  0  0  -0.656257  0  2.3842  0  0  -0.695326  0  2.378283  0  0  -0.367807  -0.627372  0  2.387058  0
O  O111  1  0.70131770  0.70335175  0.69551381  1  0  -0.665931  0  2.105982  0  0  -0.656162  0  2.384245  0  0  -0.695251  0  2.378314  0  0  -0.367765  -0.627285  0  2.387096  0
O  O112  1  0.40827053  0.71539190  0.61731716  1  0  -0.667039  0  2.077916  0  0  -0.655674  0  2.347986  0  0  -0.690197  0  2.339978  0  0  -0.360715  -0.630307  0  2.352582  0
O  O113  1  0.09172655  0.38268570  0.28460753  1  0  -0.667024  0  2.077935  0  0  -0.655659  0  2.348009  0  0  -0.690169  0  2.339994  0  0  -0.360666  -0.630275  0  2.352591  0
O  O114  1  0.59172964  0.28460684  0.38268458  1  0  -0.667056  0  2.077794  0  0  -0.655652  0  2.347922  0  0  -0.690174  0  2.33992  0  0  -0.360659  -0.630291  0  2.352517  0
O  O115  1  0.90826851  0.61731885  0.71539471  1  0  -0.666935  0  2.07793  0  0  -0.655586  0  2.348003  0  0  -0.690101  0  2.339996  0  0  -0.360694  -0.630233  0  2.352621  0
O  O116  1  0.38367572  0.91668846  0.55456629  1  0  -0.676593  0  2.109059  0  0  -0.665712  0  2.388055  0  0  -0.701325  0  2.379881  0  0  -0.371892  -0.639403  0  2.392277  0
O  O117  1  0.11632459  0.44543126  0.08330996  1  0  -0.676654  0  2.109131  0  0  -0.66577  0  2.38811  0  0  -0.70136  0  2.379946  0  0  -0.371898  -0.639452  0  2.392327  0
O  O118  1  0.61632448  0.08331025  0.44543134  1  0  -0.676629  0  2.108979  0  0  -0.66574  0  2.387948  0  0  -0.701344  0  2.37976  0  0  -0.371906  -0.639438  0  2.392164  0
O  O119  1  0.88367562  0.55456831  0.91669105  1  0  -0.676645  0  2.109037  0  0  -0.665759  0  2.387999  0  0  -0.701357  0  2.379813  0  0  -0.371894  -0.639448  0  2.392217  0
O  O120  1  0.34772141  0.95172071  0.37946205  1  0  -0.647931  0  2.073914  0  0  -0.632215  0  2.338294  0  0  -0.666728  0  2.332487  0  0  -0.347008  -0.606412  0  2.340674  0
O  O121  1  0.15227797  0.62053979  0.04827883  1  0  -0.647789  0  2.073941  0  0  -0.632074  0  2.338332  0  0  -0.666579  0  2.33253  0  0  -0.346948  -0.606267  0  2.340708  0
O  O122  1  0.65227882  0.04827884  0.62053731  1  0  -0.647884  0  2.073938  0  0  -0.632167  0  2.338316  0  0  -0.666679  0  2.332512  0  0  -0.346972  -0.606351  0  2.340679  0
O  O123  1  0.84772236  0.37946225  0.95172162  1  0  -0.647874  0  2.073937  0  0  -0.632174  0  2.338307  0  0  -0.666666  0  2.332504  0  0  -0.347002  -0.606367  0  2.340706  0
