# generated using pymatgen
data_Cd3H46C52(N4O7)2
_symmetry_space_group_name_H-M   'P 1'
_cell_length_a   10.31174162
_cell_length_b   10.65894666
_cell_length_c   13.29080000
_cell_angle_alpha   98.68301218
_cell_angle_beta   90.00000000
_cell_angle_gamma   118.92871548
_symmetry_Int_Tables_number   1
_chemical_formula_structural   Cd3H46C52(N4O7)2
_chemical_formula_sum   'Cd3 H46 C52 N8 O14'
_cell_volume   1259.38032276
_cell_formula_units_Z   1
loop_
 _symmetry_equiv_pos_site_id
 _symmetry_equiv_pos_as_xyz
  1  'x, y, z'
loop_
 _atom_site_type_symbol
 _atom_site_label
 _atom_site_symmetry_multiplicity
 _atom_site_fract_x
 _atom_site_fract_y
 _atom_site_fract_z
 _atom_site_occupancy
 _atom_site_hle17_bader_spin_density
 _atom_site_hle17_ddec_charge
 _atom_site_hle17_ddec_spin_density
 _atom_site_hle17_ddec_sum_bond_order
 _atom_site_hle17_magmom
 _atom_site_hse06_10hf_bader_spin_density
 _atom_site_hse06_10hf_ddec_charge
 _atom_site_hse06_10hf_ddec_spin_density
 _atom_site_hse06_10hf_ddec_sum_bond_order
 _atom_site_hse06_10hf_magmom
 _atom_site_hse06_bader_spin_density
 _atom_site_hse06_ddec_charge
 _atom_site_hse06_ddec_spin_density
 _atom_site_hse06_ddec_sum_bond_order
 _atom_site_hse06_magmom
 _atom_site_pbe_bader_charge
 _atom_site_pbe_bader_spin_density
 _atom_site_pbe_cm5_charge
 _atom_site_pbe_ddec_charge
 _atom_site_pbe_ddec_spin_density
 _atom_site_pbe_ddec_sum_bond_order
 _atom_site_pbe_magmom
Cd  Cd0  1  0.50359358  0.00000326  0.50000040  1  0  1.158247  0  1.692726  0  0  0.968784  0  2.131876  0  0  1.023449  0  2.08174  0  1.292521  0  0.79294  0.930074  0  2.16552  0
Cd  Cd1  1  0.76222326  0.06646667  0.29838725  1  0  1.197762  0  1.651272  0  0  1.014616  0  2.105646  0  0  1.07355  0  2.04844  0  1.311712  0  0.778382  0.968071  0  2.149208  0
Cd  Cd2  1  0.69575776  0.93353262  0.70161394  1  0  1.197715  0  1.651276  0  0  1.014575  0  2.10563  0  0  1.07351  0  2.048424  0  1.311853  0  0.778358  0.96803  0  2.149193  0
H  H3  1  0.04345467  0.43499068  0.40307192  1  0  0.132418  0  0.964721  0  0  0.139091  0  1.028334  0  0  0.142727  0  1.025939  0  0.188854  0  0.123648  0.136395  0  1.030495  0
H  H4  1  0.60846054  0.56500426  0.59692724  1  0  0.13246  0  0.964987  0  0  0.139147  0  1.028544  0  0  0.142782  0  1.026148  0  0.180058  0  0.123634  0.136446  0  1.030718  0
H  H5  1  0.62408428  0.72333722  0.92033159  1  0  0.131406  0  0.967121  0  0  0.140432  0  1.028748  0  0  0.14356  0  1.026796  0  0.15567  0  0.123162  0.138032  0  1.030476  0
H  H6  1  0.90074633  0.27666316  0.07966823  1  0  0.131429  0  0.967376  0  0  0.140465  0  1.028977  0  0  0.143593  0  1.027025  0  0.158447  0  0.123186  0.138064  0  1.030707  0
H  H7  1  0.23319362  0.06047807  0.29023676  1  0  0.104059  0  0.953321  0  0  0.111786  0  1.021291  0  0  0.11563  0  1.018074  0  0.111395  0  0.103567  0.109202  0  1.02346  0
H  H8  1  0.17271035  0.93951796  0.70976254  1  0  0.10405  0  0.953429  0  0  0.111805  0  1.021356  0  0  0.115648  0  1.018141  0  0.114783  0  0.103591  0.109221  0  1.023525  0
H  H9  1  0.25129055  0.45893966  0.24623995  1  0  0.093592  0  0.977355  0  0  0.099142  0  1.050242  0  0  0.102788  0  1.047444  0  0.071538  0  0.097941  0.096359  0  1.052479  0
H  H10  1  0.79234510  0.54105528  0.75376372  1  0  0.093621  0  0.977202  0  0  0.099167  0  1.05011  0  0  0.102821  0  1.047306  0  0.110105  0  0.097953  0.096384  0  1.052346  0
H  H11  1  0.65460878  0.43439976  0.26586266  1  0  0.095315  0  0.97412  0  0  0.102692  0  1.043629  0  0  0.10674  0  1.039864  0  0.049031  0  0.102767  0.099777  0  1.046177  0
H  H12  1  0.22020608  0.56560171  0.73413654  1  0  0.095316  0  0.97412  0  0  0.102717  0  1.043601  0  0  0.106756  0  1.039846  0  0.058988  0  0.102775  0.0998  0  1.046156  0
H  H13  1  0.56499890  0.63046540  0.16068467  1  0  0.06568  0  0.941235  0  0  0.079337  0  1.005077  0  0  0.079084  0  1.006364  0  0.046493  0  0.102621  0.079509  0  1.004323  0
H  H14  1  0.93453130  0.36953281  0.83931564  1  0  0.06565  0  0.941249  0  0  0.07935  0  1.005083  0  0  0.079089  0  1.006363  0  0.062008  0  0.10261  0.07952  0  1.004329  0
H  H15  1  0.49350016  0.68195022  0.27151149  1  0  0.06418  0  0.939095  0  0  0.073631  0  1.00899  0  0  0.074959  0  1.007645  0  0.075938  0  0.09762  0.072818  0  1.0097  0
H  H16  1  0.81154871  0.31804581  0.72848780  1  0  0.064189  0  0.939096  0  0  0.073659  0  1.009004  0  0  0.074977  0  1.007653  0  0.091921  0  0.097631  0.072844  0  1.009714  0
H  H17  1  0.64894170  0.60345518  0.41954391  1  0  0.042445  0  0.943285  0  0  0.053538  0  1.004268  0  0  0.05436  0  1.004649  0  0.064884  0  0.101799  0.052855  0  1.004321  0
H  H18  1  0.04548971  0.39655064  0.58045733  1  0  0.042433  0  0.943304  0  0  0.053557  0  1.00429  0  0  0.054405  0  1.004642  0  0.055052  0  0.10181  0.052836  0  1.004382  0
H  H19  1  0.91760328  0.70396974  0.41223687  1  0  0.103631  0  0.976209  0  0  0.12063  0  1.042295  0  0  0.122199  0  1.042663  0  0.026543  0  0.085748  0.119546  0  1.041974  0
H  H20  1  0.21363753  0.29603716  0.58776449  1  0  0.103608  0  0.97619  0  0  0.120596  0  1.042292  0  0  0.122184  0  1.042642  0  -0.00754  0  0.085754  0.119514  0  1.041968  0
H  H21  1  0.89134803  0.81003979  0.51805243  1  0  0.123635  0  0.963101  0  0  0.14231  0  1.025573  0  0  0.143577  0  1.026446  0  0.049027  0  0.092264  0.141393  0  1.024896  0
H  H22  1  0.08130979  0.18996386  0.48195005  1  0  0.123635  0  0.963146  0  0  0.142309  0  1.025615  0  0  0.143576  0  1.026489  0  0.049724  0  0.092271  0.14139  0  1.024943  0
H  H23  1  0.94156560  0.87906492  0.40141477  1  0  0.131563  0  0.948721  0  0  0.151263  0  1.009199  0  0  0.153716  0  1.007946  0  0.091945  0  0.094209  0.149444  0  1.010108  0
H  H24  1  0.06250228  0.12094307  0.59858898  1  0  0.13148  0  0.948776  0  0  0.151237  0  1.009206  0  0  0.153691  0  1.007952  0  0.088099  0  0.094196  0.149419  0  1.010115  0
H  H25  1  0.28974413  0.63877305  0.53718859  1  0  0.108459  0  0.956149  0  0  0.119584  0  1.013436  0  0  0.121604  0  1.013073  0  0.113133  0  0.117741  0.118198  0  1.013683  0
H  H26  1  0.65097006  0.36123168  0.46281552  1  0  0.108713  0  0.95643  0  0  0.119855  0  1.013637  0  0  0.121874  0  1.013273  0  0.113638  0  0.117854  0.118466  0  1.013887  0
H  H27  1  0.22829817  0.84835686  0.31232051  1  0  0.099177  0  0.965533  0  0  0.107109  0  1.031908  0  0  0.109799  0  1.028593  0  0.168677  0  0.131629  0.105005  0  1.034383  0
H  H28  1  0.37994249  0.15164570  0.68768033  1  0  0.099198  0  0.96555  0  0  0.107116  0  1.031932  0  0  0.109807  0  1.028616  0  0.158171  0  0.131634  0.105012  0  1.034409  0
H  H29  1  0.89172037  0.56753769  0.26956145  1  0  0.085195  0  0.940387  0  0  0.098916  0  1.005542  0  0  0.100023  0  1.003855  0  0.085603  0  0.111251  0.0981  0  1.006724  0
H  H30  1  0.32417933  0.43246160  0.73043599  1  0  0.08517  0  0.940396  0  0  0.09887  0  1.005561  0  0  0.099975  0  1.003882  0  0.085843  0  0.111223  0.098052  0  1.00675  0
H  H31  1  0.95781513  0.44311115  0.22897985  1  0  0.116216  0  0.932592  0  0  0.130247  0  0.993694  0  0  0.132412  0  0.991402  0  0.118296  0  0.120465  0.12852  0  0.995646  0
H  H32  1  0.51470163  0.55688596  0.77102108  1  0  0.116205  0  0.932668  0  0  0.13023  0  0.993746  0  0  0.132396  0  0.991453  0  0.128599  0  0.120476  0.128505  0  0.995697  0
H  H33  1  0.18676007  0.53767737  0.11772634  1  0  0.101617  0  0.948072  0  0  0.114142  0  1.009996  0  0  0.117295  0  1.008199  0  0.054585  0  0.104655  0.111752  0  1.011485  0
H  H34  1  0.64907903  0.46231866  0.88226843  1  0  0.101572  0  0.948086  0  0  0.114114  0  1.009996  0  0  0.117267  0  1.008198  0  0.070295  0  0.104652  0.111723  0  1.011486  0
H  H35  1  0.21551819  0.84705858  0.93218544  1  0  0.092734  0  0.963743  0  0  0.102086  0  1.028409  0  0  0.103972  0  1.029266  0  0.092399  0  0.09923  0.100642  0  1.028076  0
H  H36  1  0.36845905  0.15293853  0.06781248  1  0  0.092736  0  0.963754  0  0  0.102068  0  1.028453  0  0  0.103954  0  1.029311  0  0.08007  0  0.099228  0.100625  0  1.028117  0
H  H37  1  0.02544228  0.87960469  0.02830846  1  0  0.081608  0  0.95915  0  0  0.09468  0  1.01529  0  0  0.097136  0  1.014347  0  0.037797  0  0.099514  0.09275  0  1.016406  0
H  H38  1  0.14583346  0.12039025  0.97169146  1  0  0.081577  0  0.959097  0  0  0.094644  0  1.015248  0  0  0.097101  0  1.014304  0  0.054454  0  0.0995  0.092715  0  1.016364  0
H  H39  1  0.92058243  0.74796745  0.17433691  1  0  0.111777  0  0.957085  0  0  0.117196  0  1.026556  0  0  0.120844  0  1.0245  0  0.094603  0  0.105899  0.114472  0  1.028245  0
H  H40  1  0.17260632  0.25202532  0.82566349  1  0  0.111818  0  0.957044  0  0  0.117245  0  1.026489  0  0  0.120902  0  1.024425  0  0.091588  0  0.10591  0.114521  0  1.02818  0
H  H41  1  0.31383721  0.56289416  0.95421834  1  0  0.083328  0  0.918411  0  0  0.101076  0  0.974325  0  0  0.101365  0  0.9749  0  0.064577  0  0.111161  0.100513  0  0.974399  0
H  H42  1  0.75094405  0.43710622  0.04577847  1  0  0.083351  0  0.918415  0  0  0.1011  0  0.974352  0  0  0.101388  0  0.974929  0  0.104229  0  0.111173  0.100537  0  0.974425  0
H  H43  1  0.34703833  0.70882658  0.88958552  1  0  0.096899  0  0.957256  0  0  0.108767  0  1.022697  0  0  0.110142  0  1.02175  0  0.107114  0  0.11233  0.107743  0  1.023313  0
H  H44  1  0.63821084  0.29117489  0.11041067  1  0  0.096982  0  0.957175  0  0  0.108806  0  1.022684  0  0  0.110181  0  1.021737  0  0.114536  0  0.112336  0.107781  0  1.023301  0
H  H45  1  0.42869833  0.86820860  0.15927212  1  0  0.099068  0  0.96064  0  0  0.105802  0  1.028255  0  0  0.108009  0  1.026145  0  0.129221  0  0.131203  0.104191  0  1.029466  0
H  H46  1  0.56049185  0.13179069  0.84072606  1  0  0.099023  0  0.960627  0  0  0.10575  0  1.028252  0  0  0.107958  0  1.026143  0  0.12835  0  0.131184  0.104139  0  1.029462  0
H  H47  1  0.83842808  0.90411412  0.07979893  1  0  0.095789  0  0.962356  0  0  0.10923  0  1.017972  0  0  0.110974  0  1.017562  0  0.086346  0  0.117099  0.107583  0  1.018709  0
H  H48  1  0.93430753  0.09589061  0.92020518  1  0  0.095965  0  0.962479  0  0  0.109384  0  1.018082  0  0  0.111129  0  1.017669  0  0.093733  0  0.1172  0.107736  0  1.01882  0
C  C49  1  0.11826180  0.55036629  0.40583003  1  0  -0.068093  0  3.654146  0  0  -0.105744  0  3.910658  0  0  -0.104752  0  3.929005  0  0.22439  0  0.000452  -0.106362  0  3.898421  0
C  C50  1  0.56789789  0.44965585  0.59417468  1  0  -0.068271  0  3.653372  0  0  -0.105819  0  3.90993  0  0  -0.104826  0  3.92827  0  0.255626  0  0.000443  -0.106439  0  3.897697  0
C  C51  1  0.61472143  0.77594293  0.99427604  1  0  -0.069785  0  3.650575  0  0  -0.111058  0  3.909354  0  0  -0.109522  0  3.92742  0  0.320207  0  -0.000345  -0.112205  0  3.897492  0
C  C52  1  0.83878179  0.22406724  0.00573249  1  0  -0.069779  0  3.650204  0  0  -0.111053  0  3.90894  0  0  -0.109516  0  3.927005  0  0.310452  0  -0.000341  -0.112201  0  3.897081  0
C  C53  1  0.53549259  0.15798254  0.28955433  1  0  0.635408  0  3.943045  0  0  0.584634  0  4.235025  0  0  0.619297  0  4.228099  0  1.564665  0  0.195502  0.56085  0  4.239065  0
C  C54  1  0.37750744  0.84202001  0.71044575  1  0  0.635285  0  3.943108  0  0  0.584593  0  4.235002  0  0  0.619256  0  4.228073  0  1.564898  0  0.19543  0.560808  0  4.239039  0
C  C55  1  0.06040530  0.18554341  0.26510206  1  0  0.618126  0  3.959315  0  0  0.574454  0  4.241883  0  0  0.608285  0  4.236782  0  1.522377  0  0.189152  0.551352  0  4.244347  0
C  C56  1  0.87485789  0.81445371  0.73489887  1  0  0.618139  0  3.959404  0  0  0.574492  0  4.241968  0  0  0.608324  0  4.236864  0  1.529863  0  0.189151  0.551389  0  4.24443  0
C  C57  1  0.45260448  0.23844077  0.27706749  1  0  -0.075005  0  3.796096  0  0  -0.048275  0  4.034238  0  0  -0.057171  0  4.057232  0  0.00362  0  -0.023781  -0.042899  0  4.019551  0
C  C58  1  0.21415952  0.76155744  0.72293131  1  0  -0.074727  0  3.795724  0  0  -0.048095  0  4.033938  0  0  -0.056989  0  4.056926  0  -0.045346  0  -0.023789  -0.042718  0  4.019249  0
C  C59  1  0.29803121  0.17262378  0.27825178  1  0  -0.06936  0  3.691267  0  0  -0.107758  0  3.939207  0  0  -0.105106  0  3.957185  0  0.015171  0  -0.078551  -0.110005  0  3.92844  0
C  C60  1  0.12540392  0.82737551  0.72174791  1  0  -0.069431  0  3.69121  0  0  -0.107801  0  3.939159  0  0  -0.105144  0  3.957133  0  -0.009921  0  -0.078555  -0.110048  0  3.928393  0
C  C61  1  0.22583736  0.25185555  0.26406575  1  0  -0.053352  0  3.770431  0  0  -0.026377  0  4.001031  0  0  -0.034828  0  4.024143  0  -0.124233  0  -0.018968  -0.021159  0  3.986471  0
C  C62  1  0.97397602  0.74813830  0.73593328  1  0  -0.053404  0  3.770488  0  0  -0.026499  0  4.001173  0  0  -0.034957  0  4.024294  0  -0.045369  0  -0.019  -0.021279  0  3.986613  0
C  C63  1  0.30963434  0.39805785  0.25314184  1  0  -0.107627  0  3.708028  0  0  -0.141078  0  3.95259  0  0  -0.140351  0  3.972356  0  0.003753  0  -0.082324  -0.140778  0  3.939456  0
C  C64  1  0.91157376  0.60193926  0.74685909  1  0  -0.1076  0  3.707915  0  0  -0.141081  0  3.952458  0  0  -0.140359  0  3.972226  0  -0.034834  0  -0.082369  -0.140779  0  3.939325  0
C  C65  1  0.46430450  0.46582389  0.25430477  1  0  0.050175  0  3.775265  0  0  0.074326  0  4.01424  0  0  0.071515  0  4.038362  0  0.047469  0  -0.019275  0.075761  0  3.997652  0
C  C66  1  0.99847590  0.53417540  0.74569718  1  0  0.050044  0  3.775225  0  0  0.074374  0  4.014038  0  0  0.071548  0  4.038152  0  -0.03085  0  -0.01927  0.075803  0  3.997453  0
C  C67  1  0.53412414  0.38420995  0.26487902  1  0  -0.113196  0  3.731448  0  0  -0.149756  0  3.983737  0  0  -0.148367  0  4.00165  0  -0.122394  0  -0.085677  -0.149101  0  3.970746  0
C  C68  1  0.14991209  0.61579152  0.73512093  1  0  -0.113236  0  3.731371  0  0  -0.149839  0  3.983627  0  0  -0.148446  0  4.00155  0  -0.0614  0  -0.085668  -0.149182  0  3.970632  0
C  C69  1  0.55293723  0.62330149  0.24220212  1  0  0.037936  0  3.674731  0  0  -0.023966  0  3.93992  0  0  -0.016655  0  3.944409  0  0.445463  0  -0.073504  -0.029111  0  3.93716  0
C  C70  1  0.92963378  0.37669889  0.75779920  1  0  0.038001  0  3.674662  0  0  -0.024044  0  3.939953  0  0  -0.016682  0  3.944375  0  0.413013  0  -0.073514  -0.029184  0  3.93718  0
C  C71  1  0.71254239  0.71160269  0.39725528  1  0  0.100137  0  3.654803  0  0  0.084651  0  3.90396  0  0  0.086225  0  3.91248  0  0.439226  0  -0.005611  0.083302  0  3.898951  0
C  C72  1  0.00094303  0.28840313  0.60274595  1  0  0.100175  0  3.654607  0  0  0.084554  0  3.904024  0  0  0.086114  0  3.912554  0  0.447519  0  -0.005621  0.083229  0  3.898998  0
C  C73  1  0.64643692  0.80254941  0.45149938  1  0  0.656957  0  3.818693  0  0  0.605573  0  4.112066  0  0  0.640178  0  4.104844  0  1.571205  0  0.211253  0.581614  0  4.11642  0
C  C74  1  0.84388891  0.19745206  0.54850283  1  0  0.656951  0  3.818584  0  0  0.605616  0  4.111958  0  0  0.64021  0  4.104758  0  1.575294  0  0.211253  0.581658  0  4.116303  0
C  C75  1  0.87620314  0.78054185  0.43453324  1  0  -0.339387  0  3.658662  0  0  -0.417414  0  3.892886  0  0  -0.420499  0  3.901147  0  -0.0747  0  -0.249314  -0.414828  0  3.887089  0
C  C76  1  0.09566497  0.21946506  0.56546888  1  0  -0.339278  0  3.658637  0  0  -0.417299  0  3.892897  0  0  -0.420401  0  3.901146  0  -0.037241  0  -0.249296  -0.414716  0  3.887092  0
C  C77  1  0.23792300  0.65245119  0.47189683  1  0  0.000881  0  3.751789  0  0  -0.033288  0  4.017833  0  0  -0.031956  0  4.040238  0  0.440244  0  -0.006281  -0.033861  0  4.002352  0
C  C78  1  0.58548076  0.34754484  0.52809268  1  0  0.00047  0  3.751427  0  0  -0.03373  0  4.017454  0  0  -0.032397  0  4.039854  0  0.437629  0  -0.006474  -0.034304  0  4.001979  0
C  C79  1  0.21072999  0.76513885  0.35671657  1  0  0.15642  0  3.666614  0  0  0.097802  0  3.926196  0  0  0.111372  0  3.939835  0  0.962577  0  0.136766  0.089315  0  3.916517  0
C  C80  1  0.44559220  0.23486262  0.64328263  1  0  0.156256  0  3.666932  0  0  0.09775  0  3.926552  0  0  0.111316  0  3.940195  0  0.96374  0  0.136758  0.089262  0  3.916871  0
C  C81  1  0.98953322  0.55881977  0.24588352  1  0  -0.054864  0  3.623825  0  0  -0.123404  0  3.873333  0  0  -0.118516  0  3.882234  0  0.263798  0  -0.047274  -0.126522  0  3.867183  0
C  C82  1  0.43070970  0.44117843  0.75411678  1  0  -0.054927  0  3.623818  0  0  -0.123324  0  3.873314  0  0  -0.11844  0  3.882221  0  0.253657  0  -0.047247  -0.126431  0  3.86714  0
C  C83  1  0.04720304  0.63430037  0.15538635  1  0  0.065893  0  3.778234  0  0  0.085706  0  4.024388  0  0  0.084166  0  4.050178  0  -0.046133  0  -0.013428  0.086924  0  4.006561  0
C  C84  1  0.41290030  0.36569566  0.84461219  1  0  0.066012  0  3.778147  0  0  0.085803  0  4.024307  0  0  0.084266  0  4.050098  0  -0.023967  0  -0.013364  0.087022  0  4.006482  0
C  C85  1  0.15188097  0.61365856  0.09851047  1  0  -0.165361  0  3.712175  0  0  -0.197808  0  3.963152  0  0  -0.200682  0  3.984279  0  -0.068156  0  -0.089601  -0.195465  0  3.948303  0
C  C86  1  0.53821886  0.38633638  0.90148568  1  0  -0.165256  0  3.712215  0  0  -0.197773  0  3.963143  0  0  -0.200647  0  3.984267  0  -0.078406  0  -0.089654  -0.195429  0  3.948289  0
C  C87  1  0.21508574  0.69114588  0.01923528  1  0  0.064538  0  3.779714  0  0  0.089454  0  4.016011  0  0  0.088213  0  4.040973  0  -0.003213  0  -0.012725  0.090338  0  3.998768  0
C  C88  1  0.52393847  0.30885015  0.98076101  1  0  0.064318  0  3.779845  0  0  0.089456  0  4.015896  0  0  0.088213  0  4.040859  0  0.001722  0  -0.012744  0.090337  0  3.998658  0
C  C89  1  0.16854615  0.78725523  0.99459154  1  0  -0.108039  0  3.737715  0  0  -0.131649  0  3.983252  0  0  -0.13422  0  4.006502  0  -0.085196  0  -0.088209  -0.129949  0  3.967931  0
C  C90  1  0.38128295  0.21273862  0.00540598  1  0  -0.107969  0  3.737755  0  0  -0.131641  0  3.983272  0  0  -0.134211  0  4.006519  0  -0.080003  0  -0.088191  -0.12994  0  3.967952  0
C  C91  1  0.06140392  0.80538319  0.04897132  1  0  -0.059298  0  3.78606  0  0  -0.069843  0  4.034449  0  0  -0.072278  0  4.057299  0  0.051125  0  -0.091216  -0.068404  0  4.019108  0
C  C92  1  0.25601578  0.19460957  0.95102683  1  0  -0.059174  0  3.785935  0  0  -0.069713  0  4.034331  0  0  -0.072144  0  4.057175  0  0.004585  0  -0.091177  -0.068274  0  4.01899  0
C  C93  1  0.00158770  0.73074925  0.12992222  1  0  -0.12296  0  3.722906  0  0  -0.145065  0  3.971514  0  0  -0.147536  0  3.992567  0  -0.105682  0  -0.088708  -0.143028  0  3.956905  0
C  C94  1  0.27083197  0.26924569  0.87007769  1  0  -0.123136  0  3.722764  0  0  -0.145229  0  3.971376  0  0  -0.147711  0  3.992424  0  -0.078951  0  -0.088749  -0.143195  0  3.956772  0
C  C95  1  0.33651740  0.67629353  0.96500380  1  0  -0.041311  0  3.626939  0  0  -0.106456  0  3.868614  0  0  -0.101747  0  3.878423  0  0.285344  0  -0.047885  -0.109538  0  3.862263  0
C  C96  1  0.66022340  0.32370577  0.03499213  1  0  -0.041412  0  3.626952  0  0  -0.10664  0  3.86869  0  0  -0.101932  0  3.878504  0  0.234089  0  -0.047933  -0.109724  0  3.862342  0
C  C97  1  0.51126845  0.85381005  0.11639965  1  0  0.148671  0  3.680821  0  0  0.08914  0  3.944751  0  0  0.102651  0  3.958625  0  0.973112  0  0.135929  0.08044  0  3.934623  0
C  C98  1  0.65745882  0.14618924  0.88359854  1  0  0.148721  0  3.680746  0  0  0.089191  0  3.94468  0  0  0.102699  0  3.958555  0  0.970933  0  0.135961  0.080494  0  3.934548  0
C  C99  1  0.72056444  0.86827607  0.07238635  1  0  0.009712  0  3.777825  0  0  -0.02564  0  4.048377  0  0  -0.023338  0  4.069202  0  0.405952  0  -5e-06  -0.026844  0  4.033947  0
C  C100  1  0.85229207  0.13171669  0.92761255  1  0  0.009468  0  3.777633  0  0  -0.025872  0  4.048182  0  0  -0.023573  0  4.069006  0  0.424116  0  -0.000136  -0.027077  0  4.033756  0
N  N101  1  0.29411058  0.78586227  0.44066014  1  0  -0.383443  0  3.257916  0  0  -0.304398  0  3.537443  0  0  -0.326317  0  3.555632  0  -1.201125  0  -0.359049  -0.289475  0  3.524438  0
N  N102  1  0.50824816  0.21414137  0.55934309  1  0  -0.3833  0  3.258161  0  0  -0.304242  0  3.537634  0  0  -0.32616  0  3.555829  0  -1.220574  0  -0.358998  -0.289319  0  3.524626  0
N  N103  1  0.65486963  0.91595530  0.14744454  1  0  -0.393457  0  3.301449  0  0  -0.320469  0  3.59297  0  0  -0.342218  0  3.610074  0  -1.20589  0  -0.362093  -0.305245  0  3.580724  0
N  N104  1  0.73891177  0.08404399  0.85255665  1  0  -0.393407  0  3.301449  0  0  -0.320403  0  3.59293  0  0  -0.342152  0  3.610039  0  -1.220672  0  -0.362051  -0.305178  0  3.58068  0
N  N105  1  0.10345424  0.62349302  0.33281278  1  0  -0.059314  0  3.56018  0  0  0.036426  0  3.775182  0  0  0.021457  0  3.8015  0  -1.228087  0  -0.241635  0.046381  0  3.757047  0
N  N106  1  0.47995557  0.37650192  0.66718788  1  0  -0.058941  0  3.559812  0  0  0.036478  0  3.775103  0  0  0.021509  0  3.801426  0  -1.228317  0  -0.241599  0.046433  0  3.756968  0
N  N107  1  0.48233587  0.76733819  0.02379297  1  0  -0.053894  0  3.542931  0  0  0.042745  0  3.757855  0  0  0.028269  0  3.783179  0  -1.208573  0  -0.237602  0.052277  0  3.740857  0
N  N108  1  0.71499471  0.23266110  0.97620446  1  0  -0.053843  0  3.542728  0  0  0.042806  0  3.757669  0  0  0.02833  0  3.782995  0  -1.214695  0  -0.237597  0.052337  0  3.740672  0
O  O109  1  0.66806907  0.21385081  0.26236792  1  0  -0.631208  0  1.989654  0  0  -0.569283  0  2.237742  0  0  -0.597736  0  2.227844  0  -1.159014  0  -0.327198  -0.548706  0  2.245386  0
O  O110  1  0.45421666  0.78615175  0.73763141  1  0  -0.631173  0  1.989734  0  0  -0.569279  0  2.237783  0  0  -0.597729  0  2.227876  0  -1.154842  0  -0.327146  -0.548716  0  2.24546  0
O  O111  1  0.47182039  0.03990917  0.32531301  1  0  -0.676774  0  2.017577  0  0  -0.613433  0  2.273383  0  0  -0.640653  0  2.26154  0  -1.205451  0  -0.336115  -0.593618  0  2.280267  0
O  O112  1  0.43190920  0.96009448  0.67468871  1  0  -0.676797  0  2.017686  0  0  -0.613468  0  2.273447  0  0  -0.64069  0  2.261604  0  -1.201715  0  -0.336098  -0.593652  0  2.28033  0
O  O113  1  0.98933918  0.06728721  0.30123060  1  0  -0.646073  0  1.954605  0  0  -0.583803  0  2.192333  0  0  -0.613219  0  2.182816  0  -1.156669  0  -0.332911  -0.562249  0  2.198637  0
O  O114  1  0.92205247  0.93270882  0.69876944  1  0  -0.646004  0  1.954793  0  0  -0.583739  0  2.192514  0  0  -0.613154  0  2.182995  0  -1.163627  0  -0.332878  -0.562183  0  2.198817  0
O  O115  1  0.99710828  0.25067372  0.23283199  1  0  -0.651606  0  1.947342  0  0  -0.597577  0  2.183668  0  0  -0.62398  0  2.174008  0  -1.178542  0  -0.334616  -0.577533  0  2.19068  0
O  O116  1  0.74642908  0.74932231  0.76716881  1  0  -0.651652  0  1.94723  0  0  -0.59762  0  2.183521  0  0  -0.624031  0  2.17388  0  -1.183454  0  -0.334619  -0.577574  0  2.190532  0
O  O117  1  0.70233576  0.69694622  0.28822538  1  0  -0.312594  0  2.232374  0  0  -0.2508  0  2.480191  0  0  -0.264754  0  2.48048  0  -1.048593  0  -0.22342  -0.241047  0  2.480773  0
O  O118  1  0.00539063  0.30305851  0.71177572  1  0  -0.312614  0  2.232312  0  0  -0.250816  0  2.480254  0  0  -0.264784  0  2.480532  0  -1.052132  0  -0.223427  -0.241046  0  2.480811  0
O  O119  1  0.63152704  0.89275830  0.40576175  1  0  -0.675855  0  2.156866  0  0  -0.593021  0  2.424241  0  0  -0.625984  0  2.412554  0  -1.172851  0  -0.32563  -0.569146  0  2.430832  0
O  O120  1  0.73877111  0.10724426  0.59424134  1  0  -0.675836  0  2.156892  0  0  -0.593001  0  2.424234  0  0  -0.62597  0  2.412567  0  -1.177624  0  -0.325621  -0.569129  0  2.430825  0
O  O121  1  0.60891319  0.78068441  0.54054713  1  0  -0.649671  0  2.009068  0  0  -0.589246  0  2.264948  0  0  -0.617428  0  2.253121  0  -1.187888  0  -0.328476  -0.569378  0  2.273291  0
O  O122  1  0.82822861  0.21931706  0.45945358  1  0  -0.649698  0  2.009033  0  0  -0.589254  0  2.264875  0  0  -0.617438  0  2.253058  0  -1.185409  0  -0.328481  -0.569377  0  2.273188  0
