# generated using pymatgen
data_NiH14C14(NO3)2
_symmetry_space_group_name_H-M   'P 1'
_cell_length_a   7.94260446
_cell_length_b   11.84177838
_cell_length_c   15.43598336
_cell_angle_alpha   90.23012033
_cell_angle_beta   89.72480968
_cell_angle_gamma   89.92116826
_symmetry_Int_Tables_number   1
_chemical_formula_structural   NiH14C14(NO3)2
_chemical_formula_sum   'Ni4 H56 C56 N8 O24'
_cell_volume   1451.79478350
_cell_formula_units_Z   4
loop_
 _symmetry_equiv_pos_site_id
 _symmetry_equiv_pos_as_xyz
  1  'x, y, z'
loop_
 _atom_site_type_symbol
 _atom_site_label
 _atom_site_symmetry_multiplicity
 _atom_site_fract_x
 _atom_site_fract_y
 _atom_site_fract_z
 _atom_site_occupancy
 _atom_site_hle17_ddec_charge
 _atom_site_hle17_ddec_spin_density
 _atom_site_hle17_ddec_sum_bond_order
 _atom_site_hle17_magmom
 _atom_site_hse06_10hf_ddec_charge
 _atom_site_hse06_10hf_ddec_spin_density
 _atom_site_hse06_10hf_ddec_sum_bond_order
 _atom_site_hse06_10hf_magmom
 _atom_site_hse06_ddec_charge
 _atom_site_hse06_ddec_spin_density
 _atom_site_hse06_ddec_sum_bond_order
 _atom_site_hse06_magmom
 _atom_site_pbe_cm5_charge
 _atom_site_pbe_ddec_charge
 _atom_site_pbe_ddec_spin_density
 _atom_site_pbe_ddec_sum_bond_order
 _atom_site_pbe_magmom
Ni  Ni0  1  0.99999841  0.50000238  0.00000075  1  0.82732  2.017802  2.002245  1.506  0.831635  2.015272  2.387755  1.628  0.922428  2.07777  2.313898  1.714  0.630553  0.764657  1.955796  2.441357  1.549
Ni  Ni1  1  0.49999662  0.50000084  0.49999959  1  0.827728  -1.874466  2.001164  -1.506  0.832505  -1.913274  2.386732  -1.628  0.923365  -1.973369  2.312919  -1.715  0.630161  0.765256  -1.855531  2.440286  -1.549
Ni  Ni2  1  0.49999118  0.00000018  0.00000161  1  0.827328  -1.874782  2.000161  -1.506  0.831894  -1.913322  2.385473  -1.628  0.922872  -1.973416  2.311583  -1.715  0.629477  0.764615  -1.856185  2.439321  -1.549
Ni  Ni3  1  0.00000199  0.99999863  0.49999849  1  0.752435  -0.047062  1.99347  -0.051  0.758494  0.000216  2.381612  -0.012  0.86085  0.016311  2.303566  0.002  0.604484  0.687805  -0.015809  2.438099  -0.024
H  H4  1  0.83570635  0.60046937  0.15612831  1  0.083991  0.00081  0.938129  0.002  0.093109  0.00056  0.999964  0.001  0.095295  0.000399  0.998111  0.001  0.118323  0.091223  0.000709  1.001817  0.001
H  H5  1  0.66327234  0.39979416  0.65503778  1  0.085032  -0.00076  0.938027  -0.002  0.094283  -0.000545  0.999485  -0.001  0.096493  -0.00039  0.99759  -0.001  0.118701  0.092335  -0.00069  1.00143  -0.001
H  H6  1  0.33622869  0.89954631  0.84429722  1  0.084855  -0.00074  0.93722  -0.002  0.093916  -0.00054  0.998849  -0.001  0.096064  -0.000382  0.997029  -0.001  0.118797  0.09207  -0.000688  1.000655  -0.001
H  H7  1  0.16316010  0.10141617  0.34772175  1  0.089074  -0.000157  0.937557  0.0  0.098017  -0.000157  0.998571  0.0  0.099799  -0.000119  0.996982  0.0  0.121115  0.096409  -0.000247  1.000244  0.0
H  H8  1  0.16429946  0.39954498  0.84387477  1  0.084127  0.00081  0.938132  0.002  0.093215  0.00056  0.999976  0.001  0.095416  0.000399  0.998116  0.001  0.118321  0.091329  0.000709  1.001827  0.001
H  H9  1  0.33672344  0.60019822  0.34496009  1  0.084905  -0.00076  0.937883  -0.002  0.094147  -0.000544  0.999389  -0.001  0.096356  -0.00039  0.997494  -0.001  0.118631  0.092222  -0.00069  1.00131  -0.001
H  H10  1  0.66374694  0.10044947  0.15570327  1  0.084817  -0.00074  0.937383  -0.002  0.093908  -0.000539  0.998972  -0.001  0.096065  -0.000382  0.997154  -0.001  0.118793  0.09207  -0.000688  1.000765  -0.001
H  H11  1  0.83683821  0.89858296  0.65227224  1  0.08915  -0.000157  0.93744  0.0  0.098072  -0.000157  0.998477  0.0  0.099853  -0.000119  0.996888  0.0  0.121129  0.096465  -0.000246  1.000149  0.0
H  H12  1  0.02345834  0.28311162  0.09658096  1  0.079491  0.000803  0.971882  0.002  0.086098  0.000509  1.037784  0.001  0.088801  0.000359  1.034853  0.001  0.11738  0.083761  0.000652  1.040382  0.001
H  H13  1  0.47713053  0.71735024  0.59775136  1  0.080992  -0.000768  0.965547  -0.002  0.087431  -0.000541  1.031219  -0.001  0.09019  -0.000379  1.028249  -0.001  0.118391  0.084975  -0.000697  1.033948  -0.001
H  H14  1  0.52343272  0.21667593  0.90300822  1  0.079925  -0.000724  0.971012  -0.002  0.086475  -0.000473  1.03692  -0.001  0.08918  -0.000331  1.033972  -0.001  0.117601  0.084164  -0.000607  1.039484  -0.001
H  H15  1  0.97545194  0.78417429  0.40569300  1  0.083763  -0.000114  0.97164  0.0  0.089684  -0.000194  1.037842  0.0  0.092037  -0.000142  1.035053  0.0  0.119648  0.087547  -0.000293  1.040406  0.0
H  H16  1  0.97653741  0.71689682  0.90341952  1  0.079599  0.000803  0.97203  0.002  0.086243  0.000509  1.037864  0.001  0.088946  0.000359  1.034934  0.001  0.117462  0.08391  0.000652  1.040453  0.001
H  H17  1  0.52286270  0.28264722  0.40225235  1  0.081109  -0.000768  0.965433  -0.002  0.087503  -0.000541  1.031154  -0.001  0.090268  -0.000379  1.02817  -0.001  0.11838  0.085042  -0.000697  1.033891  -0.001
H  H18  1  0.47656557  0.78332321  0.09699095  1  0.079975  -0.000724  0.970982  -0.002  0.086553  -0.000473  1.036855  -0.001  0.08926  -0.000331  1.033901  -0.001  0.117613  0.084242  -0.000607  1.039417  -0.001
H  H19  1  0.02455766  0.21582486  0.59431005  1  0.083712  -0.000114  0.971648  0.0  0.089694  -0.000194  1.037776  0.0  0.092047  -0.000142  1.034991  0.0  0.119665  0.087559  -0.000293  1.040339  0.0
H  H20  1  0.75990083  0.54141340  0.30755825  1  0.111664  0.000354  0.948168  0.0  0.121627  0.000402  1.006834  0.0  0.124497  0.0003  1.006729  0.0  0.107084  0.119379  0.000499  1.007265  0.0
H  H21  1  0.73928606  0.45902262  0.80634421  1  0.112007  -0.000327  0.946023  0.0  0.121977  -0.000389  1.004616  0.0  0.124828  -0.000291  1.004556  0.0  0.107515  0.11975  -0.000486  1.005009  0.0
H  H22  1  0.26043548  0.95858055  0.69327194  1  0.112966  -0.000252  0.947072  0.0  0.123008  -0.000337  1.005468  0.0  0.12578  -0.000232  1.005467  0.0  0.107493  0.120814  -0.000445  1.005827  0.0
H  H23  1  0.23876984  0.04193453  0.19616440  1  0.112851  2.2e-05  0.945529  0.0  0.122483  -3e-05  1.004073  0.0  0.125161  -7e-06  1.00423  0.0  0.108509  0.120425  -8.2e-05  1.004242  0.0
H  H24  1  0.24012007  0.45860179  0.69244805  1  0.111722  0.000354  0.948149  0.0  0.121653  0.000402  1.006848  0.0  0.124525  0.000301  1.00674  0.0  0.107106  0.119406  0.000499  1.007276  0.0
H  H25  1  0.26071980  0.54097144  0.19365171  1  0.111979  -0.000327  0.946131  0.0  0.12196  -0.000389  1.004724  0.0  0.12481  -0.000291  1.004669  0.0  0.107508  0.119732  -0.000486  1.005116  0.0
H  H26  1  0.73955904  0.04141268  0.30672658  1  0.112995  -0.000252  0.946999  0.0  0.123033  -0.000337  1.005405  0.0  0.125808  -0.000232  1.005401  0.0  0.10747  0.120837  -0.000444  1.005768  0.0
H  H27  1  0.76122092  0.95806207  0.80383024  1  0.112732  2.1e-05  0.945558  0.0  0.122417  -3e-05  1.00407  0.0  0.125103  -7e-06  1.004203  0.0  0.108488  0.120357  -8.2e-05  1.004245  0.0
H  H28  1  0.95454655  0.21033343  0.24475776  1  0.100582  0.000288  0.954284  0.0  0.1114  0.000345  1.012624  0.0  0.114165  0.000246  1.012498  0.0  0.105234  0.109301  0.000442  1.013062  0.0
H  H29  1  0.54591060  0.79027860  0.74589570  1  0.099687  -0.000265  0.955978  0.0  0.110341  -0.000356  1.014798  0.0  0.113116  -0.000248  1.014593  0.0  0.105032  0.10822  -0.000462  1.015301  0.0
H  H30  1  0.45453560  0.28960046  0.75528743  1  0.100546  -0.000264  0.954014  0.0  0.111462  -0.000345  1.011997  0.0  0.114209  -0.000241  1.011854  0.0  0.105659  0.109359  -0.000447  1.01247  0.0
H  H31  1  0.04460172  0.71122172  0.25731814  1  0.102021  -7.3e-05  0.95188  0.0  0.112936  -8.2e-05  1.00954  0.0  0.11552  -5.8e-05  1.009593  0.0  0.106703  0.11097  -0.000137  1.009847  0.0
H  H32  1  0.04546052  0.78967923  0.75524596  1  0.100637  0.000287  0.954207  0.0  0.111413  0.000345  1.012571  0.0  0.114177  0.000246  1.012451  0.0  0.105291  0.109318  0.000442  1.013008  0.0
H  H33  1  0.45408893  0.20970957  0.25410799  1  0.099723  -0.000265  0.955824  0.0  0.11032  -0.000356  1.014732  0.0  0.113095  -0.000248  1.014529  0.0  0.105054  0.1082  -0.000462  1.015236  0.0
H  H34  1  0.54548159  0.71039021  0.24470912  1  0.100555  -0.000264  0.95392  0.0  0.11144  -0.000346  1.011955  0.0  0.114185  -0.000241  1.011819  0.0  0.105645  0.109368  -0.000447  1.012387  0.0
H  H35  1  0.95540285  0.28877405  0.74268556  1  0.101919  -7.3e-05  0.951904  0.0  0.112909  -8.2e-05  1.009481  0.0  0.115442  -5.8e-05  1.00959  0.0  0.106675  0.110943  -0.000137  1.009784  0.0
H  H36  1  0.82139253  0.34177797  0.35250157  1  0.098615  1.8e-05  0.977117  0.001  0.108216  -0.000395  1.040255  0.0  0.111894  -0.000264  1.036545  0.0  0.106056  0.105142  -0.00051  1.043534  0.0
H  H37  1  0.67857105  0.65865494  0.85258602  1  0.098251  -0.000507  0.97376  -0.001  0.108505  -0.00027  1.035805  0.0  0.112007  -0.000208  1.032443  0.0  0.10644  0.105493  -0.000326  1.038904  0.0
H  H38  1  0.32153080  0.15809112  0.64803155  1  0.099226  -0.00047  0.974337  -0.001  0.109417  -0.00023  1.035972  0.0  0.113018  -0.000185  1.032481  0.0  0.106459  0.106217  -0.000267  1.039288  0.0
H  H39  1  0.17751592  0.84266666  0.14992061  1  0.100837  0.000211  0.970481  0.0  0.110318  0.000286  1.033153  0.0  0.113699  0.000224  1.029784  0.0  0.107215  0.107443  0.000341  1.036153  0.0
H  H40  1  0.17862585  0.65823637  0.64750408  1  0.098546  1.8e-05  0.977079  0.001  0.108135  -0.000395  1.040263  0.0  0.111812  -0.000264  1.036554  0.0  0.106052  0.105066  -0.00051  1.043534  0.0
H  H41  1  0.32143733  0.34133489  0.14741053  1  0.098284  -0.000507  0.97372  -0.001  0.108501  -0.00027  1.035788  0.0  0.111979  -0.000208  1.032456  0.0  0.106429  0.105489  -0.000326  1.038885  0.0
H  H42  1  0.67849018  0.84189702  0.35196433  1  0.099179  -0.00047  0.97431  -0.001  0.109342  -0.00023  1.035952  0.0  0.112914  -0.000185  1.032529  0.0  0.106448  0.106165  -0.000267  1.03922  0.0
H  H43  1  0.82247732  0.15732573  0.85008180  1  0.100861  0.000211  0.970463  0.0  0.110262  0.000286  1.033258  0.0  0.113642  0.000224  1.029889  0.0  0.107243  0.107397  0.000341  1.03626  0.0
H  H44  1  0.00690497  0.71492944  0.04530924  1  0.408952  -0.000131  0.900431  -0.001  0.379422  0.000255  0.96549  0.0  0.391566  0.00014  0.948162  0.0  0.287154  0.370812  0.000335  0.977672  0.0
H  H45  1  0.49294692  0.28520817  0.54546883  1  0.409566  0.000219  0.899567  0.001  0.379696  -0.000202  0.965347  0.0  0.391882  -0.000112  0.947973  0.0  0.287177  0.370988  -0.00026  0.977647  0.0
H  H46  1  0.50769536  0.78506126  0.95494850  1  0.409818  0.000205  0.898708  0.001  0.38009  -0.000214  0.964512  0.0  0.392227  -0.000111  0.9472  0.0  0.287674  0.371481  -0.000282  0.976692  0.0
H  H47  1  0.99003279  0.21796472  0.45233736  1  0.40574  8.3e-05  0.907588  0.001  0.37646  -0.000317  0.970711  0.0  0.388556  -0.00015  0.953447  0.0  0.285041  0.36798  -0.000475  0.982784  0.0
H  H48  1  0.99309203  0.28507647  0.95469319  1  0.408891  -0.000131  0.900586  -0.001  0.37947  0.000255  0.965423  0.0  0.391616  0.00014  0.948084  0.0  0.287173  0.370859  0.000335  0.977605  0.0
H  H49  1  0.50705266  0.71478420  0.45452385  1  0.409556  0.000219  0.899496  0.001  0.379752  -0.000202  0.965259  0.0  0.391945  -0.000111  0.947874  0.0  0.287233  0.371041  -0.000259  0.977564  0.0
H  H50  1  0.49230041  0.21493872  0.04505003  1  0.409768  0.000205  0.898661  0.001  0.380085  -0.000214  0.964493  0.0  0.39222  -0.000111  0.947181  0.0  0.287668  0.371472  -0.000282  0.976679  0.0
H  H51  1  0.00997807  0.78203949  0.54766570  1  0.405851  8.4e-05  0.90746  0.001  0.376549  -0.000316  0.970625  0.0  0.388648  -0.000149  0.953356  0.0  0.285055  0.36806  -0.000475  0.982712  0.0
H  H52  1  0.19334258  0.67106987  0.02695451  1  0.402864  -0.00019  0.907559  -0.001  0.371787  0.000168  0.978168  0.0  0.383657  2.4e-05  0.961163  0.0  0.285814  0.363286  0.00032  0.990267  0.0
H  H53  1  0.30677897  0.32912893  0.52687376  1  0.403071  0.000258  0.907909  0.001  0.371705  -0.000123  0.978864  0.0  0.383691  1.1e-05  0.961672  0.0  0.285651  0.363125  -0.000271  0.991095  0.0
H  H54  1  0.69378014  0.82896747  0.97305487  1  0.402841  0.000268  0.90696  0.001  0.371451  -0.000126  0.978545  0.0  0.383363  8e-06  0.96147  0.0  0.285672  0.362944  -0.000268  0.990653  0.0
H  H55  1  0.80418934  0.17451286  0.47110709  1  0.401627  0.000382  0.91262  0.001  0.370047  -0.000108  0.981838  0.0  0.381989  5e-06  0.964731  0.0  0.283369  0.361502  -0.00019  0.994045  0.0
H  H56  1  0.80665696  0.32893517  0.97304402  1  0.402834  -0.00019  0.90764  -0.001  0.371795  0.000168  0.978151  0.0  0.383664  2.4e-05  0.961149  0.0  0.285841  0.363295  0.00032  0.990246  0.0
H  H57  1  0.69321553  0.67087191  0.47312801  1  0.403092  0.000258  0.907806  0.001  0.371718  -0.000124  0.978834  0.0  0.383705  1.1e-05  0.961639  0.0  0.285659  0.363129  -0.000271  0.991076  0.0
H  H58  1  0.30621435  0.17103337  0.02694755  1  0.402865  0.000269  0.906968  0.001  0.371483  -0.000126  0.978487  0.0  0.383389  8e-06  0.961421  0.0  0.285717  0.362977  -0.000268  0.990593  0.0
H  H59  1  0.19581527  0.82548373  0.52888689  1  0.40155  0.000382  0.912637  0.001  0.370077  -0.000108  0.981773  0.0  0.382021  6e-06  0.964662  0.0  0.283396  0.361536  -0.00019  0.993971  0.0
C  C60  1  0.85999565  0.51493025  0.17886230  1  0.113692  -0.009135  3.703157  -0.011  0.086726  -0.002024  3.958818  -0.003  0.095369  -0.002426  3.97755  -0.004  0.042913  0.080484  -0.002027  3.946973  -0.003
C  C61  1  0.63934691  0.48542644  0.67825997  1  0.113911  0.010011  3.7019  0.011  0.086995  0.002221  3.957505  0.003  0.095623  0.002617  3.976253  0.004  0.043357  0.080776  0.002247  3.945653  0.003
C  C62  1  0.36041525  0.98505772  0.82147787  1  0.113447  0.009912  3.702841  0.011  0.086467  0.002199  3.958552  0.003  0.095066  0.002596  3.977361  0.004  0.043219  0.080307  0.002225  3.946561  0.003
C  C63  1  0.13906609  0.01590540  0.32469139  1  0.114893  0.000737  3.685934  0.001  0.086539  3.3e-05  3.942082  0.0  0.096263  0.00016  3.961346  0.0  0.045706  0.079441  -7.6e-05  3.930283  0.0
C  C64  1  0.14001016  0.48508157  0.82114077  1  0.113635  -0.009137  3.703241  -0.011  0.086668  -0.002025  3.958763  -0.003  0.095295  -0.002426  3.977512  -0.004  0.042921  0.080421  -0.002028  3.946916  -0.003
C  C65  1  0.36064762  0.51456678  0.32173467  1  0.11394  0.010009  3.701712  0.011  0.08702  0.002219  3.957366  0.003  0.095648  0.002616  3.976119  0.004  0.043328  0.080777  0.002245  3.945511  0.003
C  C66  1  0.63957547  0.01493974  0.17852519  1  0.113534  0.009913  3.702886  0.011  0.086521  0.002198  3.958626  0.003  0.095106  0.002595  3.977448  0.004  0.043291  0.080359  0.002224  3.946628  0.003
C  C67  1  0.86092967  0.98409289  0.67530843  1  0.114742  0.000738  3.685831  0.001  0.086387  3.3e-05  3.941978  0.0  0.096107  0.000159  3.961247  0.0  0.045641  0.079293  -7.6e-05  3.930175  0.0
C  C68  1  0.96396273  0.33715650  0.14513278  1  0.124382  -0.009235  3.697507  -0.011  0.097566  -0.002078  3.950155  -0.003  0.106918  -0.00251  3.967295  -0.004  0.046329  0.090818  -0.002013  3.939564  -0.003
C  C69  1  0.53619888  0.66327354  0.64580266  1  0.125362  0.010122  3.694166  0.011  0.099345  0.002298  3.946738  0.003  0.108663  0.00272  3.96385  0.004  0.047084  0.092588  0.002263  3.93627  0.003
C  C70  1  0.46410414  0.16268115  0.85473029  1  0.124989  0.010086  3.696658  0.011  0.098045  0.002318  3.949253  0.003  0.10737  0.002729  3.966451  0.004  0.046689  0.091353  0.002295  3.938539  0.003
C  C71  1  0.03503342  0.83807471  0.35752655  1  0.125515  0.000851  3.679561  0.001  0.096954  9.9e-05  3.934251  0.0  0.10752  0.000215  3.951705  0.0  0.04877  0.089322  1.9e-05  3.923764  0.0
C  C72  1  0.03603427  0.66285447  0.85486901  1  0.124142  -0.009235  3.697822  -0.011  0.097245  -0.002077  3.950431  -0.003  0.106599  -0.002509  3.967568  -0.004  0.04608  0.090495  -0.002013  3.939841  -0.003
C  C73  1  0.46379310  0.33672139  0.35419910  1  0.125275  0.010124  3.694142  0.011  0.099296  0.002299  3.94667  0.003  0.108617  0.002721  3.963785  0.004  0.04714  0.092541  0.002264  3.936197  0.003
C  C74  1  0.53589163  0.83731546  0.14527018  1  0.124897  0.010086  3.696561  0.011  0.097933  0.002318  3.949135  0.003  0.10726  0.00273  3.966328  0.004  0.046673  0.091241  0.002295  3.938428  0.003
C  C75  1  0.96497241  0.16192443  0.64247455  1  0.125607  0.000849  3.679404  0.001  0.096999  9.9e-05  3.934086  0.0  0.107561  0.000215  3.951536  0.0  0.048832  0.089366  1.9e-05  3.923599  0.0
C  C76  1  0.81870887  0.48168463  0.26268539  1  -0.132841  0.01036  3.7392  0.011  -0.144324  0.003059  3.989675  0.004  -0.153153  0.003016  4.012897  0.004  -0.088407  -0.138569  0.003338  3.974769  0.004
C  C77  1  0.68081745  0.51878628  0.76203502  1  -0.133012  -0.009608  3.738734  -0.011  -0.144321  -0.002901  3.989382  -0.004  -0.153159  -0.002856  4.012598  -0.004  -0.087981  -0.138551  -0.003168  3.974456  -0.004
C  C78  1  0.31901825  0.01833972  0.73785109  1  -0.132062  -0.009553  3.736962  -0.011  -0.143787  -0.002891  3.987394  -0.004  -0.152587  -0.002839  4.010595  -0.004  -0.087402  -0.138058  -0.003161  3.972509  -0.004
C  C79  1  0.18017880  0.98228546  0.24073147  1  -0.130529  -0.000915  3.736003  -0.001  -0.14224  -0.000443  3.987858  -0.001  -0.151286  -0.000406  4.010656  -0.001  -0.086323  -0.13634  -0.000647  3.973382  -0.001
C  C80  1  0.18130449  0.51832887  0.73731961  1  -0.132921  0.01036  3.739171  0.011  -0.144369  0.003059  3.989641  0.004  -0.153202  0.003016  4.012868  0.004  -0.088369  -0.138616  0.003337  3.974736  0.004
C  C81  1  0.31918841  0.48121031  0.23796090  1  -0.133058  -0.009607  3.738813  -0.011  -0.144369  -0.0029  3.989487  -0.004  -0.153207  -0.002856  4.012697  -0.004  -0.088023  -0.138603  -0.003168  3.974569  -0.004
C  C82  1  0.68098255  0.98165520  0.26215131  1  -0.132252  -0.009551  3.736918  -0.011  -0.143975  -0.002891  3.987328  -0.004  -0.152773  -0.002839  4.010526  -0.004  -0.087492  -0.138246  -0.003161  3.972452  -0.004
C  C83  1  0.81981698  0.01770861  0.75926640  1  -0.130438  -0.000913  3.735739  -0.001  -0.142192  -0.000443  3.987576  -0.001  -0.151238  -0.000406  4.010382  -0.001  -0.086364  -0.13629  -0.000647  3.973105  -0.001
C  C84  1  0.92574497  0.29738561  0.22754991  1  -0.123151  0.0104  3.7357  0.011  -0.130469  0.003062  3.976499  0.004  -0.138287  0.003022  3.997026  0.004  -0.085685  -0.125447  0.003326  3.963425  0.004
C  C85  1  0.57448486  0.70314728  0.72824797  1  -0.12205  -0.009669  3.734335  -0.011  -0.129566  -0.002943  3.975248  -0.004  -0.137308  -0.002886  3.995652  -0.004  -0.085268  -0.124616  -0.003218  3.962308  -0.004
C  C86  1  0.42582432  0.20254282  0.77250937  1  -0.122558  -0.009562  3.736444  -0.011  -0.129928  -0.002891  3.977282  -0.004  -0.137683  -0.002841  3.997699  -0.004  -0.085633  -0.124906  -0.003149  3.964258  -0.004
C  C87  1  0.07340627  0.79831430  0.27481842  1  -0.120981  -0.000652  3.730646  -0.001  -0.128823  -0.000335  3.973048  0.0  -0.136863  -0.000351  3.993165  0.0  -0.083971  -0.123627  -0.000495  3.960343  -0.001
C  C88  1  0.07425958  0.70262789  0.77245317  1  -0.123139  0.010402  3.73541  0.011  -0.130393  0.003062  3.976244  0.004  -0.138212  0.003022  3.996767  0.004  -0.085621  -0.125374  0.003326  3.963176  0.004
C  C89  1  0.42551344  0.29684426  0.27175055  1  -0.121994  -0.009671  3.73443  -0.011  -0.129479  -0.002944  3.975349  -0.004  -0.137221  -0.002886  3.995745  -0.004  -0.085304  -0.124532  -0.003219  3.962414  -0.004
C  C90  1  0.57418151  0.79745294  0.22749303  1  -0.122594  -0.009562  3.73639  -0.011  -0.129959  -0.002891  3.977216  -0.004  -0.13771  -0.002841  3.99762  -0.004  -0.085603  -0.124958  -0.003149  3.964193  -0.004
C  C91  1  0.92659829  0.20168063  0.72518592  1  -0.120815  -0.000652  3.730529  -0.001  -0.128717  -0.000335  3.972896  0.0  -0.136714  -0.00035  3.993039  0.0  -0.083922  -0.123518  -0.000495  3.960181  -0.001
C  C92  1  0.85232240  0.37069029  0.28755353  1  -0.003014  -0.010684  3.721928  -0.012  -0.023457  -0.003519  3.967368  -0.004  -0.018598  -0.003246  3.985221  -0.004  -0.070668  -0.027207  -0.004291  3.95628  -0.005
C  C93  1  0.64758455  0.62987540  0.78758343  1  -0.002492  0.011171  3.722562  0.011  -0.0227  0.003218  3.967807  0.003  -0.01773  0.00307  3.985591  0.003  -0.069995  -0.026543  0.003912  3.956838  0.004
C  C94  1  0.35249429  0.12932217  0.71286900  1  -0.005023  0.01117  3.724511  0.011  -0.025395  0.003281  3.969857  0.003  -0.020347  0.003108  3.987547  0.003  -0.070793  -0.029325  0.004004  3.959125  0.004
C  C95  1  0.14659719  0.87136898  0.21513367  1  -0.001383  0.001025  3.720533  0.001  -0.022236  0.000489  3.96704  0.0  -0.016417  0.000473  3.984119  0.0  -0.069006  -0.026842  0.000638  3.956682  0.001
C  C96  1  0.14769220  0.62932322  0.71245277  1  -0.002865  -0.010683  3.721664  -0.012  -0.02335  -0.003519  3.967169  -0.004  -0.01849  -0.003246  3.98502  -0.004  -0.070731  -0.027101  -0.004291  3.95608  -0.005
C  C97  1  0.35242005  0.37011613  0.21241508  1  -0.002519  0.011172  3.722572  0.011  -0.02269  0.003218  3.967829  0.003  -0.0177  0.00307  3.985619  0.003  -0.069934  -0.026534  0.003912  3.956852  0.004
C  C98  1  0.64751282  0.87067190  0.28712950  1  -0.004855  0.011165  3.724485  0.011  -0.02514  0.003281  3.969754  0.003  -0.020093  0.003107  3.987425  0.003  -0.070745  -0.029078  0.004003  3.959044  0.004
C  C99  1  0.85340360  0.12862763  0.78486873  1  -0.001381  0.001027  3.720274  0.001  -0.022202  0.000489  3.966813  0.0  -0.016378  0.000473  3.983879  0.0  -0.069016  -0.026825  0.000638  3.956473  0.001
C  C100  1  0.62088814  0.53444204  0.99367177  1  0.179672  -0.003564  3.865443  -0.007  0.162781  -0.000232  4.15597  -0.002  0.177739  -0.000382  4.17063  -0.002  0.095293  0.152055  6.5e-05  4.144857  -0.002
C  C101  1  0.87935324  0.46535704  0.49340378  1  0.179907  0.004156  3.864825  0.007  0.163094  0.000452  4.154869  0.002  0.178058  0.000565  4.169505  0.002  0.095283  0.152343  0.000144  4.143853  0.002
C  C102  1  0.12078538  0.96555856  0.00693102  1  0.180228  0.004203  3.866054  0.007  0.163413  0.000454  4.156602  0.002  0.178361  0.00054  4.171288  0.002  0.095515  0.152697  0.000216  4.145449  0.002
C  C103  1  0.37962742  0.03519925  0.50658784  1  0.176813  -0.001154  3.871843  -0.004  0.159611  0.00125  4.160957  -0.001  0.174635  0.000416  4.176525  -0.001  0.095122  0.149292  0.002469  4.148434  0.0
C  C104  1  0.37911140  0.46556216  0.00632741  1  0.17969  -0.003565  3.865552  -0.007  0.162774  -0.000232  4.156098  -0.002  0.177733  -0.000382  4.170755  -0.002  0.095304  0.152041  6.5e-05  4.144987  -0.002
C  C105  1  0.12064375  0.53465056  0.50660124  1  0.179883  0.004154  3.865131  0.007  0.163102  0.000452  4.15512  0.002  0.178067  0.000564  4.169754  0.002  0.095334  0.152353  0.000144  4.144097  0.002
C  C106  1  0.87920657  0.03444144  0.99307594  1  0.180216  0.004202  3.865983  0.007  0.163409  0.000454  4.156495  0.002  0.178357  0.000539  4.171182  0.002  0.095566  0.152693  0.000215  4.145346  0.002
C  C107  1  0.62037347  0.96479646  0.49339318  1  0.177255  -0.001156  3.871546  -0.004  0.160024  0.001249  4.160674  -0.001  0.175053  0.000415  4.176227  -0.001  0.095259  0.149698  0.002468  4.148165  0.0
C  C108  1  0.44762260  0.57962665  0.99034537  1  0.188751  0.008744  3.856881  0.011  0.160171  0.00451  4.137696  0.006  0.170439  0.002712  4.152028  0.004  0.097973  0.154148  0.006654  4.126673  0.009
C  C109  1  0.05288207  0.42038355  0.49050513  1  0.187445  -0.008389  3.857927  -0.011  0.15913  -0.004547  4.137954  -0.007  0.169438  -0.002726  4.152271  -0.004  0.097582  0.153133  -0.006757  4.126977  -0.009
C  C110  1  0.94753354  0.92045385  0.00975690  1  0.187941  -0.008127  3.858958  -0.011  0.159637  -0.004263  4.139267  -0.006  0.169921  -0.00255  4.153645  -0.004  0.097635  0.153621  -0.006306  4.128198  -0.009
C  C111  1  0.55315587  0.07928321  0.51047877  1  0.190379  0.009827  3.862589  0.012  0.162184  0.005618  4.142724  0.008  0.172061  0.003454  4.157668  0.005  0.099184  0.156492  0.007835  4.130729  0.01
C  C112  1  0.55237569  0.42037586  0.00965251  1  0.188963  0.008743  3.856674  0.011  0.160407  0.00451  4.137468  0.006  0.170675  0.002712  4.151796  0.004  0.098164  0.154383  0.006654  4.126444  0.009
C  C113  1  0.94711367  0.57962236  0.50949924  1  0.187802  -0.008388  3.857941  -0.011  0.159466  -0.004547  4.137976  -0.007  0.169775  -0.002726  4.152294  -0.004  0.097705  0.153451  -0.006756  4.126991  -0.009
C  C114  1  0.05245589  0.07954447  0.99025006  1  0.187979  -0.008126  3.85902  -0.011  0.1597  -0.004262  4.139321  -0.006  0.169979  -0.00255  4.153701  -0.004  0.097697  0.153681  -0.006305  4.128249  -0.009
C  C115  1  0.44684251  0.92071166  0.48950032  1  0.190134  0.009827  3.862755  0.012  0.162151  0.005618  4.142794  0.008  0.172036  0.003454  4.157727  0.005  0.099071  0.15646  0.007835  4.130797  0.01
N  N116  1  0.93230019  0.44419462  0.12097141  1  -0.297401  0.06212  3.330472  0.083  -0.252565  0.038252  3.613329  0.053  -0.281493  0.031694  3.635332  0.045  -0.332502  -0.23322  0.043285  3.599224  0.059
N  N117  1  0.56736061  0.55613272  0.62100656  1  -0.297551  -0.057195  3.33001  -0.083  -0.2534  -0.03609  3.61334  -0.053  -0.282397  -0.029852  3.635468  -0.045  -0.331966  -0.233953  -0.040862  3.599085  -0.059
N  N118  1  0.43263786  0.05566754  0.87903899  1  -0.298556  -0.057248  3.329383  -0.083  -0.253255  -0.03611  3.61162  -0.053  -0.282203  -0.029853  3.63373  -0.045  -0.332059  -0.233843  -0.04091  3.597388  -0.059
N  N119  1  0.06661726  0.94521679  0.38227689  1  -0.273796  -0.006774  3.33934  -0.009  -0.230043  -0.007249  3.626531  -0.01  -0.264329  -0.005961  3.651295  -0.008  -0.33218  -0.208116  -0.010922  3.611624  -0.015
N  N120  1  0.06770058  0.55581635  0.87903231  1  -0.297543  0.062117  3.330659  0.083  -0.252546  0.038251  3.613318  0.053  -0.281478  0.031693  3.635333  0.045  -0.332441  -0.233186  0.043283  3.599202  0.059
N  N121  1  0.43263389  0.44386473  0.37899456  1  -0.297472  -0.057195  3.329757  -0.083  -0.253321  -0.036089  3.613059  -0.053  -0.28232  -0.029852  3.635191  -0.045  -0.331926  -0.233873  -0.040861  3.598808  -0.059
N  N122  1  0.56735160  0.94433076  0.12096343  1  -0.298494  -0.05725  3.329295  -0.083  -0.25321  -0.036111  3.611595  -0.053  -0.282158  -0.029854  3.633707  -0.045  -0.332074  -0.2338  -0.040911  3.597366  -0.059
N  N123  1  0.93338103  0.05478488  0.61772099  1  -0.27386  -0.006779  3.339277  -0.009  -0.230072  -0.007251  3.626448  -0.01  -0.264353  -0.005963  3.651212  -0.008  -0.332173  -0.208145  -0.010924  3.611544  -0.015
O  O124  1  0.76404044  0.57911467  0.98553932  1  -0.457408  0.054068  2.173234  0.077  -0.434068  0.035123  2.44062  0.053  -0.467363  0.02633  2.438505  0.04  -0.287307  -0.408322  0.043414  2.44078  0.063
O  O125  1  0.73633300  0.42069139  0.48499154  1  -0.457936  -0.050491  2.172997  -0.078  -0.434302  -0.033577  2.440316  -0.053  -0.467724  -0.025001  2.438475  -0.04  -0.287084  -0.408601  -0.041781  2.440393  -0.064
O  O126  1  0.26396728  0.92110919  0.01575539  1  -0.457689  -0.049888  2.171359  -0.077  -0.43484  -0.033118  2.439195  -0.053  -0.468214  -0.024735  2.437206  -0.04  -0.287813  -0.40902  -0.041033  2.439282  -0.063
O  O127  1  0.23766127  0.08152965  0.51509652  1  -0.451516  0.060315  2.16783  0.082  -0.425359  0.041679  2.431578  0.061  -0.46114  0.032281  2.430601  0.048  -0.280775  -0.397584  0.048893  2.430419  0.069
O  O128  1  0.23596034  0.42088954  0.01446375  1  -0.457437  0.054067  2.173319  0.077  -0.434053  0.035122  2.440651  0.053  -0.467346  0.026329  2.438534  0.04  -0.287308  -0.408295  0.043412  2.440791  0.063
O  O129  1  0.26366276  0.57931451  0.51500894  1  -0.457823  -0.050485  2.173135  -0.078  -0.434235  -0.033574  2.440497  -0.053  -0.467656  -0.025  2.438658  -0.04  -0.287028  -0.408535  -0.041777  2.440568  -0.064
O  O130  1  0.73602091  0.07889250  0.98424898  1  -0.457745  -0.049889  2.171125  -0.077  -0.434844  -0.033118  2.438888  -0.053  -0.468221  -0.024735  2.436902  -0.04  -0.287857  -0.409027  -0.041034  2.438983  -0.063
O  O131  1  0.76234087  0.91846523  0.48488709  1  -0.45172  0.060306  2.167915  0.082  -0.425533  0.041676  2.431654  0.061  -0.461314  0.032279  2.430678  0.048  -0.280761  -0.397761  0.048888  2.430507  0.069
O  O132  1  0.08619220  0.65105259  0.05781071  1  -0.8048  0.049286  1.956901  0.068  -0.781493  0.035341  2.173674  0.05  -0.811771  0.027698  2.138987  0.041  -0.578677  -0.758266  0.042119  2.197535  0.058
O  O133  1  0.41357743  0.34944634  0.55757104  1  -0.806293  -0.045283  1.959014  -0.067  -0.782953  -0.033259  2.177813  -0.05  -0.813252  -0.026032  2.14275  -0.041  -0.578552  -0.75962  -0.039597  2.201883  -0.058
O  O134  1  0.58698953  0.84890916  0.94230647  1  -0.804744  -0.045447  1.957188  -0.068  -0.781288  -0.033356  2.176249  -0.05  -0.811569  -0.026087  2.141475  -0.041  -0.578212  -0.758058  -0.039802  2.200126  -0.058
O  O135  1  0.90907661  0.15591828  0.43786883  1  -0.805726  -0.045906  1.917633  -0.066  -0.780054  -0.034396  2.126981  -0.051  -0.809218  -0.027625  2.091593  -0.042  -0.579574  -0.759396  -0.038574  2.151925  -0.055
O  O136  1  0.91380606  0.34895246  0.94219106  1  -0.804711  0.049279  1.957167  0.068  -0.781507  0.035338  2.173789  0.05  -0.811778  0.027696  2.139099  0.041  -0.578702  -0.758281  0.042115  2.197649  0.058
O  O137  1  0.58642464  0.65054857  0.44242683  1  -0.806318  -0.045284  1.958876  -0.067  -0.782984  -0.033259  2.177698  -0.05  -0.813279  -0.026032  2.142625  -0.041  -0.578635  -0.759659  -0.039597  2.20179  -0.058
O  O138  1  0.41300370  0.15109337  0.05769725  1  -0.804734  -0.045449  1.957203  -0.068  -0.781298  -0.033358  2.176287  -0.05  -0.811579  -0.026088  2.14153  -0.041  -0.578247  -0.758068  -0.039805  2.200168  -0.058
O  O139  1  0.09093929  0.84408170  0.56213292  1  -0.80577  -0.0459  1.917584  -0.066  -0.780111  -0.034394  2.12682  -0.051  -0.809269  -0.027623  2.091413  -0.042  -0.579599  -0.75949  -0.038572  2.151839  -0.055
O  O140  1  0.38375049  0.67633635  0.97986024  1  -0.491433  0.002333  2.136601  0.003  -0.432254  0.000578  2.34881  0.001  -0.454692  0.000158  2.345884  0.0  -0.286557  -0.415688  0.001374  2.349837  0.002
O  O141  1  0.11748662  0.32373014  0.48019442  1  -0.48926  -0.002856  2.142108  -0.004  -0.430014  -0.000921  2.353787  -0.001  -0.452518  -0.000282  2.351018  0.0  -0.285788  -0.413645  -0.00207  2.354788  -0.003
O  O142  1  0.88351329  0.82389140  0.02035294  1  -0.490743  -0.002205  2.139298  -0.003  -0.431526  -0.000543  2.351235  -0.001  -0.454034  -0.000137  2.34836  0.0  -0.286106  -0.414929  -0.001313  2.352245  -0.002
O  O143  1  0.61702771  0.17565683  0.52207957  1  -0.491859  0.003727  2.140999  0.005  -0.432888  0.001158  2.353565  0.001  -0.45582  0.000496  2.35104  0.001  -0.285756  -0.415124  0.002142  2.353807  0.003
O  O144  1  0.61624400  0.32366701  0.02014089  1  -0.491508  0.002333  2.136485  0.003  -0.432382  0.000578  2.348709  0.001  -0.454817  0.000158  2.345779  0.0  -0.286696  -0.415816  0.001374  2.349738  0.002
O  O145  1  0.88251036  0.67627831  0.51981319  1  -0.489579  -0.002856  2.141906  -0.004  -0.430286  -0.000921  2.353577  -0.001  -0.452798  -0.000282  2.350809  0.0  -0.285856  -0.413859  -0.00207  2.354546  -0.003
O  O146  1  0.11647488  0.17610861  0.97965532  1  -0.49077  -0.002205  2.139156  -0.003  -0.431627  -0.000543  2.351102  -0.001  -0.454128  -0.000137  2.348219  0.0  -0.286232  -0.415027  -0.001313  2.352108  -0.002
O  O147  1  0.38296565  0.82434140  0.47789499  1  -0.491502  0.003727  2.140999  0.005  -0.432907  0.001158  2.353753  0.001  -0.455842  0.000496  2.351224  0.001  -0.285686  -0.415141  0.002143  2.353992  0.003
