# generated using pymatgen
data_CdH8C6(IN2)2
_symmetry_space_group_name_H-M   'P 1'
_cell_length_a   4.25398818
_cell_length_b   9.41879122
_cell_length_c   14.64621494
_cell_angle_alpha   95.81176912
_cell_angle_beta   90.14954612
_cell_angle_gamma   102.35612674
_symmetry_Int_Tables_number   1
_chemical_formula_structural   CdH8C6(IN2)2
_chemical_formula_sum   'Cd2 H16 C12 I4 N8'
_cell_volume   570.11840885
_cell_formula_units_Z   2
loop_
 _symmetry_equiv_pos_site_id
 _symmetry_equiv_pos_as_xyz
  1  'x, y, z'
loop_
 _atom_site_type_symbol
 _atom_site_label
 _atom_site_symmetry_multiplicity
 _atom_site_fract_x
 _atom_site_fract_y
 _atom_site_fract_z
 _atom_site_occupancy
 _atom_site_hle17_bader_spin_density
 _atom_site_hle17_ddec_charge
 _atom_site_hle17_ddec_spin_density
 _atom_site_hle17_ddec_sum_bond_order
 _atom_site_hle17_magmom
 _atom_site_hse06_10hf_bader_spin_density
 _atom_site_hse06_10hf_ddec_charge
 _atom_site_hse06_10hf_ddec_spin_density
 _atom_site_hse06_10hf_ddec_sum_bond_order
 _atom_site_hse06_10hf_magmom
 _atom_site_hse06_bader_spin_density
 _atom_site_hse06_ddec_charge
 _atom_site_hse06_ddec_spin_density
 _atom_site_hse06_ddec_sum_bond_order
 _atom_site_hse06_magmom
 _atom_site_pbe_bader_spin_density
 _atom_site_pbe_cm5_charge
 _atom_site_pbe_ddec_charge
 _atom_site_pbe_ddec_spin_density
 _atom_site_pbe_ddec_sum_bond_order
 _atom_site_pbe_magmom
Cd  Cd0  1  0.05910807  0.00177663  0.75064219  1  0  0.758216  0  2.087666  0  0  0.608969  0  2.521138  0  0  0.65787  0  2.487059  0  0  0.502604  0.574767  0  2.544708  0
Cd  Cd1  1  0.94090400  0.99822496  0.24935787  1  0  0.75821  0  2.087658  0  0  0.60898  0  2.521086  0  0  0.65788  0  2.487013  0  0  0.502612  0.574759  0  2.544695  0
H  H2  1  0.65843544  0.62514044  0.00166327  1  0  0.099805  0  0.963566  0  0  0.111599  0  1.026087  0  0  0.11403  0  1.023782  0  0  0.114049  0.109773  0  1.027838  0
H  H3  1  0.02037731  0.36909839  0.49390191  1  0  0.099859  0  0.965112  0  0  0.111657  0  1.027627  0  0  0.114076  0  1.025399  0  0  0.113521  0.109831  0  1.029331  0
H  H4  1  0.34155151  0.37484346  0.99832764  1  0  0.099817  0  0.963919  0  0  0.111673  0  1.026335  0  0  0.114103  0  1.024031  0  0  0.114085  0.109845  0  1.028087  0
H  H5  1  0.97963533  0.63090436  0.50610026  1  0  0.099877  0  0.965079  0  0  0.111622  0  1.027643  0  0  0.114042  0  1.025417  0  0  0.113506  0.109799  0  1.029347  0
H  H6  1  0.96049616  0.45702619  0.87777552  1  0  0.118049  0  0.987511  0  0  0.124958  0  1.052154  0  0  0.128291  0  1.051549  0  0  0.094979  0.122561  0  1.052739  0
H  H7  1  0.48828373  0.53989717  0.61549023  1  0  0.118093  0  0.986661  0  0  0.125889  0  1.050159  0  0  0.129197  0  1.049581  0  0  0.095181  0.123531  0  1.050697  0
H  H8  1  0.03949970  0.54296635  0.12221313  1  0  0.11806  0  0.987484  0  0  0.124947  0  1.052134  0  0  0.128327  0  1.051479  0  0  0.094957  0.122554  0  1.052712  0
H  H9  1  0.51171077  0.46010689  0.38451747  1  0  0.118111  0  0.986571  0  0  0.125873  0  1.05013  0  0  0.129185  0  1.049549  0  0  0.095147  0.123511  0  1.050665  0
H  H10  1  0.15681008  0.64012276  0.74283072  1  0  0.092966  0  0.974374  0  0  0.101646  0  1.042055  0  0  0.103574  0  1.040727  0  0  0.105506  0.100236  0  1.042993  0
H  H11  1  0.50767108  0.36315250  0.75439133  1  0  0.093709  0  0.97272  0  0  0.102619  0  1.039795  0  0  0.104531  0  1.038519  0  0  0.106539  0.101225  0  1.040683  0
H  H12  1  0.84320459  0.35988419  0.25716622  1  0  0.092975  0  0.974441  0  0  0.101661  0  1.042114  0  0  0.103558  0  1.040815  0  0  0.10548  0.100246  0  1.04305  0
H  H13  1  0.49230576  0.63685389  0.24561922  1  0  0.09363  0  0.972761  0  0  0.10257  0  1.039832  0  0  0.104486  0  1.038541  0  0  0.106516  0.101179  0  1.040721  0
H  H14  1  0.69261362  0.86440958  0.93223050  1  0  0.27046  0  0.922282  0  0  0.246375  0  1.000955  0  0  0.254426  0  0.993885  0  0  0.294406  0.240619  0  1.006147  0
H  H15  1  0.82269128  0.13431517  0.56776089  1  0  0.270721  0  0.922563  0  0  0.246675  0  1.001427  0  0  0.254781  0  0.994247  0  0  0.293814  0.240905  0  1.006654  0
H  H16  1  0.30738821  0.13558547  0.06776921  1  0  0.27048  0  0.922078  0  0  0.246379  0  1.000798  0  0  0.254437  0  0.993727  0  0  0.294434  0.240616  0  1.005996  0
H  H17  1  0.17731483  0.86568867  0.43224065  1  0  0.270823  0  0.922464  0  0  0.246774  0  1.001362  0  0  0.254879  0  0.994173  0  0  0.293835  0.241007  0  1.006588  0
C  C18  1  0.77270705  0.64813403  0.93715326  1  0  0.053928  0  3.699269  0  0  0.007537  0  3.960821  0  0  0.016669  0  3.975132  0  0  0.013573  0.001848  0  3.950906  0
C  C19  1  0.11312164  0.34851418  0.55915067  1  0  0.05369  0  3.70169  0  0  0.007581  0  3.962897  0  0  0.016726  0  3.977161  0  0  0.01373  0.001884  0  3.953054  0
C  C20  1  0.22729069  0.35185751  0.06283875  1  0  0.053746  0  3.699723  0  0  0.007347  0  3.961216  0  0  0.016473  0  3.975545  0  0  0.01354  0.001662  0  3.951303  0
C  C21  1  0.88688636  0.65148866  0.44085423  1  0  0.0537  0  3.701653  0  0  0.007658  0  3.96285  0  0  0.016792  0  3.977121  0  0  0.013726  0.00196  0  3.953007  0
C  C22  1  0.92665803  0.56721827  0.87415998  1  0  -0.218231  0  3.772236  0  0  -0.224138  0  4.025625  0  0  -0.234466  0  4.046269  0  0  -0.122739  -0.217395  0  4.011608  0
C  C23  1  0.34677707  0.43086065  0.62110075  1  0  -0.21924  0  3.773927  0  0  -0.225634  0  4.026678  0  0  -0.235971  0  4.047286  0  0  -0.122685  -0.21891  0  4.012677  0
C  C24  1  0.07334887  0.43277761  0.12583158  1  0  -0.218285  0  3.772463  0  0  -0.22418  0  4.025888  0  0  -0.234549  0  4.046491  0  0  -0.122739  -0.217449  0  4.011877  0
C  C25  1  0.65322080  0.56914551  0.37890433  1  0  -0.21924  0  3.774018  0  0  -0.225588  0  4.026747  0  0  -0.235928  0  4.047364  0  0  -0.122587  -0.218853  0  4.012734  0
C  C26  1  0.02590194  0.65894270  0.80481241  1  0  0.060326  0  3.709856  0  0  0.020588  0  3.973934  0  0  0.029503  0  3.989698  0  0  0.009905  0.014974  0  3.962957  0
C  C27  1  0.35733058  0.34236315  0.69243934  1  0  0.06133  0  3.712999  0  0  0.021763  0  3.976647  0  0  0.030692  0  3.9924  0  0  0.010544  0.016148  0  3.965658  0
C  C28  1  0.97410747  0.34106313  0.19518309  1  0  0.060327  0  3.709785  0  0  0.020591  0  3.973871  0  0  0.029528  0  3.989669  0  0  0.009878  0.014987  0  3.962884  0
C  C29  1  0.64264980  0.65764091  0.30756699  1  0  0.061339  0  3.71306  0  0  0.021716  0  3.976719  0  0  0.030646  0  3.992476  0  0  0.010456  0.016099  0  3.965727  0
I  I30  1  0.49067015  0.87591025  0.61976009  1  0  -0.467999  0  1.186788  0  0  -0.425147  0  1.532852  0  0  -0.44394  0  1.510884  0  0  -0.212325  -0.41167  0  1.548879  0
I  I31  1  0.61229320  0.12717817  0.88140165  1  0  -0.468014  0  1.180513  0  0  -0.424656  0  1.525569  0  0  -0.443478  0  1.50367  0  0  -0.213609  -0.411204  0  1.541676  0
I  I32  1  0.50934115  0.12409458  0.38023877  1  0  -0.467988  0  1.186755  0  0  -0.42514  0  1.532821  0  0  -0.443932  0  1.510848  0  0  -0.212324  -0.411655  0  1.54885  0
I  I33  1  0.38770630  0.87281691  0.11859874  1  0  -0.468046  0  1.180503  0  0  -0.424676  0  1.525536  0  0  -0.443509  0  1.503656  0  0  -0.21363  -0.411215  0  1.541655  0
N  N34  1  0.93838124  0.78727769  0.82426024  1  0  -0.242213  0  3.199172  0  0  -0.182835  0  3.468472  0  0  -0.199965  0  3.491152  0  0  -0.260375  -0.171112  0  3.452715  0
N  N35  1  0.14427303  0.21458500  0.67510149  1  0  -0.242723  0  3.200151  0  0  -0.183267  0  3.469536  0  0  -0.200408  0  3.492223  0  0  -0.260178  -0.171534  0  3.453791  0
N  N36  1  0.06163281  0.21271833  0.17573679  1  0  -0.242394  0  3.199256  0  0  -0.183014  0  3.468576  0  0  -0.200142  0  3.491249  0  0  -0.260385  -0.17129  0  3.452814  0
N  N37  1  0.85571909  0.78541902  0.32490485  1  0  -0.242612  0  3.199981  0  0  -0.183128  0  3.469349  0  0  -0.200275  0  3.492037  0  0  -0.260056  -0.171393  0  3.453609  0
N  N38  1  0.78571944  0.77830841  0.90463333  1  0  -0.146282  0  3.547457  0  0  -0.085744  0  3.778275  0  0  -0.097713  0  3.798621  0  0  -0.287757  -0.077882  0  3.764603  0
N  N39  1  0.99959199  0.22071655  0.59409691  1  0  -0.146437  0  3.547133  0  0  -0.086431  0  3.777997  0  0  -0.098414  0  3.798316  0  0  -0.28868  -0.078593  0  3.764393  0
N  N40  1  0.21427480  0.22168555  0.09536564  1  0  -0.145931  0  3.54719  0  0  -0.085409  0  3.778016  0  0  -0.097385  0  3.798373  0  0  -0.287709  -0.077544  0  3.764352  0
N  N41  1  0.00040423  0.77928626  0.40590594  1  0  -0.146615  0  3.547199  0  0  -0.086661  0  3.778091  0  0  -0.098626  0  3.798394  0  0  -0.288744  -0.078826  0  3.76449  0
