# generated using pymatgen
data_ZnH5C20Br3N(ClO2)2
_symmetry_space_group_name_H-M   'P 1'
_cell_length_a   10.96179343
_cell_length_b   14.80917265
_cell_length_c   16.20040012
_cell_angle_alpha   90.40518254
_cell_angle_beta   88.56540472
_cell_angle_gamma   90.38418459
_symmetry_Int_Tables_number   1
_chemical_formula_structural   ZnH5C20Br3N(ClO2)2
_chemical_formula_sum   'Zn2 H10 C40 Br6 N2 Cl4 O8'
_cell_volume   2628.94730808
_cell_formula_units_Z   2
loop_
 _symmetry_equiv_pos_site_id
 _symmetry_equiv_pos_as_xyz
  1  'x, y, z'
loop_
 _atom_site_type_symbol
 _atom_site_label
 _atom_site_symmetry_multiplicity
 _atom_site_fract_x
 _atom_site_fract_y
 _atom_site_fract_z
 _atom_site_occupancy
 _atom_site_pbe_bader_charge
 _atom_site_pbe_bader_spin_density
 _atom_site_pbe_cm5_charge
 _atom_site_pbe_ddec_charge
 _atom_site_pbe_ddec_spin_density
 _atom_site_pbe_ddec_sum_bond_order
 _atom_site_pbe_magmom
Zn  Zn0  1  0.50255568  0.59456290  0.49684992  1  1.310262  0  0.685971  0.888024  0  2.432686  0
Zn  Zn1  1  0.49744306  0.40544988  0.50313303  1  1.307164  0  0.686054  0.888137  0  2.432804  0
H  H2  1  0.72871290  0.17314478  0.73636707  1  0.103497  0  0.10971  0.124934  0  0.976534  0
H  H3  1  0.27128526  0.82685523  0.26364670  1  0.103607  0  0.109716  0.124967  0  0.976689  0
H  H4  1  0.80788107  0.13358670  0.59507498  1  0.065598  0  0.096127  0.104991  0  1.015803  0
H  H5  1  0.19210887  0.86640923  0.40493884  1  0.065571  0  0.096107  0.104923  0  1.015781  0
H  H6  1  0.11349996  0.38126797  0.57176341  1  0.092919  0  0.106433  0.120738  0  0.988689  0
H  H7  1  0.88649463  0.61872121  0.42824540  1  0.092948  0  0.106465  0.120851  0  0.988727  0
H  H8  1  0.60231607  0.62414203  0.92173673  1  0.104386  0  0.115101  0.136729  0  0.971905  0
H  H9  1  0.39772662  0.37583714  0.07823520  1  0.104395  0  0.11519  0.136822  0  0.972044  0
H  H10  1  0.69074767  0.08719551  0.46641986  1  0.148342  0  0.1196  0.135808  0  0.999181  0
H  H11  1  0.30922479  0.91281792  0.53360284  1  0.147949  0  0.119644  0.135986  0  0.999105  0
C  C12  1  0.50678474  0.49378411  0.33863103  1  1.731204  0  0.215463  0.660775  0  4.248966  0
C  C13  1  0.49320126  0.50624819  0.66135089  1  1.730857  0  0.215463  0.660728  0  4.248229  0
C  C14  1  0.12772678  0.50006032  0.49766876  1  0.046247  0  -0.008183  -0.05021  0  3.930039  0
C  C15  1  0.87226977  0.49992817  0.50233262  1  0.046014  0  -0.008163  -0.050476  0  3.930543  0
C  C16  1  0.06508575  0.56844827  0.45662186  1  0.067531  0  -0.008784  0.057006  0  3.997513  0
C  C17  1  0.93490980  0.43154294  0.54338386  1  0.067538  0  -0.008722  0.057329  0  3.997451  0
C  C18  1  0.55760023  0.57000025  0.95632637  1  0.030838  0  -0.082173  -0.159687  0  3.925626  0
C  C19  1  0.44245147  0.42997695  0.04365165  1  0.034778  0  -0.082508  -0.159991  0  3.926252  0
C  C20  1  0.49254234  0.50325158  0.91256107  1  0.120056  0  -0.002326  0.100899  0  4.094984  0
C  C21  1  0.50750207  0.49672153  0.08741638  1  0.11734  0  -0.002009  0.10105  0  4.094973  0
C  C22  1  0.43494150  0.43324870  0.95842724  1  -0.043701  0  -0.010851  0.069968  0  3.939496  0
C  C23  1  0.56511659  0.56672515  0.04155071  1  -0.04373  0  -0.011121  0.069682  0  3.939856  0
C  C24  1  0.48875653  0.50695869  0.82570040  1  -0.33038  0  -0.042351  -0.055821  0  4.134366  0
C  C25  1  0.51126052  0.49303321  0.17427737  1  -0.331384  0  -0.042211  -0.05549  0  4.134488  0
C  C26  1  0.51058896  0.49073551  0.24941269  1  0.003586  0  -0.03822  -0.158898  0  3.943319  0
C  C27  1  0.48940444  0.50928398  0.75056355  1  0.002771  0  -0.038051  -0.158577  0  3.942825  0
C  C28  1  0.60970364  0.95447353  0.47994089  1  -0.016125  0  0.002391  0.073597  0  3.951971  0
C  C29  1  0.39025997  0.04554118  0.52006769  1  -0.016441  0  0.002529  0.073927  0  3.95178  0
C  C30  1  0.50077283  0.90630114  0.49856816  1  0.125588  0  0.018854  0.033811  0  4.049634  0
C  C31  1  0.49919436  0.09371832  0.50144410  1  0.125706  0  0.018873  0.033559  0  4.049981  0
C  C32  1  0.39166304  0.95167917  0.51887022  1  0.040298  0  -0.061872  -0.126447  0  3.895171  0
C  C33  1  0.60830321  0.04833489  0.48114326  1  0.040184  0  -0.061698  -0.12595  0  3.895288  0
C  C34  1  0.73598492  0.50240775  0.50121817  1  1.552662  0  0.216003  0.597827  0  4.174097  0
C  C35  1  0.26400792  0.49758006  0.49878633  1  1.553351  0  0.215899  0.597645  0  4.174458  0
C  C36  1  0.49962948  0.81054062  0.49671388  1  0.866552  0  0.238424  0.297186  0  3.932287  0
C  C37  1  0.50034950  0.18947215  0.50330196  1  0.866114  0  0.238435  0.297328  0  3.932451  0
C  C38  1  0.77546619  0.31371878  0.72521113  1  0.108658  0  0.008449  0.094359  0  4.054551  0
C  C39  1  0.22453198  0.68627853  0.27480201  1  0.108791  0  0.008545  0.094322  0  4.054476  0
C  C40  1  0.82707794  0.38115556  0.67431644  1  0.121927  0  0.017048  0.057281  0  3.974483  0
C  C41  1  0.17292391  0.61884041  0.32569481  1  0.122263  0  0.017112  0.057322  0  3.974796  0
C  C42  1  0.87251784  0.36046484  0.59407839  1  0.085043  0  -0.005775  -0.002732  0  3.95559  0
C  C43  1  0.12747682  0.63952703  0.40592611  1  0.085688  0  -0.005834  -0.002642  0  3.955741  0
C  C44  1  0.86334750  0.27041071  0.56752192  1  -0.131788  0  -0.017757  0.07526  0  3.942937  0
C  C45  1  0.13664067  0.72958317  0.43248882  1  -0.133577  0  -0.017877  0.075036  0  3.942852  0
C  C46  1  0.81210709  0.20305071  0.61737484  1  -0.039857  0  -0.11169  -0.149305  0  4.070882  0
C  C47  1  0.18788560  0.79694455  0.38263834  1  -0.039575  0  -0.111568  -0.148984  0  4.070647  0
C  C48  1  0.76821708  0.22489345  0.69625659  1  0.072326  0  -0.097099  -0.129337  0  4.015005  0
C  C49  1  0.23178289  0.77510455  0.30375777  1  0.072661  0  -0.097186  -0.129493  0  4.015147  0
C  C50  1  0.06224843  0.43290353  0.54015806  1  -0.081555  0  -0.081539  -0.13469  0  3.941033  0
C  C51  1  0.93774898  0.56708700  0.45984580  1  -0.081363  0  -0.081634  -0.134816  0  3.94161  0
Br  Br52  1  0.75574399  0.89250587  0.45545408  1  0.039505  0  0.089398  0.008507  0  1.376675  0
Br  Br53  1  0.24422329  0.10751088  0.54455324  1  0.039054  0  0.089347  0.008419  0  1.376671  0
Br  Br54  1  0.91824290  0.23686207  0.45893700  1  -0.078366  0  0.015129  -0.076363  0  1.383517  0
Br  Br55  1  0.08171163  0.76312625  0.54106721  1  -0.078418  0  0.015164  -0.076316  0  1.383454  0
Br  Br56  1  0.65465226  0.65774627  0.09688561  1  -0.049182  0  0.016315  -0.068949  0  1.343788  0
Br  Br57  1  0.34541136  0.34221814  0.90308855  1  -0.048498  0  0.016256  -0.069046  0  1.343438  0
N  N58  1  0.50310977  0.26771986  0.50491069  1  -1.117844  0  -0.255893  -0.249921  0  3.085945  0
N  N59  1  0.49689480  0.73229436  0.49510309  1  -1.118012  0  -0.255801  -0.249728  0  3.085992  0
Cl  Cl60  1  0.72294695  0.33806879  0.82369376  1  -0.181236  0  -0.004566  -0.06932  0  1.542871  0
Cl  Cl61  1  0.27705668  0.66192990  0.17631995  1  -0.181082  0  -0.004582  -0.069278  0  1.542638  0
Cl  Cl62  1  0.83555575  0.49057670  0.71004716  1  -0.174376  0  0.013862  -0.035645  0  1.550553  0
Cl  Cl63  1  0.16446069  0.50942001  0.28996459  1  -0.174334  0  0.013846  -0.035648  0  1.550698  0
O  O64  1  0.50784714  0.57247931  0.37079189  1  -1.134227  0  -0.31282  -0.537664  0  2.24903  0
O  O65  1  0.49221469  0.42755533  0.62918445  1  -1.13445  0  -0.312916  -0.537634  0  2.248556  0
O  O66  1  0.50224212  0.41843640  0.37603539  1  -1.14234  0  -0.317878  -0.54896  0  2.251293  0
O  O67  1  0.49769451  0.58160314  0.62395315  1  -1.142194  0  -0.317864  -0.549041  0  2.251307  0
O  O68  1  0.68712297  0.57973037  0.49573262  1  -1.150729  0  -0.315703  -0.541394  0  2.314619  0
O  O69  1  0.31287394  0.42026361  0.50429904  1  -1.151958  0  -0.31562  -0.541381  0  2.314725  0
O  O70  1  0.68086564  0.42663652  0.50487197  1  -1.162777  0  -0.309035  -0.542958  0  2.368076  0
O  O71  1  0.31913716  0.57334785  0.49508612  1  -1.16227  0  -0.30904  -0.542944  0  2.368111  0
