# generated using pymatgen
data_CuH12C14(NO2)2
_symmetry_space_group_name_H-M   'P 1'
_cell_length_a   7.69642018
_cell_length_b   12.73034805
_cell_length_c   14.00500000
_cell_angle_alpha   108.09224381
_cell_angle_beta   90.00000000
_cell_angle_gamma   90.00000000
_symmetry_Int_Tables_number   1
_chemical_formula_structural   CuH12C14(NO2)2
_chemical_formula_sum   'Cu4 H48 C56 N8 O16'
_cell_volume   1304.33960241
_cell_formula_units_Z   4
loop_
 _symmetry_equiv_pos_site_id
 _symmetry_equiv_pos_as_xyz
  1  'x, y, z'
loop_
 _atom_site_type_symbol
 _atom_site_label
 _atom_site_symmetry_multiplicity
 _atom_site_fract_x
 _atom_site_fract_y
 _atom_site_fract_z
 _atom_site_occupancy
 _atom_site_hle17_ddec_charge
 _atom_site_hle17_ddec_spin_density
 _atom_site_hle17_ddec_sum_bond_order
 _atom_site_hle17_magmom
 _atom_site_hse06_10hf_ddec_charge
 _atom_site_hse06_10hf_ddec_spin_density
 _atom_site_hse06_10hf_ddec_sum_bond_order
 _atom_site_hse06_10hf_magmom
 _atom_site_hse06_ddec_charge
 _atom_site_hse06_ddec_spin_density
 _atom_site_hse06_ddec_sum_bond_order
 _atom_site_hse06_magmom
 _atom_site_pbe_cm5_charge
 _atom_site_pbe_ddec_charge
 _atom_site_pbe_ddec_spin_density
 _atom_site_pbe_ddec_sum_bond_order
 _atom_site_pbe_magmom
Cu  Cu0  1  0.98107170  0.10229378  0.31962915  1  0.820319  0.660586  1.811426  0.481  0.815754  0.775772  2.206995  0.624  0.918023  0.851499  2.135332  0.727  0.716657  0.754776  0.72235  2.25692  0.559
Cu  Cu1  1  0.48107171  0.39770658  0.18037098  1  0.820286  0.660619  1.81154  0.482  0.815708  0.775792  2.207129  0.624  0.917939  0.851502  2.135433  0.727  0.716656  0.754737  0.722333  2.256969  0.559
Cu  Cu2  1  0.01892568  0.89770528  0.68037208  1  0.820316  0.660642  1.811508  0.482  0.815641  0.775779  2.2071  0.624  0.917929  0.851503  2.135423  0.727  0.716631  0.754679  0.722353  2.257027  0.559
Cu  Cu3  1  0.51892567  0.60229496  0.81962809  1  0.820265  0.660567  1.811479  0.481  0.815703  0.775782  2.207067  0.624  0.917987  0.851507  2.135372  0.727  0.716649  0.754755  0.722356  2.256951  0.559
H  H4  1  0.99808350  0.13273854  0.13960557  1  0.317965  -0.000422  0.902886  0.0  0.306227  -0.000125  0.963999  0.0  0.314048  -0.000147  0.958045  0.0  0.294799  0.301028  -6.4e-05  0.967825  0.0
H  H5  1  0.49808351  0.36726264  0.36039408  1  0.317968  -0.000421  0.902817  0.0  0.306229  -0.000126  0.963939  0.0  0.314048  -0.000147  0.957986  0.0  0.294782  0.301029  -6.5e-05  0.967769  0.0
H  H6  1  0.00191777  0.86726134  0.86039590  1  0.317998  -0.000422  0.902843  0.0  0.306217  -0.000125  0.963994  0.0  0.314038  -0.000147  0.958041  0.0  0.294802  0.301019  -7.1e-05  0.967815  0.0
H  H7  1  0.50191906  0.63273890  0.63960571  1  0.318  -0.000422  0.902848  0.0  0.306266  -0.000126  0.963961  0.0  0.314085  -0.000147  0.958009  0.0  0.294807  0.301064  -7e-05  0.967791  0.0
H  H8  1  0.13837212  0.21947319  0.21500044  1  0.325575  -0.000634  0.913371  -0.001  0.312254  -9.2e-05  0.975758  0.0  0.320509  -0.000158  0.969658  0.0  0.295482  0.306682  5e-06  0.979781  0.0
H  H9  1  0.63837471  0.28052717  0.28499898  1  0.325599  -0.000633  0.91335  -0.001  0.31228  -9.2e-05  0.97573  0.0  0.320535  -0.000158  0.969629  0.0  0.295475  0.306707  -1e-06  0.979756  0.0
H  H10  1  0.86162915  0.78052422  0.78499962  1  0.325626  -0.000634  0.913256  -0.001  0.3123  -9.2e-05  0.975663  0.0  0.320559  -0.000158  0.969551  0.0  0.295512  0.30673  1e-06  0.97969  0.0
H  H11  1  0.36163046  0.71947685  0.71500222  1  0.325629  -0.000634  0.913231  -0.001  0.312308  -9.2e-05  0.975637  0.0  0.320567  -0.000158  0.969524  0.0  0.295499  0.306735  -1e-06  0.979665  0.0
H  H12  1  0.63333341  0.86554577  0.07056210  1  0.112046  -4.2e-05  0.959326  -0.001  0.120779  0.000594  1.02548  0.0  0.124454  0.000374  1.023  0.0  0.104752  0.11829  0.000781  1.027023  0.0
H  H13  1  0.13333602  0.63445530  0.42943617  1  0.112037  -4.1e-05  0.959309  -0.001  0.120777  0.000594  1.025448  0.0  0.124453  0.000374  1.022968  0.0  0.104738  0.118279  0.000783  1.027011  0.0
H  H14  1  0.36666397  0.13445329  0.92943342  1  0.11203  -4.1e-05  0.959347  -0.001  0.120759  0.000594  1.025501  0.0  0.124434  0.000374  1.023021  0.0  0.104722  0.118278  0.000784  1.027038  0.0
H  H15  1  0.86666396  0.36554872  0.57057004  1  0.112015  -4e-05  0.959386  -0.001  0.120771  0.000594  1.025503  0.0  0.124446  0.000374  1.023023  0.0  0.104714  0.118274  0.000782  1.027059  0.0
H  H16  1  0.10659501  0.95274815  0.02695298  1  0.106414  -0.000602  0.957373  0.0  0.11674  -5.8e-05  1.020139  0.0  0.120575  -3.6e-05  1.017213  0.0  0.104811  0.113937  -7.8e-05  1.022374  0.0
H  H17  1  0.60659890  0.54725292  0.47304743  1  0.106433  -0.000601  0.957372  0.0  0.116768  -5.8e-05  1.020117  0.0  0.1206  -3.6e-05  1.017198  0.0  0.10483  0.11396  -7.8e-05  1.022353  0.0
H  H18  1  0.89340237  0.04725091  0.97304683  1  0.10638  -0.000601  0.957348  0.0  0.116707  -5.8e-05  1.020117  0.0  0.120541  -3.6e-05  1.017193  0.0  0.104807  0.113904  -7.5e-05  1.022351  0.0
H  H19  1  0.39340238  0.45275110  0.52695377  1  0.106409  -0.000601  0.957321  0.0  0.116717  -5.8e-05  1.020094  0.0  0.120549  -3.6e-05  1.017175  0.0  0.104786  0.113911  -7.6e-05  1.022328  0.0
H  H20  1  0.40362141  0.16057442  0.27375950  1  0.130036  -0.000387  0.970603  0.0  0.136258  0.000176  1.036799  0.0  0.140714  8.8e-05  1.033654  0.0  0.111206  0.133003  0.000255  1.039216  0.0
H  H21  1  0.90362270  0.33942511  0.22624111  1  0.130018  -0.000385  0.970634  0.0  0.136244  0.000176  1.036814  0.0  0.1407  8.9e-05  1.03367  0.0  0.111198  0.132986  0.000256  1.039227  0.0
H  H22  1  0.59637856  0.83942299  0.72623984  1  0.130003  -0.000386  0.97065  0.0  0.136248  0.000176  1.036808  0.0  0.140703  8.9e-05  1.033665  0.0  0.1112  0.132991  0.000252  1.039225  0.0
H  H23  1  0.09637987  0.66057725  0.77376320  1  0.130065  -0.000386  0.970635  0.0  0.136253  0.000176  1.036856  0.0  0.140707  8.9e-05  1.033716  0.0  0.111208  0.132999  0.000255  1.03927  0.0
H  H24  1  0.10459018  0.87675813  0.22829196  1  0.081032  0.000585  0.955279  0.001  0.091312  0.000655  1.01872  0.001  0.093425  0.000466  1.016915  0.001  0.117526  0.08943  0.000792  1.020324  0.001
H  H25  1  0.60458368  0.62324128  0.27170655  1  0.081044  0.000584  0.95524  0.001  0.091315  0.000655  1.018712  0.001  0.093429  0.000466  1.016907  0.001  0.11751  0.08943  0.000797  1.020322  0.001
H  H26  1  0.89541239  0.12324010  0.77171047  1  0.081107  0.000585  0.955335  0.001  0.091387  0.000655  1.018766  0.001  0.093501  0.000466  1.016962  0.001  0.117549  0.089507  0.000797  1.020367  0.001
H  H27  1  0.39540980  0.37675612  0.72828922  1  0.081038  0.000584  0.955283  0.001  0.091323  0.000655  1.018708  0.001  0.093436  0.000466  1.016904  0.001  0.11754  0.089434  0.000798  1.020315  0.001
H  H28  1  0.27912457  0.73762421  0.28027273  1  0.115032  0.000538  0.944318  0.0  0.127683  0.000562  0.997452  0.0  0.131653  0.000381  0.996232  0.0  0.108265  0.12474  0.000705  0.998623  0.001
H  H29  1  0.77912196  0.76237520  0.21972650  1  0.115  0.000538  0.944378  0.0  0.127654  0.000562  0.997505  0.0  0.131624  0.000381  0.996286  0.0  0.108233  0.1247  0.000707  0.998681  0.001
H  H30  1  0.72088060  0.26237485  0.71972851  1  0.115013  0.000538  0.944379  0.0  0.127665  0.000562  0.997508  0.0  0.131635  0.000381  0.996288  0.0  0.108236  0.124721  0.000711  0.998673  0.001
H  H31  1  0.22087931  0.23762303  0.78027236  1  0.115016  0.000539  0.944331  0.0  0.127665  0.000562  0.99747  0.0  0.131636  0.000381  0.996249  0.0  0.10824  0.124712  0.000706  0.998646  0.001
H  H32  1  0.33836250  0.98206821  0.57108388  1  0.112479  0.000118  0.945806  0.0  0.124208  0.000125  1.003493  0.0  0.127445  4.8e-05  1.00312  0.0  0.109045  0.121689  0.000198  1.004346  0.0
H  H33  1  0.83836379  0.51793203  0.92891629  1  0.112471  0.000118  0.945804  0.0  0.124201  0.000125  1.003495  0.0  0.127437  4.8e-05  1.003124  0.0  0.109038  0.121674  0.000195  1.004345  0.0
H  H34  1  0.66164007  0.01793168  0.42891687  1  0.112469  0.000118  0.945799  0.0  0.124199  0.000125  1.003482  0.0  0.127435  4.8e-05  1.003109  0.0  0.10907  0.12168  0.000195  1.004338  0.0
H  H35  1  0.16163619  0.48206951  0.07108136  1  0.112486  0.000119  0.945703  0.0  0.12422  0.000125  1.003389  0.0  0.127456  4.8e-05  1.003016  0.0  0.109069  0.121689  0.000195  1.004244  0.0
H  H36  1  0.15728741  0.10990724  0.50790826  1  0.082721  0.000458  0.945404  0.001  0.094385  0.00052  1.002146  0.001  0.097191  0.00037  0.999998  0.001  0.118295  0.092174  0.000636  1.003791  0.001
H  H37  1  0.65728610  0.39009229  0.99209021  1  0.082727  0.000457  0.945384  0.001  0.094371  0.00052  1.002145  0.001  0.097175  0.00037  1.0  0.001  0.118288  0.092158  0.000635  1.00379  0.001
H  H38  1  0.84271517  0.89009347  0.49209273  1  0.082733  0.000457  0.945356  0.001  0.094418  0.00052  1.002086  0.001  0.097229  0.00037  0.999926  0.001  0.118291  0.092205  0.000635  1.003736  0.001
H  H39  1  0.34271128  0.60990677  0.00790388  1  0.082755  0.000456  0.945347  0.001  0.094422  0.00052  1.002096  0.001  0.097231  0.00037  0.999941  0.001  0.118316  0.092206  0.000636  1.003746  0.001
H  H40  1  0.56916331  0.79401244  0.47229801  1  0.11431  -0.000375  0.955676  0.0  0.135639  -0.000186  1.018825  0.0  0.136431  -0.000199  1.019705  0.0  0.092965  0.135017  -0.000174  1.018226  0.0
H  H41  1  0.06916462  0.70598533  0.02770146  1  0.11428  -0.000372  0.955634  0.0  0.135603  -0.000186  1.018797  0.0  0.136395  -0.000199  1.019677  0.0  0.092946  0.134979  -0.000172  1.018199  0.0
H  H42  1  0.43083666  0.20598662  0.52770393  1  0.11421  -0.000374  0.95555  0.0  0.135519  -0.000185  1.018748  0.0  0.136312  -0.000199  1.019627  0.0  0.092901  0.134896  -0.000174  1.018152  0.0
H  H43  1  0.93083665  0.29401208  0.97229645  1  0.114226  -0.000372  0.955545  0.0  0.135535  -0.000186  1.018745  0.0  0.136328  -0.0002  1.019623  0.0  0.092896  0.134908  -0.000173  1.018148  0.0
H  H44  1  0.42247434  0.68498364  0.41305829  1  0.118679  0.000193  0.973112  0.0  0.138042  0.000206  1.039299  0.0  0.14133  0.000103  1.036977  0.0  0.090387  0.135597  0.00031  1.041053  0.0
H  H45  1  0.92247692  0.81501660  0.08694118  1  0.118665  0.000194  0.973101  0.0  0.138035  0.000206  1.039288  0.0  0.141324  0.000103  1.036964  0.0  0.090377  0.135581  0.000312  1.041047  0.0
H  H46  1  0.57752694  0.31501707  0.58694341  1  0.118637  0.000193  0.973127  0.0  0.137996  0.000206  1.039322  0.0  0.141285  0.000103  1.036999  0.0  0.090368  0.135546  0.000308  1.041073  0.0
H  H47  1  0.07752695  0.18498328  0.91305601  1  0.118635  0.000194  0.973147  0.0  0.137996  0.000206  1.039337  0.0  0.141285  0.000103  1.037013  0.0  0.090361  0.135542  0.000308  1.041095  0.0
H  H48  1  0.39063876  0.77023989  0.54043497  1  0.14421  -0.000194  0.949795  0.0  0.166149  -9.5e-05  1.005418  0.0  0.169346  -0.000134  1.003784  0.0  0.100764  0.163583  -5.4e-05  1.006858  0.0
H  H49  1  0.89063874  0.72975870  0.95956474  1  0.144191  -0.000192  0.949796  0.0  0.166127  -9.5e-05  1.005428  0.0  0.169325  -0.000134  1.003794  0.0  0.10075  0.163556  -5.6e-05  1.006869  0.0
H  H50  1  0.60936382  0.22975917  0.45956627  1  0.144205  -0.000194  0.949752  0.0  0.166133  -9.5e-05  1.005389  0.0  0.169333  -0.000134  1.003758  0.0  0.100761  0.163564  -5.4e-05  1.006833  0.0
H  H51  1  0.10936253  0.27023953  0.04043269  1  0.144203  -0.000192  0.949806  0.0  0.166142  -9.5e-05  1.005428  0.0  0.169339  -0.000134  1.003794  0.0  0.100768  0.163568  -5.6e-05  1.006874  0.0
C  C52  1  0.70130527  0.04632040  0.23439287  1  0.614045  -0.012471  3.877803  -0.011  0.570643  -0.004816  4.172039  -0.006  0.609867  -0.00429  4.168559  -0.004  0.196893  0.543867  -0.004579  4.174444  -0.006
C  C53  1  0.20130658  0.45367995  0.26560798  1  0.614071  -0.012472  3.877768  -0.011  0.570639  -0.004814  4.172056  -0.006  0.60986  -0.004291  4.168576  -0.004  0.196911  0.543867  -0.004589  4.174457  -0.006
C  C54  1  0.29869471  0.95368196  0.76560430  1  0.614121  -0.012472  3.87773  -0.011  0.570775  -0.004816  4.171887  -0.006  0.609996  -0.004292  4.168404  -0.004  0.196974  0.544004  -0.004572  4.174298  -0.006
C  C55  1  0.79869470  0.54632158  0.73439539  1  0.614109  -0.012471  3.877706  -0.011  0.570704  -0.004815  4.171951  -0.006  0.609926  -0.004292  4.168471  -0.004  0.196911  0.543927  -0.00458  4.174357  -0.006
C  C56  1  0.35125811  0.80128708  0.94787455  1  0.624422  -0.007156  3.922539  -0.008  0.582506  -0.001632  4.224762  -0.003  0.620632  -0.001776  4.218687  -0.002  0.203694  0.55695  -0.001103  4.228345  -0.003
C  C57  1  0.85125810  0.69871233  0.55212610  1  0.624332  -0.007156  3.922538  -0.008  0.582425  -0.001632  4.224781  -0.003  0.620547  -0.001776  4.218709  -0.002  0.203679  0.556877  -0.001104  4.228354  -0.003
C  C58  1  0.64873927  0.19871280  0.05212763  1  0.624269  -0.007154  3.922604  -0.008  0.582414  -0.001632  4.224807  -0.003  0.620535  -0.001776  4.218733  -0.002  0.203654  0.556861  -0.0011  4.228386  -0.003
C  C59  1  0.14873798  0.30128755  0.44787322  1  0.624336  -0.007155  3.922505  -0.008  0.582464  -0.001633  4.224717  -0.003  0.620587  -0.001777  4.218643  -0.002  0.203657  0.556908  -0.001094  4.228298  -0.003
C  C60  1  0.53674045  0.01634750  0.17792488  1  -0.058838  -0.008502  3.811885  -0.006  -0.032645  0.000194  4.049143  0.0  -0.039971  0.000393  4.069842  0.0  -0.024205  -0.027625  6.4e-05  4.034467  0.0
C  C61  1  0.03674046  0.48365368  0.32207335  1  -0.058788  -0.008487  3.811821  -0.006  -0.032608  0.000192  4.049096  0.0  -0.039935  0.000393  4.069797  0.0  -0.024237  -0.027592  5.4e-05  4.03441  0.0
C  C62  1  0.46326083  0.98365321  0.82207183  1  -0.058891  -0.008492  3.811957  -0.006  -0.032721  0.000194  4.049195  0.0  -0.040045  0.000395  4.069889  0.0  -0.02424  -0.027708  5.2e-05  4.034524  0.0
C  C63  1  0.96326342  0.51634786  0.67792858  1  -0.058789  -0.008483  3.811729  -0.006  -0.032621  0.000192  4.048982  0.0  -0.039947  0.000392  4.069679  0.0  -0.024191  -0.027599  6e-05  4.03429  0.0
C  C64  1  0.52322117  0.92085639  0.09494796  1  -0.083805  0.01695  3.698433  0.015  -0.128664  0.002596  3.953064  0.002  -0.125636  0.000987  3.97088  0.001  -0.087912  -0.129641  0.004715  3.939663  0.004
C  C65  1  0.02322248  0.57914385  0.40505007  1  -0.083822  0.016938  3.698431  0.015  -0.12865  0.002597  3.953053  0.002  -0.125625  0.000987  3.97087  0.001  -0.087861  -0.129614  0.004727  3.939664  0.004
C  C66  1  0.47677750  0.07914184  0.90504804  1  -0.083823  0.01694  3.698414  0.015  -0.12862  0.002596  3.953058  0.002  -0.125591  0.000985  3.970871  0.001  -0.087868  -0.129606  0.004736  3.939653  0.004
C  C67  1  0.97677879  0.42085769  0.59495329  1  -0.083811  0.016939  3.698347  0.015  -0.128632  0.002597  3.952986  0.002  -0.125604  0.000987  3.970801  0.001  -0.087869  -0.129607  0.004727  3.939585  0.004
C  C68  1  0.36761247  0.89936631  0.04097449  1  -0.056082  0.004211  3.788442  0.006  -0.031305  0.006138  4.02542  0.007  -0.039953  0.004174  4.048881  0.005  -0.02137  -0.025561  0.007549  4.008907  0.008
C  C69  1  0.86761375  0.60063393  0.45902355  1  -0.055994  0.004222  3.788385  0.006  -0.031269  0.006137  4.025409  0.007  -0.039915  0.004174  4.048871  0.005  -0.021362  -0.025536  0.007538  4.008901  0.008
C  C70  1  0.63238491  0.10063192  0.95902509  1  -0.055924  0.00422  3.788288  0.006  -0.031277  0.006138  4.025398  0.007  -0.039924  0.004174  4.048862  0.005  -0.021339  -0.025539  0.007527  4.00889  0.008
C  C71  1  0.13238622  0.39936678  0.54097744  1  -0.05599  0.004228  3.788293  0.006  -0.031358  0.006138  4.025428  0.007  -0.040004  0.004174  4.04889  0.005  -0.021356  -0.025616  0.007549  4.008919  0.008
C  C72  1  0.22604665  0.97146159  0.07070459  1  -0.162402  0.01136  3.673734  0.011  -0.196086  0.00193  3.927038  0.002  -0.198052  0.000761  3.946806  0.001  -0.087444  -0.194212  0.00332  3.913459  0.003
C  C73  1  0.72604664  0.52854031  0.42929462  1  -0.162453  0.011349  3.673774  0.011  -0.196124  0.001931  3.927091  0.002  -0.198086  0.000762  3.946845  0.001  -0.087476  -0.194245  0.003318  3.913511  0.003
C  C74  1  0.77394813  0.02853665  0.92929498  1  -0.162389  0.011348  3.673774  0.011  -0.196042  0.00193  3.927082  0.002  -0.19801  0.000762  3.946851  0.001  -0.087461  -0.194169  0.003317  3.913501  0.003
C  C75  1  0.27394944  0.47146206  0.57070611  1  -0.162365  0.011349  3.673649  0.011  -0.195992  0.001931  3.926945  0.002  -0.197961  0.000762  3.946717  0.001  -0.087414  -0.194111  0.00333  3.913368  0.003
C  C76  1  0.23863822  0.06611888  0.15438937  1  0.289536  -0.001992  3.790486  -0.002  0.288341  -0.000374  4.053917  0.0  0.293513  -0.00042  4.077905  0.0  0.087158  0.284164  0.000121  4.037584  0.0
C  C77  1  0.73863951  0.43388313  0.34560981  1  0.289509  -0.001979  3.790578  -0.002  0.288305  -0.000376  4.054006  0.0  0.293479  -0.000423  4.077989  0.0  0.087131  0.284129  0.000122  4.037677  0.0
C  C78  1  0.76135656  0.93387936  0.84561092  1  0.289451  -0.001984  3.790555  -0.002  0.28831  -0.000375  4.0539  0.0  0.293482  -0.000422  4.077887  0.0  0.087149  0.284135  0.00012  4.037567  0.0
C  C79  1  0.26135917  0.56612089  0.65439140  1  0.289454  -0.001974  3.790632  -0.002  0.288309  -0.000376  4.053946  0.0  0.29348  -0.000423  4.077934  0.0  0.087148  0.284132  0.000118  4.037613  0.0
C  C80  1  0.39555403  0.08798827  0.20763093  1  -0.143499  0.013559  3.629706  0.013  -0.185327  0.002118  3.889361  0.002  -0.187218  0.000659  3.908128  0.001  -0.086268  -0.183546  0.003917  3.87659  0.004
C  C81  1  0.89555402  0.41201291  0.29236873  1  -0.143489  0.013545  3.629819  0.013  -0.185289  0.002119  3.889437  0.002  -0.187182  0.00066  3.908204  0.001  -0.086247  -0.183509  0.003914  3.876659  0.004
C  C82  1  0.60444335  0.91200997  0.79236722  1  -0.143418  0.013548  3.629793  0.013  -0.185285  0.002118  3.889471  0.002  -0.187178  0.00066  3.908239  0.001  -0.086283  -0.183505  0.003926  3.876699  0.004
C  C83  1  0.10444726  0.58799028  0.70763510  1  -0.143537  0.013548  3.629823  0.013  -0.18533  0.002119  3.889456  0.002  -0.187222  0.000661  3.908224  0.001  -0.086312  -0.183552  0.003911  3.876678  0.004
C  C84  1  0.15987693  0.89644918  0.30335703  1  0.129402  -0.007525  3.724668  -0.005  0.102713  -0.002137  3.975235  -0.001  0.113587  -0.003389  3.99325  -0.002  0.043069  0.095743  -0.001223  3.963901  0.0
C  C85  1  0.65987302  0.60354941  0.19664197  1  0.12942  -0.007512  3.724608  -0.005  0.102715  -0.002137  3.97521  -0.001  0.11359  -0.00339  3.993228  -0.002  0.043084  0.095723  -0.001234  3.963883  0.0
C  C86  1  0.84012565  0.10354905  0.69664469  1  0.129354  -0.007518  3.724664  -0.005  0.102648  -0.002136  3.975262  -0.001  0.113523  -0.00339  3.993277  -0.002  0.043037  0.095668  -0.001219  3.963923  0.0
C  C87  1  0.34012436  0.39644800  0.80335523  1  0.129381  -0.007489  3.724719  -0.005  0.102681  -0.002136  3.975308  -0.001  0.113552  -0.00339  3.993325  -0.002  0.043024  0.095695  -0.001225  3.963975  0.0
C  C88  1  0.25765485  0.82006580  0.33276491  1  -0.184392  0.007066  3.696681  0.007  -0.194513  0.003557  3.924009  0.004  -0.203772  0.003235  3.942384  0.004  -0.084643  -0.188654  0.003759  3.912141  0.004
C  C89  1  0.75765224  0.67993444  0.16723527  1  -0.184357  0.007055  3.696678  0.007  -0.19448  0.003556  3.923994  0.004  -0.203738  0.003235  3.942371  0.004  -0.084623  -0.188623  0.003746  3.912135  0.004
C  C90  1  0.74234772  0.17993408  0.66723584  1  -0.184413  0.00706  3.696721  0.007  -0.194534  0.003556  3.924059  0.004  -0.203792  0.003235  3.942433  0.004  -0.084627  -0.188677  0.003748  3.912182  0.004
C  C91  1  0.24234903  0.32006462  0.83276383  1  -0.184328  0.00704  3.696802  0.007  -0.194473  0.003557  3.924118  0.004  -0.203731  0.003235  3.942493  0.004  -0.084626  -0.188621  0.003751  3.912254  0.004
C  C92  1  0.32592815  0.84844709  0.43022525  1  0.221311  -0.009534  3.714866  -0.006  0.24391  -0.004662  3.945893  -0.003  0.253356  -0.005012  3.964684  -0.003  0.020289  0.237328  -0.00441  3.933443  -0.003
C  C93  1  0.82592814  0.65155315  0.06977564  1  0.221218  -0.009516  3.714926  -0.006  0.243833  -0.004662  3.945936  -0.003  0.25328  -0.005012  3.964728  -0.003  0.02024  0.237252  -0.004394  3.933477  -0.003
C  C94  1  0.67407442  0.15155445  0.56977811  1  0.221284  -0.009525  3.714927  -0.006  0.24386  -0.004661  3.945979  -0.003  0.253307  -0.005011  3.964769  -0.003  0.020239  0.237287  -0.004386  3.933523  -0.003
C  C95  1  0.17407184  0.34844673  0.93022368  1  0.221211  -0.009497  3.714946  -0.006  0.243859  -0.004662  3.945908  -0.003  0.253306  -0.005012  3.964698  -0.003  0.020246  0.237278  -0.004403  3.933447  -0.003
C  C96  1  0.29034927  0.95536035  0.49411235  1  -0.180492  0.006239  3.701297  0.007  -0.202302  0.002346  3.954713  0.003  -0.212118  0.00222  3.974117  0.003  -0.084498  -0.196489  0.002437  3.942727  0.003
C  C97  1  0.79034926  0.54464072  0.00588806  1  -0.180446  0.006227  3.701277  0.007  -0.202259  0.002346  3.954684  0.003  -0.212077  0.00222  3.974091  0.003  -0.084497  -0.196446  0.002434  3.942683  0.003
C  C98  1  0.70965200  0.04464037  0.50588864  1  -0.180444  0.006233  3.701241  0.007  -0.202245  0.002346  3.954672  0.003  -0.212062  0.00222  3.974077  0.003  -0.084483  -0.196443  0.002434  3.942689  0.003
C  C99  1  0.20964942  0.45535999  0.99411007  1  -0.180482  0.006213  3.701227  0.007  -0.202301  0.002346  3.954652  0.003  -0.212116  0.002221  3.974054  0.003  -0.084517  -0.196493  0.002442  3.942659  0.003
C  C100  1  0.19097840  0.02717807  0.45995611  1  0.125472  -0.008926  3.727719  -0.006  0.097728  -0.003419  3.985915  -0.002  0.107627  -0.004644  4.004357  -0.003  0.041274  0.091652  -0.002508  3.974126  -0.002
C  C101  1  0.69097709  0.47282228  0.04004332  1  0.125419  -0.008912  3.727738  -0.006  0.097701  -0.003419  3.985936  -0.002  0.107603  -0.004645  4.004377  -0.003  0.041277  0.091604  -0.002495  3.974135  -0.002
C  C102  1  0.80902418  0.97282099  0.54004513  1  0.125432  -0.008916  3.727669  -0.006  0.097664  -0.003419  3.985878  -0.002  0.107565  -0.004644  4.00432  -0.003  0.041277  0.091574  -0.002495  3.97409  -0.002
C  C103  1  0.30902159  0.52717760  0.95995315  1  0.125444  -0.008891  3.727753  -0.006  0.097673  -0.00342  3.985974  -0.002  0.107571  -0.004646  4.004415  -0.003  0.041249  0.091591  -0.002502  3.974181  -0.002
C  C104  1  0.43174488  0.76918707  0.46513885  1  -0.362595  0.000377  3.690071  0.001  -0.443702  0.000126  3.920073  0.0  -0.447688  -3.1e-05  3.92534  0.0  -0.244478  -0.440539  0.000295  3.916678  0.0
C  C105  1  0.93174227  0.73081234  0.03486181  1  -0.362509  0.00037  3.690008  0.001  -0.443617  0.000126  3.920015  0.0  -0.447602  -3e-05  3.925282  0.0  -0.244446  -0.440455  0.000291  3.91662  0.0
C  C106  1  0.56826030  0.23081199  0.53486381  1  -0.36243  0.000376  3.689852  0.001  -0.443497  0.000126  3.919881  0.0  -0.447489  -3.1e-05  3.925151  0.0  -0.244395  -0.440338  0.000298  3.916487  0.0
C  C107  1  0.06825771  0.26918672  0.96513728  1  -0.36243  0.00037  3.689956  0.001  -0.443533  0.000126  3.919965  0.0  -0.447519  -3.1e-05  3.92523  0.0  -0.244407  -0.44037  0.0003  3.916573  0.0
N  N108  1  0.09725690  0.13851248  0.19006302  1  -0.664048  0.027515  3.156753  0.036  -0.648811  0.007116  3.422982  0.011  -0.676116  0.002875  3.418333  0.006  -0.615821  -0.629298  0.011738  3.425536  0.016
N  N109  1  0.59725819  0.36148870  0.30993592  1  -0.664081  0.027514  3.156681  0.036  -0.64884  0.007115  3.422897  0.011  -0.676133  0.002875  3.418227  0.006  -0.615788  -0.629329  0.011745  3.425449  0.016
N  N110  1  0.90274177  0.86148658  0.80993679  1  -0.664164  0.027505  3.156664  0.036  -0.64884  0.007113  3.422838  0.011  -0.676141  0.002874  3.418182  0.006  -0.615855  -0.629335  0.011745  3.425405  0.016
N  N111  1  0.40274308  0.63851449  0.69006434  1  -0.664121  0.027526  3.156647  0.036  -0.648928  0.007116  3.422853  0.011  -0.676229  0.002876  3.418193  0.006  -0.615849  -0.62942  0.011741  3.425413  0.016
N  N112  1  0.12633796  0.99858512  0.36586844  1  -0.330023  0.053245  3.388177  0.069  -0.283341  0.041538  3.695792  0.058  -0.314807  0.034057  3.714599  0.052  -0.3612  -0.265927  0.044636  3.686195  0.059
N  N113  1  0.62633405  0.50141347  0.13413056  1  -0.32993  0.053238  3.388224  0.069  -0.283255  0.041537  3.695842  0.058  -0.31472  0.034057  3.714639  0.052  -0.361173  -0.265817  0.044629  3.686195  0.059
N  N114  1  0.87366202  0.00141311  0.63413257  1  -0.329964  0.053245  3.388156  0.069  -0.283265  0.041539  3.695766  0.058  -0.314737  0.034058  3.71458  0.052  -0.361198  -0.265853  0.044615  3.686164  0.059
N  N115  1  0.37366073  0.49858559  0.86586639  1  -0.330003  0.053224  3.388197  0.068  -0.283286  0.041537  3.695797  0.058  -0.314751  0.034057  3.714599  0.052  -0.361192  -0.265881  0.044626  3.686192  0.059
O  O116  1  0.71964756  0.14181553  0.29956878  1  -0.587493  0.050814  2.029975  0.068  -0.542004  0.036814  2.280966  0.055  -0.582688  0.024978  2.275129  0.041  -0.305855  -0.515543  0.044571  2.285584  0.062
O  O117  1  0.21964887  0.35818565  0.20043087  1  -0.587483  0.050812  2.02996  0.068  -0.541994  0.03681  2.281005  0.055  -0.58267  0.024977  2.275159  0.041  -0.305862  -0.515538  0.044567  2.28561  0.062
O  O118  1  0.28034722  0.85818436  0.70043126  1  -0.587477  0.050823  2.029928  0.068  -0.542001  0.036815  2.280907  0.055  -0.582691  0.024979  2.275076  0.041  -0.305858  -0.515546  0.044573  2.285532  0.062
O  O119  1  0.78034981  0.64181754  0.79957010  1  -0.587518  0.050811  2.029933  0.068  -0.542035  0.036811  2.280979  0.055  -0.582723  0.024977  2.27514  0.041  -0.305851  -0.51558  0.044569  2.285598  0.062
O  O120  1  0.83084601  0.97909488  0.22002821  1  -0.580388  0.098127  1.951534  0.129  -0.555004  0.066287  2.216263  0.096  -0.602871  0.045453  2.214638  0.073  -0.313124  -0.523927  0.079483  2.217737  0.109
O  O121  1  0.33084732  0.52090619  0.27997291  1  -0.580412  0.098129  1.951518  0.129  -0.555019  0.066285  2.216261  0.096  -0.602876  0.045453  2.214625  0.073  -0.313139  -0.523941  0.07949  2.217714  0.109
O  O122  1  0.16915657  0.02090913  0.77996585  1  -0.580387  0.098132  1.95152  0.129  -0.555044  0.066284  2.21622  0.096  -0.60292  0.045452  2.214609  0.073  -0.31314  -0.52396  0.079482  2.217685  0.109
O  O123  1  0.66915395  0.47909535  0.72002831  1  -0.58035  0.098137  1.951489  0.129  -0.554995  0.066286  2.216223  0.096  -0.602864  0.045453  2.214593  0.073  -0.313108  -0.523922  0.079494  2.217692  0.109
O  O124  1  0.48057927  0.73250312  0.93333338  1  -0.589796  0.108205  2.082673  0.142  -0.5724  0.068768  2.384651  0.101  -0.622562  0.048577  2.378386  0.078  -0.331807  -0.54032  0.081079  2.38945  0.112
O  O125  1  0.98058056  0.76749630  0.56666728  1  -0.589792  0.108204  2.082617  0.142  -0.572375  0.06877  2.384583  0.101  -0.622546  0.048578  2.378345  0.078  -0.331794  -0.540302  0.081087  2.389411  0.112
O  O126  1  0.51942071  0.26749924  0.06666522  1  -0.58974  0.108214  2.08266  0.142  -0.572411  0.068768  2.384635  0.101  -0.622564  0.048578  2.378373  0.078  -0.331801  -0.540319  0.081099  2.389414  0.112
O  O127  1  0.01941942  0.23250194  0.43333443  1  -0.589744  0.108214  2.082584  0.142  -0.572419  0.068769  2.384574  0.101  -0.622581  0.048577  2.378321  0.078  -0.331811  -0.540327  0.081083  2.389364  0.112
O  O128  1  0.22075068  0.79134322  0.89262558  1  -0.601203  -0.001434  1.977529  0.001  -0.555168  -0.000548  2.208233  0.001  -0.580282  -0.001464  2.201274  0.0  -0.308654  -0.53832  0.000476  2.212896  0.002
O  O129  1  0.72075327  0.70865206  0.60737391  1  -0.601161  -0.001434  1.977641  0.001  -0.555114  -0.000548  2.208315  0.001  -0.580224  -0.001464  2.201352  0.0  -0.308655  -0.53827  0.000472  2.212981  0.002
O  O130  1  0.77924020  0.20865419  0.10737662  1  -0.601135  -0.001434  1.977653  0.001  -0.555103  -0.000548  2.208332  0.001  -0.580207  -0.001463  2.201366  0.0  -0.308629  -0.538257  0.000454  2.212994  0.002
O  O131  1  0.27923891  0.29134617  0.39262209  1  -0.60117  -0.001433  1.977609  0.001  -0.555115  -0.000548  2.208272  0.001  -0.58022  -0.001463  2.201303  0.0  -0.308623  -0.538279  0.000467  2.212947  0.002
