# generated using pymatgen
data_CsH3C6NO2
_symmetry_space_group_name_H-M   'P 1'
_cell_length_a   7.57918574
_cell_length_b   12.01014629
_cell_length_c   17.19490000
_cell_angle_alpha   90.00000000
_cell_angle_beta   90.00000000
_cell_angle_gamma   90.00000000
_symmetry_Int_Tables_number   1
_chemical_formula_structural   CsH3C6NO2
_chemical_formula_sum   'Cs8 H24 C48 N8 O16'
_cell_volume   1565.20239012
_cell_formula_units_Z   8
loop_
 _symmetry_equiv_pos_site_id
 _symmetry_equiv_pos_as_xyz
  1  'x, y, z'
loop_
 _atom_site_type_symbol
 _atom_site_label
 _atom_site_symmetry_multiplicity
 _atom_site_fract_x
 _atom_site_fract_y
 _atom_site_fract_z
 _atom_site_occupancy
 _atom_site_hle17_bader_spin_density
 _atom_site_hle17_ddec_charge
 _atom_site_hle17_ddec_spin_density
 _atom_site_hle17_ddec_sum_bond_order
 _atom_site_hle17_magmom
 _atom_site_hse06_10hf_bader_spin_density
 _atom_site_hse06_10hf_ddec_charge
 _atom_site_hse06_10hf_ddec_spin_density
 _atom_site_hse06_10hf_ddec_sum_bond_order
 _atom_site_hse06_10hf_magmom
 _atom_site_hse06_bader_spin_density
 _atom_site_hse06_ddec_charge
 _atom_site_hse06_ddec_spin_density
 _atom_site_hse06_ddec_sum_bond_order
 _atom_site_hse06_magmom
 _atom_site_pbe_bader_charge
 _atom_site_pbe_bader_spin_density
 _atom_site_pbe_cm5_charge
 _atom_site_pbe_ddec_charge
 _atom_site_pbe_ddec_spin_density
 _atom_site_pbe_ddec_sum_bond_order
 _atom_site_pbe_magmom
Cs  Cs0  1  0.93361348  0.10376227  0.88907874  1  0  0.93127  0  0.638055  0  0  0.864633  0  0.879821  0  0  0.881876  0  0.856087  0  0.890874  0  0.941087  0.85152  0  0.897058  0
Cs  Cs1  1  0.43360990  0.89623221  0.88907816  1  0  0.931259  0  0.63805  0  0  0.864629  0  0.879795  0  0  0.881873  0  0.856061  0  0.890865  0  0.941071  0.851513  0  0.897032  0
Cs  Cs2  1  0.06638972  0.60376867  0.38907525  1  0  0.931263  0  0.638057  0  0  0.864644  0  0.879793  0  0  0.881887  0  0.856059  0  0.890867  0  0.94107  0.851531  0  0.897031  0
Cs  Cs3  1  0.43360858  0.60376200  0.61092184  1  0  0.931257  0  0.63803  0  0  0.864622  0  0.879795  0  0  0.881867  0  0.856061  0  0.890861  0  0.941069  0.851504  0  0.897034  0
Cs  Cs4  1  0.06639236  0.89623138  0.11092359  1  0  0.93125  0  0.638057  0  0  0.864636  0  0.879803  0  0  0.881873  0  0.856064  0  0.89088  0  0.941098  0.851516  0  0.897033  0
Cs  Cs5  1  0.56639462  0.10376809  0.11092533  1  0  0.931241  0  0.638086  0  0  0.864623  0  0.87983  0  0  0.881867  0  0.856094  0  0.890852  0  0.941092  0.851509  0  0.897064  0
Cs  Cs6  1  0.93360689  0.39623248  0.61092708  1  0  0.931256  0  0.638094  0  0  0.864644  0  0.879827  0  0  0.881888  0  0.856094  0  0.890864  0  0.941098  0.851529  0  0.897066  0
Cs  Cs7  1  0.56638802  0.39623248  0.38907467  1  0  0.931273  0  0.638024  0  0  0.864651  0  0.879776  0  0  0.881892  0  0.856042  0  0.890872  0  0.941054  0.851535  0  0.897015  0
H  H8  1  0.02092045  0.63621123  0.96798004  1  0  0.089216  0  0.941974  0  0  0.102801  0  0.99911  0  0  0.105996  0  0.996787  0  0.074004  0  0.110497  0.100365  0  1.001019  0
H  H9  1  0.52092403  0.36378241  0.96798120  1  0  0.089151  0  0.941905  0  0  0.102722  0  0.999071  0  0  0.105919  0  0.996743  0  0.073992  0  0.110461  0.10026  0  1.001007  0
H  H10  1  0.97906560  0.13621732  0.46798004  1  0  0.08923  0  0.942095  0  0  0.102791  0  0.99926  0  0  0.105986  0  0.996933  0  0.073989  0  0.110484  0.100333  0  1.001193  0
H  H11  1  0.52092799  0.13621982  0.53202287  1  0  0.089156  0  0.941987  0  0  0.102736  0  0.999131  0  0  0.105931  0  0.996806  0  0.074079  0  0.110471  0.100287  0  1.001054  0
H  H12  1  0.97907351  0.36377575  0.03201414  1  0  0.089249  0  0.941801  0  0  0.102823  0  0.998977  0  0  0.106021  0  0.996642  0  0.073963  0  0.110509  0.100353  0  1.000922  0
H  H13  1  0.47908181  0.63622206  0.03201647  1  0  0.089161  0  0.941991  0  0  0.102744  0  0.999143  0  0  0.105938  0  0.99682  0  0.073976  0  0.110504  0.100287  0  1.001072  0
H  H14  1  0.02092309  0.86378215  0.53201996  1  0  0.089149  0  0.942058  0  0  0.102726  0  0.999212  0  0  0.105921  0  0.996885  0  0.073971  0  0.110484  0.100266  0  1.001145  0
H  H15  1  0.47907257  0.86377716  0.46798004  1  0  0.089143  0  0.942061  0  0  0.102727  0  0.999209  0  0  0.105923  0  0.996879  0  0.074001  0  0.110471  0.10029  0  1.001119  0
H  H16  1  0.14448254  0.45516098  0.91689571  1  0  0.092626  0  0.952863  0  0  0.10488  0  1.009486  0  0  0.108119  0  1.008492  0  0.076576  0  0.104897  0.102313  0  1.010829  0
H  H17  1  0.64449008  0.54482933  0.91689862  1  0  0.092652  0  0.952854  0  0  0.104897  0  1.009506  0  0  0.108137  0  1.008511  0  0.076592  0  0.104882  0.102329  0  1.01085  0
H  H18  1  0.85550219  0.95516488  0.41690385  1  0  0.092687  0  0.952711  0  0  0.104907  0  1.009387  0  0  0.108147  0  1.008395  0  0.077032  0  0.104894  0.102339  0  1.01073  0
H  H19  1  0.64449799  0.95517488  0.58310197  1  0  0.092669  0  0.95274  0  0  0.104865  0  1.009471  0  0  0.108104  0  1.008478  0  0.076598  0  0.10487  0.102298  0  1.010814  0
H  H20  1  0.85550483  0.54482434  0.08309790  1  0  0.092611  0  0.952891  0  0  0.104858  0  1.009541  0  0  0.108097  0  1.008548  0  0.076556  0  0.104873  0.102291  0  1.010885  0
H  H21  1  0.35550521  0.45517847  0.08309906  1  0  0.092615  0  0.952798  0  0  0.104823  0  1.009508  0  0  0.108059  0  1.00852  0  0.076585  0  0.104836  0.102256  0  1.010853  0
H  H22  1  0.14449177  0.04483209  0.58309906  1  0  0.092669  0  0.952819  0  0  0.104931  0  1.009446  0  0  0.108171  0  1.008455  0  0.076583  0  0.1049  0.102363  0  1.010791  0
H  H23  1  0.35550917  0.04483209  0.41690327  1  0  0.09263  0  0.952722  0  0  0.104896  0  1.009368  0  0  0.108137  0  1.008374  0  0.076537  0  0.104872  0.102328  0  1.010711  0
H  H24  1  0.22434336  0.44376479  0.77515542  1  0  0.087834  0  0.940409  0  0  0.093571  0  1.00677  0  0  0.097391  0  1.003344  0  0.12336  0  0.120253  0.090761  0  1.00924  0
H  H25  1  0.72434430  0.55623219  0.77515833  1  0  0.087783  0  0.940474  0  0  0.093509  0  1.006837  0  0  0.097328  0  1.003412  0  0.123399  0  0.120249  0.090704  0  1.009304  0
H  H26  1  0.77565192  0.94376119  0.27515775  1  0  0.087703  0  0.940279  0  0  0.093385  0  1.006705  0  0  0.097203  0  1.003275  0  0.123406  0  0.120193  0.090576  0  1.009179  0
H  H27  1  0.72435090  0.94376869  0.72484225  1  0  0.087685  0  0.940333  0  0  0.093416  0  1.006721  0  0  0.097235  0  1.003297  0  0.123411  0  0.120193  0.090608  0  1.009191  0
H  H28  1  0.77565456  0.55622969  0.22483702  1  0  0.0877  0  0.940441  0  0  0.09342  0  1.006834  0  0  0.097234  0  1.003405  0  0.123467  0  0.120227  0.090616  0  1.009299  0
H  H29  1  0.27564834  0.44377228  0.22483760  1  0  0.087714  0  0.940392  0  0  0.093403  0  1.006821  0  0  0.097212  0  1.003393  0  0.123459  0  0.120228  0.090601  0  1.009279  0
H  H30  1  0.22435128  0.05623412  0.72484051  1  0  0.087703  0  0.940281  0  0  0.093422  0  1.006677  0  0  0.097241  0  1.003252  0  0.123404  0  0.120207  0.090617  0  1.00914  0
H  H31  1  0.27565758  0.05623412  0.27516124  1  0  0.087781  0  0.9405  0  0  0.093522  0  1.006844  0  0  0.097342  0  1.003417  0  0.123418  0  0.120254  0.090715  0  1.009313  0
C  C32  1  0.08365279  0.70256097  0.77807664  1  0  0.168  0  3.736576  0  0  0.159466  0  3.985227  0  0  0.166259  0  4.002425  0  0.533762  0  0.125896  0.154905  0  3.973853  0
C  C33  1  0.58364977  0.29744101  0.77807722  1  0  0.168128  0  3.73641  0  0  0.159544  0  3.985143  0  0  0.166336  0  4.002342  0  0.570503  0  0.125947  0.154982  0  3.97377  0
C  C34  1  0.91635305  0.20256289  0.27808129  1  0  0.168208  0  3.736576  0  0  0.159776  0  3.985177  0  0  0.166579  0  4.002375  0  0.570229  0  0.126015  0.155212  0  3.973807  0
C  C35  1  0.58364713  0.20256123  0.72192220  1  0  0.168097  0  3.736435  0  0  0.159671  0  3.984991  0  0  0.166461  0  4.002191  0  0.533599  0  0.125968  0.155108  0  3.973619  0
C  C36  1  0.91635173  0.29743601  0.22192511  1  0  0.168035  0  3.736734  0  0  0.159448  0  3.98543  0  0  0.166243  0  4.002639  0  0.533539  0  0.125908  0.154888  0  3.974057  0
C  C37  1  0.41634815  0.70256513  0.22192452  1  0  0.168027  0  3.736573  0  0  0.159568  0  3.985151  0  0  0.166361  0  4.002363  0  0.533576  0  0.125851  0.155002  0  3.973777  0
C  C38  1  0.08365015  0.79743658  0.72192045  1  0  0.168214  0  3.736529  0  0  0.159784  0  3.985101  0  0  0.166579  0  4.002297  0  0.570244  0  0.126004  0.155219  0  3.973729  0
C  C39  1  0.41635079  0.79744491  0.27808071  1  0  0.168106  0  3.736612  0  0  0.159564  0  3.985313  0  0  0.16636  0  4.00251  0  0.57009  0  0.126026  0.155004  0  3.973937  0
C  C40  1  0.03027634  0.71596380  0.85598695  1  0  -0.108563  0  3.690172  0  0  -0.089379  0  3.923495  0  0  -0.096632  0  3.941825  0  -0.058398  0  -0.007096  -0.085185  0  3.911684  0
C  C41  1  0.53027464  0.28403817  0.85598869  1  0  -0.108674  0  3.690083  0  0  -0.089489  0  3.923456  0  0  -0.096737  0  3.941784  0  -0.058377  0  -0.007131  -0.085295  0  3.911639  0
C  C42  1  0.96972818  0.21596823  0.35599044  1  0  -0.108747  0  3.690467  0  0  -0.089624  0  3.923833  0  0  -0.096896  0  3.94218  0  -0.057863  0  -0.007151  -0.085433  0  3.912022  0
C  C43  1  0.53027200  0.21595990  0.64401247  1  0  -0.10864  0  3.690102  0  0  -0.089442  0  3.923376  0  0  -0.096689  0  3.941706  0  -0.058272  0  -0.007124  -0.085247  0  3.911562  0
C  C44  1  0.96972422  0.28403567  0.14401480  1  0  -0.10865  0  3.690045  0  0  -0.089368  0  3.923307  0  0  -0.096643  0  3.941672  0  -0.071643  0  -0.007135  -0.085172  0  3.911485  0
C  C45  1  0.46972196  0.71596297  0.14401247  1  0  -0.108732  0  3.689816  0  0  -0.089494  0  3.923126  0  0  -0.096768  0  3.94149  0  -0.058305  0  -0.007137  -0.085296  0  3.911307  0
C  C46  1  0.03027238  0.78403375  0.64401072  1  0  -0.108656  0  3.690293  0  0  -0.089578  0  3.923619  0  0  -0.09683  0  3.941944  0  -0.071286  0  -0.007135  -0.085384  0  3.911809  0
C  C47  1  0.46972724  0.78403291  0.35598753  1  0  -0.108534  0  3.690278  0  0  -0.089416  0  3.923633  0  0  -0.09667  0  3.941956  0  -0.071206  0  -0.007135  -0.085226  0  3.91183  0
C  C48  1  0.94859794  0.82232970  0.88607320  1  0  0.660494  0  4.016451  0  0  0.612495  0  4.318751  0  0  0.646676  0  4.308363  0  1.629993  0  0.160594  0.589258  0  4.324868  0
C  C49  1  0.44860360  0.17766561  0.88607436  1  0  0.660652  0  4.016169  0  0  0.612634  0  4.31851  0  0  0.646811  0  4.308124  0  1.629946  0  0.160621  0.5894  0  4.324626  0
C  C50  1  0.05140130  0.32232996  0.38607494  1  0  0.660881  0  4.016094  0  0  0.612914  0  4.31835  0  0  0.647097  0  4.307955  0  1.630515  0  0.160733  0.589688  0  4.324454  0
C  C51  1  0.44860360  0.32233995  0.61392797  1  0  0.660647  0  4.01638  0  0  0.612613  0  4.318725  0  0  0.646791  0  4.308342  0  1.630156  0  0.16069  0.589375  0  4.324843  0
C  C52  1  0.05139998  0.17765978  0.11392739  1  0  0.660702  0  4.016264  0  0  0.612638  0  4.318639  0  0  0.646822  0  4.308258  0  1.643422  0  0.160643  0.589402  0  4.324758  0
C  C53  1  0.55141412  0.82234136  0.11392680  1  0  0.66063  0  4.016178  0  0  0.612506  0  4.31867  0  0  0.6467  0  4.308273  0  1.62965  0  0.160622  0.589269  0  4.324782  0
C  C54  1  0.94860454  0.67766618  0.61392739  1  0  0.660439  0  4.016607  0  0  0.612601  0  4.318641  0  0  0.646782  0  4.308245  0  1.643352  0  0.160592  0.589363  0  4.324764  0
C  C55  1  0.55139169  0.67766618  0.38606971  1  0  0.660451  0  4.016607  0  0  0.61257  0  4.318711  0  0  0.646751  0  4.308315  0  1.643227  0  0.160589  0.589335  0  4.324828  0
C  C56  1  0.05528562  0.62621052  0.90671478  1  0  -0.04721  0  3.753522  0  0  -0.072833  0  4.000838  0  0  -0.070456  0  4.019648  0  -0.089892  0  -0.070954  -0.074043  0  3.987976  0
C  C57  1  0.55528788  0.37378812  0.90671594  1  0  -0.047026  0  3.753483  0  0  -0.07262  0  4.000765  0  0  -0.070251  0  4.019586  0  -0.09003  0  -0.070861  -0.073804  0  3.987908  0
C  C58  1  0.94471098  0.12622744  0.40671943  1  0  -0.047151  0  3.753744  0  0  -0.072746  0  4.001036  0  0  -0.07037  0  4.019866  0  -0.090873  0  -0.070977  -0.073935  0  3.988181  0
C  C59  1  0.55529052  0.12621162  0.59328347  1  0  -0.046992  0  3.753564  0  0  -0.072605  0  4.00083  0  0  -0.070234  0  4.019642  0  -0.090259  0  -0.070851  -0.073803  0  3.987972  0
C  C60  1  0.94470570  0.37378479  0.09328231  1  0  -0.047233  0  3.753292  0  0  -0.072876  0  4.000594  0  0  -0.070496  0  4.019422  0  -0.090113  0  -0.07094  -0.074052  0  3.987739  0
C  C61  1  0.44470872  0.62621385  0.09328231  1  0  -0.047039  0  3.753526  0  0  -0.072661  0  4.000798  0  0  -0.070289  0  4.019631  0  -0.09013  0  -0.070877  -0.073849  0  3.987939  0
C  C62  1  0.05528826  0.87378120  0.59328231  1  0  -0.047006  0  3.753491  0  0  -0.072599  0  4.000799  0  0  -0.07023  0  4.019624  0  -0.090552  0  -0.070886  -0.073787  0  3.987944  0
C  C63  1  0.44471136  0.87377953  0.40671653  1  0  -0.046984  0  3.753426  0  0  -0.072584  0  4.00073  0  0  -0.07021  0  4.019555  0  -0.090677  0  -0.070812  -0.07379  0  3.987868  0
C  C64  1  0.12403047  0.52651565  0.87875126  1  0  -0.129571  0  3.790436  0  0  -0.142349  0  4.044433  0  0  -0.148955  0  4.066802  0  -0.080804  0  -0.088574  -0.138128  0  4.029648  0
C  C65  1  0.62403273  0.47347883  0.87875417  1  0  -0.129681  0  3.790641  0  0  -0.142466  0  4.044646  0  0  -0.149074  0  4.067016  0  -0.080736  0  -0.088657  -0.138242  0  4.029853  0
C  C66  1  0.87597273  0.02653007  0.37876231  1  0  -0.129567  0  3.790138  0  0  -0.142324  0  4.044094  0  0  -0.148935  0  4.066459  0  -0.080755  0  -0.088483  -0.138098  0  4.0293  0
C  C67  1  0.62403537  0.02652591  0.62124525  1  0  -0.129703  0  3.790518  0  0  -0.142458  0  4.044538  0  0  -0.149062  0  4.066901  0  -0.080684  0  -0.088659  -0.138234  0  4.029749  0
C  C68  1  0.87596085  0.47347800  0.12124700  1  0  -0.129532  0  3.790564  0  0  -0.142296  0  4.044554  0  0  -0.148903  0  4.06692  0  -0.080691  0  -0.088582  -0.138074  0  4.029759  0
C  C69  1  0.37596387  0.52652481  0.12124467  1  0  -0.129593  0  3.790658  0  0  -0.14235  0  4.044654  0  0  -0.148953  0  4.067015  0  -0.080787  0  -0.088648  -0.138128  0  4.029866  0
C  C70  1  0.12403179  0.97347607  0.62124467  1  0  -0.129716  0  3.790457  0  0  -0.142526  0  4.044448  0  0  -0.149135  0  4.066813  0  -0.080618  0  -0.088664  -0.138303  0  4.029656  0
C  C71  1  0.37596783  0.97347440  0.37875358  1  0  -0.12966  0  3.790417  0  0  -0.142471  0  4.04445  0  0  -0.149082  0  4.066816  0  -0.080588  0  -0.088627  -0.138246  0  4.029662  0
C  C72  1  0.16905114  0.51995536  0.80013492  1  0  0.105117  0  3.758745  0  0  0.07871  0  4.022474  0  0  0.084926  0  4.038789  0  0.500603  0  0.037638  0.0747  0  4.011394  0
C  C73  1  0.66905340  0.48004411  0.80013899  1  0  0.105158  0  3.759079  0  0  0.078773  0  4.022783  0  0  0.08499  0  4.039098  0  0.50048  0  0.037693  0.074759  0  4.011706  0
C  C74  1  0.83095074  0.01996229  0.30013958  1  0  0.105204  0  3.758268  0  0  0.078889  0  4.021987  0  0  0.085116  0  4.038296  0  0.500496  0  0.037716  0.074876  0  4.010901  0
C  C75  1  0.66905604  0.01996062  0.69986101  1  0  0.105282  0  3.758639  0  0  0.078899  0  4.02235  0  0  0.085117  0  4.038664  0  0.500489  0  0.037732  0.074885  0  4.01127  0
C  C76  1  0.83094546  0.48004161  0.19985926  1  0  0.105294  0  3.758928  0  0  0.078897  0  4.022664  0  0  0.085124  0  4.038969  0  0.50034  0  0.037733  0.074886  0  4.011585  0
C  C77  1  0.33094188  0.51996119  0.19985810  1  0  0.105212  0  3.758877  0  0  0.07886  0  4.022592  0  0  0.085094  0  4.038889  0  0.500435  0  0.037703  0.074849  0  4.011512  0
C  C78  1  0.16905642  0.98003885  0.69986159  1  0  0.105265  0  3.758541  0  0  0.078915  0  4.022234  0  0  0.085133  0  4.038549  0  0.500581  0  0.037712  0.074904  0  4.011152  0
C  C79  1  0.33094584  0.98004302  0.30013841  1  0  0.105108  0  3.758965  0  0  0.078714  0  4.022685  0  0  0.084932  0  4.038998  0  0.500514  0  0.037641  0.074701  0  4.011603  0
N  N80  1  0.15123129  0.60616747  0.75117157  1  0  -0.382967  0  3.155671  0  0  -0.344133  0  3.425603  0  0  -0.356413  0  3.44176  0  -1.195751  0  -0.392275  -0.335835  0  3.414623  0
N  N81  1  0.65123091  0.39383367  0.75117506  1  0  -0.382986  0  3.155879  0  0  -0.344135  0  3.425803  0  0  -0.356415  0  3.441961  0  -1.195501  0  -0.392297  -0.335838  0  3.414829  0
N  N82  1  0.84877192  0.10617190  0.25116924  1  0  -0.383007  0  3.155487  0  0  -0.344225  0  3.425397  0  0  -0.356506  0  3.441548  0  -1.195442  0  -0.392312  -0.335928  0  3.41442  0
N  N83  1  0.65123223  0.10616940  0.74882843  1  0  -0.383046  0  3.155636  0  0  -0.344236  0  3.425514  0  0  -0.356516  0  3.441672  0  -1.195449  0  -0.392273  -0.335939  0  3.414541  0
N  N84  1  0.84877455  0.39383117  0.24882145  1  0  -0.383056  0  3.155877  0  0  -0.344215  0  3.425823  0  0  -0.356494  0  3.441973  0  -1.195309  0  -0.392317  -0.335923  0  3.414853  0
N  N85  1  0.34876570  0.60616997  0.24882262  1  0  -0.382992  0  3.155756  0  0  -0.344179  0  3.425637  0  0  -0.356457  0  3.441787  0  -1.195351  0  -0.392258  -0.335883  0  3.414665  0
N  N86  1  0.15123260  0.89382675  0.74882727  1  0  -0.382995  0  3.155624  0  0  -0.344215  0  3.425532  0  0  -0.356495  0  3.441688  0  -1.195418  0  -0.392241  -0.335919  0  3.414557  0
N  N87  1  0.34876702  0.89383341  0.25117331  1  0  -0.382919  0  3.1557  0  0  -0.344091  0  3.425651  0  0  -0.356372  0  3.441805  0  -1.195338  0  -0.392277  -0.335796  0  3.414674  0
O  O88  1  0.80981522  0.85628099  0.85281799  1  0  -0.708904  0  1.944084  0  0  -0.663061  0  2.180198  0  0  -0.688343  0  2.170387  0  -1.201334  0  -0.485312  -0.644499  0  2.186164  0
O  O89  1  0.30981033  0.14371265  0.85282089  1  0  -0.709031  0  1.943807  0  0  -0.663175  0  2.179933  0  0  -0.688459  0  2.170123  0  -1.201347  0  -0.485382  -0.644615  0  2.185902  0
O  O90  1  0.19017214  0.35628958  0.35282613  1  0  -0.709095  0  1.944012  0  0  -0.663272  0  2.180144  0  0  -0.688546  0  2.170313  0  -1.201933  0  -0.485439  -0.644719  0  2.186113  0
O  O91  1  0.30980109  0.35628792  0.64718201  1  0  -0.709048  0  1.943925  0  0  -0.663193  0  2.180059  0  0  -0.688478  0  2.170249  0  -1.201522  0  -0.485447  -0.64463  0  2.186027  0
O  O92  1  0.19019721  0.14371515  0.14718318  1  0  -0.709072  0  1.943852  0  0  -0.663222  0  2.180016  0  0  -0.688505  0  2.170198  0  -1.201523  0  -0.485417  -0.644659  0  2.185983  0
O  O93  1  0.69019947  0.85628599  0.14718841  1  0  -0.70892  0  1.944246  0  0  -0.663058  0  2.180449  0  0  -0.688341  0  2.170621  0  -1.201163  0  -0.485349  -0.644497  0  2.186412  0
O  O94  1  0.80980995  0.64371406  0.64717911  1  0  -0.70895  0  1.94389  0  0  -0.663155  0  2.179915  0  0  -0.688441  0  2.170103  0  -1.201377  0  -0.485378  -0.644593  0  2.185886  0
O  O95  1  0.69019156  0.64371489  0.35281508  1  0  -0.709011  0  1.943813  0  0  -0.663208  0  2.179866  0  0  -0.688494  0  2.170049  0  -1.2014  0  -0.485412  -0.644645  0  2.185833  0
O  O96  1  0.02711109  0.86750484  0.94329365  1  0  -0.757379  0  1.990941  0  0  -0.704866  0  2.234688  0  0  -0.730505  0  2.224091  0  -1.221389  0  -0.556674  -0.686194  0  2.2411  0
O  O97  1  0.52711995  0.13249214  0.94329132  1  0  -0.757387  0  1.991116  0  0  -0.70487  0  2.234882  0  0  -0.730507  0  2.224288  0  -1.221367  0  -0.55662  -0.686199  0  2.241296  0
O  O98  1  0.97288023  0.36751259  0.44329481  1  0  -0.75756  0  1.990841  0  0  -0.705029  0  2.234518  0  0  -0.73067  0  2.223919  0  -1.221441  0  -0.556707  -0.686357  0  2.240929  0
O  O99  1  0.52711335  0.36750427  0.55670693  1  0  -0.757372  0  1.991195  0  0  -0.704885  0  2.235025  0  0  -0.730522  0  2.22443  0  -1.221332  0  -0.556656  -0.686215  0  2.241443  0
O  O100  1  0.97289607  0.13248798  0.05670809  1  0  -0.75737  0  1.99124  0  0  -0.70483  0  2.234996  0  0  -0.730464  0  2.224397  0  -1.221249  0  -0.556625  -0.686159  0  2.241409  0
O  O101  1  0.47289645  0.86751483  0.05670635  1  0  -0.75739  0  1.990876  0  0  -0.704816  0  2.234635  0  0  -0.730455  0  2.224031  0  -1.221198  0  -0.556647  -0.686144  0  2.241045  0
O  O102  1  0.02710581  0.63249105  0.55670868  1  0  -0.757321  0  1.991268  0  0  -0.70487  0  2.234945  0  0  -0.730509  0  2.224347  0  -1.221336  0  -0.55662  -0.686198  0  2.241363  0
O  O103  1  0.47289908  0.63248938  0.44328609  1  0  -0.757296  0  1.99129  0  0  -0.704814  0  2.234952  0  0  -0.73045  0  2.224354  0  -1.221022  0  -0.556589  -0.686144  0  2.241368  0
