# generated using pymatgen
data_CuH6(C2N)7
_symmetry_space_group_name_H-M   'P 1'
_cell_length_a   4.78880772
_cell_length_b   10.37558927
_cell_length_c   15.90363430
_cell_angle_alpha   90.00017007
_cell_angle_beta   89.99992706
_cell_angle_gamma   103.32450211
_symmetry_Int_Tables_number   1
_chemical_formula_structural   CuH6(C2N)7
_chemical_formula_sum   'Cu2 H12 C28 N14'
_cell_volume   768.92729654
_cell_formula_units_Z   2
loop_
 _symmetry_equiv_pos_site_id
 _symmetry_equiv_pos_as_xyz
  1  'x, y, z'
loop_
 _atom_site_type_symbol
 _atom_site_label
 _atom_site_symmetry_multiplicity
 _atom_site_fract_x
 _atom_site_fract_y
 _atom_site_fract_z
 _atom_site_occupancy
 _atom_site_hle17_bader_spin_density
 _atom_site_hle17_ddec_charge
 _atom_site_hle17_ddec_spin_density
 _atom_site_hle17_ddec_sum_bond_order
 _atom_site_hle17_magmom
 _atom_site_hse06_10hf_bader_spin_density
 _atom_site_hse06_10hf_ddec_charge
 _atom_site_hse06_10hf_ddec_spin_density
 _atom_site_hse06_10hf_ddec_sum_bond_order
 _atom_site_hse06_10hf_magmom
 _atom_site_hse06_bader_spin_density
 _atom_site_hse06_ddec_charge
 _atom_site_hse06_ddec_spin_density
 _atom_site_hse06_ddec_sum_bond_order
 _atom_site_hse06_magmom
 _atom_site_pbe_bader_spin_density
 _atom_site_pbe_cm5_charge
 _atom_site_pbe_ddec_charge
 _atom_site_pbe_ddec_spin_density
 _atom_site_pbe_ddec_sum_bond_order
 _atom_site_pbe_magmom
Cu  Cu0  1  0.27951993  0.00007616  0.49997183  1  0  0.685542  0  2.221936  0  0  0.602832  0  2.769099  0  0  0.581841  0  2.731888  0  0  0.688303  0.621685  0  2.789949  0
Cu  Cu1  1  0.72047663  0.99992290  0.99997289  1  0  0.685532  0  2.222003  0  0  0.602768  0  2.769153  0  0  0.581788  0  2.731921  0  0  0.688263  0.621648  0  2.789868  0
H  H2  1  0.75770030  0.61493411  0.47314828  1  0  0.156926  0  0.916697  0  0  0.17558  0  0.972526  0  0  0.176858  0  0.972135  0  0  0.115863  0.174644  0  0.972868  0
H  H3  1  0.24230725  0.38506582  0.97314833  1  0  0.156937  0  0.916659  0  0  0.175571  0  0.972522  0  0  0.176852  0  0.97213  0  0  0.115863  0.174636  0  0.972861  0
H  H4  1  0.14251383  0.38504660  0.52690004  1  0  0.157617  0  0.91728  0  0  0.17637  0  0.972507  0  0  0.177653  0  0.972116  0  0  0.115822  0.175463  0  0.972826  0
H  H5  1  0.85748002  0.61495140  0.02690057  1  0  0.157646  0  0.917236  0  0  0.176401  0  0.972459  0  0  0.177683  0  0.972066  0  0  0.115851  0.175492  0  0.972777  0
H  H6  1  0.86253056  0.70594017  0.37820841  1  0  0.160601  0  0.913712  0  0  0.179214  0  0.969692  0  0  0.180429  0  0.96973  0  0  0.11833  0.178389  0  0.969621  0
H  H7  1  0.13747878  0.29405836  0.87820833  1  0  0.160515  0  0.913791  0  0  0.179175  0  0.969738  0  0  0.18039  0  0.969775  0  0  0.118326  0.178347  0  0.969666  0
H  H8  1  0.15652213  0.29405935  0.62183611  1  0  0.161495  0  0.91399  0  0  0.179855  0  0.969754  0  0  0.181029  0  0.96983  0  0  0.118485  0.178989  0  0.96976  0
H  H9  1  0.84347878  0.70594105  0.12183745  1  0  0.161457  0  0.913986  0  0  0.179795  0  0.969768  0  0  0.180971  0  0.969843  0  0  0.11847  0.178933  0  0.969767  0
H  H10  1  0.52270846  0.58886377  0.38366938  1  0  0.164425  0  0.942028  0  0  0.178132  0  1.007025  0  0  0.179975  0  1.005486  0  0  0.114926  0.176778  0  1.008223  0
H  H11  1  0.47729927  0.41113578  0.88366877  1  0  0.164409  0  0.941995  0  0  0.178117  0  1.006998  0  0  0.179962  0  1.005456  0  0  0.114912  0.176761  0  1.008197  0
H  H12  1  0.93363484  0.41112766  0.61638260  1  0  0.165383  0  0.940372  0  0  0.178425  0  1.005948  0  0  0.180218  0  1.004456  0  0  0.114975  0.177233  0  1.006813  0
H  H13  1  0.06636608  0.58887271  0.11638339  1  0  0.165336  0  0.940447  0  0  0.178389  0  1.006003  0  0  0.180184  0  1.00451  0  0  0.114965  0.177198  0  1.006867  0
C  C14  1  0.72986111  0.25363282  0.28196333  1  0  -0.036755  0  3.860718  0  0  -0.035523  0  4.108793  0  0  -0.037733  0  4.129952  0  0  -7.1e-05  -0.033999  0  4.094622  0
C  C15  1  0.27013947  0.74636827  0.78196408  1  0  -0.036714  0  3.86065  0  0  -0.035518  0  4.108743  0  0  -0.03775  0  4.129915  0  0  -0.000102  -0.03401  0  4.094571  0
C  C16  1  0.47648555  0.74623079  0.71802456  1  0  -0.035174  0  3.860069  0  0  -0.033849  0  4.107885  0  0  -0.036161  0  4.129177  0  0  0.000118  -0.032245  0  4.093301  0
C  C17  1  0.52351626  0.25376804  0.21802264  1  0  -0.035115  0  3.860021  0  0  -0.033859  0  4.107902  0  0  -0.036158  0  4.129187  0  0  0.000111  -0.032249  0  4.093311  0
C  C18  1  0.72754852  0.11896555  0.30117202  1  0  -0.061702  0  3.884613  0  0  -0.058882  0  4.135567  0  0  -0.062227  0  4.15562  0  0  -0.00406  -0.057062  0  4.122572  0
C  C19  1  0.27245043  0.88103661  0.80117176  1  0  -0.061735  0  3.884487  0  0  -0.058888  0  4.135412  0  0  -0.062225  0  4.155471  0  0  -0.003997  -0.057041  0  4.122368  0
C  C20  1  0.60859784  0.88083780  0.69862533  1  0  -0.064844  0  3.889403  0  0  -0.062101  0  4.14033  0  0  -0.065518  0  4.16046  0  0  -0.004312  -0.059554  0  4.126452  0
C  C21  1  0.39140659  0.11916194  0.19862508  1  0  -0.06479  0  3.889401  0  0  -0.062035  0  4.140346  0  0  -0.065456  0  4.160474  0  0  -0.00428  -0.059484  0  4.126431  0
C  C22  1  0.51801803  0.03602080  0.24983717  1  0  -0.026867  0  3.878786  0  0  -0.024259  0  4.122239  0  0  -0.024841  0  4.141472  0  0  0.000821  -0.023694  0  4.109248  0
C  C23  1  0.48198163  0.96397817  0.74983763  1  0  -0.026815  0  3.878789  0  0  -0.024206  0  4.122255  0  0  -0.024808  0  4.141485  0  0  0.000809  -0.023656  0  4.109261  0
C  C24  1  0.90581330  0.36279763  0.32292196  1  0  0.273656  0  3.799619  0  0  0.261064  0  4.071875  0  0  0.271701  0  4.089825  0  0  0.18565  0.253712  0  4.060116  0
C  C25  1  0.09418720  0.63720363  0.82292131  1  0  0.273621  0  3.799631  0  0  0.261023  0  4.07192  0  0  0.271673  0  4.089858  0  0  0.185603  0.253677  0  4.060153  0
C  C26  1  0.54281527  0.63689524  0.67708286  1  0  0.273465  0  3.799291  0  0  0.260742  0  4.0718  0  0  0.271343  0  4.089804  0  0  0.184944  0.253546  0  4.059485  0
C  C27  1  0.45718712  0.36310440  0.17708180  1  0  0.273409  0  3.799268  0  0  0.260716  0  4.071781  0  0  0.271303  0  4.089797  0  0  0.184934  0.253515  0  4.059473  0
C  C28  1  0.90791860  0.07772055  0.35915932  1  0  0.317459  0  3.777713  0  0  0.298626  0  4.052335  0  0  0.309171  0  4.067708  0  0  0.200125  0.291576  0  4.042557  0
C  C29  1  0.09207606  0.92228187  0.85916047  1  0  0.317518  0  3.777758  0  0  0.298686  0  4.052362  0  0  0.309224  0  4.067739  0  0  0.200154  0.291624  0  4.042541  0
C  C30  1  0.83026401  0.92202189  0.64068134  1  0  0.319543  0  3.782043  0  0  0.300797  0  4.056144  0  0  0.311386  0  4.071526  0  0  0.200372  0.293622  0  4.046132  0
C  C31  1  0.16974214  0.07797661  0.14068109  1  0  0.319584  0  3.781915  0  0  0.300832  0  4.05603  0  0  0.311423  0  4.071409  0  0  0.200343  0.293651  0  4.045974  0
C  C32  1  0.44801558  0.89679298  0.25000087  1  0  0.264667  0  3.790739  0  0  0.252339  0  4.062244  0  0  0.262734  0  4.07999  0  0  0.178808  0.245122  0  4.050436  0
C  C33  1  0.55198875  0.10320697  0.75000026  1  0  0.264747  0  3.79082  0  0  0.252401  0  4.062336  0  0  0.262815  0  4.080058  0  0  0.178855  0.245194  0  4.050518  0
C  C34  1  0.68016013  0.66279586  0.41915628  1  0  -0.380032  0  3.744823  0  0  -0.451204  0  3.970885  0  0  -0.453451  0  3.976731  0  0  -0.205827  -0.449395  0  3.966843  0
C  C35  1  0.31984962  0.33720383  0.91915621  1  0  -0.379887  0  3.744787  0  0  -0.451095  0  3.970859  0  0  -0.453347  0  3.976703  0  0  -0.205784  -0.449283  0  3.966799  0
C  C36  1  0.01718307  0.33717236  0.58089962  1  0  -0.383112  0  3.744708  0  0  -0.453476  0  3.971103  0  0  -0.455686  0  3.976966  0  0  -0.205961  -0.451782  0  3.967026  0
C  C37  1  0.98281743  0.66282687  0.08090020  1  0  -0.383041  0  3.74478  0  0  -0.453382  0  3.971127  0  0  -0.455593  0  3.976987  0  0  -0.205955  -0.451688  0  3.967026  0
C  C38  1  0.54374369  0.76464154  0.44819253  1  0  0.445948  0  3.68068  0  0  0.437882  0  3.957037  0  0  0.446884  0  3.974475  0  0  0.221038  0.431806  0  3.945481  0
C  C39  1  0.45626231  0.23535928  0.94819347  1  0  0.445834  0  3.680614  0  0  0.437775  0  3.956985  0  0  0.446775  0  3.974429  0  0  0.220953  0.431692  0  3.945397  0
C  C40  1  0.77896626  0.23534804  0.55187519  1  0  0.445927  0  3.681435  0  0  0.437822  0  3.957253  0  0  0.446865  0  3.974671  0  0  0.220819  0.431802  0  3.945591  0
C  C41  1  0.22103222  0.76465106  0.05187501  1  0  0.445884  0  3.68145  0  0  0.437764  0  3.957268  0  0  0.446806  0  3.974684  0  0  0.220792  0.431738  0  3.945572  0
N  N42  1  0.05481828  0.44926006  0.36015332  1  0  -0.383765  0  2.566935  0  0  -0.359012  0  2.779798  0  0  -0.368466  0  2.791789  0  0  -0.289737  -0.353011  0  2.772208  0
N  N43  1  0.94518225  0.55073740  0.86015155  1  0  -0.383769  0  2.566902  0  0  -0.359016  0  2.779768  0  0  -0.368467  0  2.79175  0  0  -0.289718  -0.353012  0  2.772172  0
N  N44  1  0.60458087  0.55029996  0.63975859  1  0  -0.384099  0  2.567397  0  0  -0.359541  0  2.780736  0  0  -0.368974  0  2.792713  0  0  -0.288917  -0.352918  0  2.772315  0
N  N45  1  0.39541753  0.44969556  0.13975772  1  0  -0.38407  0  2.567417  0  0  -0.359513  0  2.780749  0  0  -0.368949  0  2.792732  0  0  -0.288906  -0.352893  0  2.772331  0
N  N46  1  0.06453300  0.04547784  0.40685483  1  0  -0.431257  0  3.044873  0  0  -0.396853  0  3.374297  0  0  -0.397972  0  3.373546  0  0  -0.364549  -0.397427  0  3.374572  0
N  N47  1  0.93547040  0.95452576  0.90685447  1  0  -0.431258  0  3.045013  0  0  -0.396844  0  3.374423  0  0  -0.397964  0  3.373667  0  0  -0.364546  -0.397421  0  3.374633  0
N  N48  1  0.01933362  0.95451072  0.59309869  1  0  -0.432626  0  3.049442  0  0  -0.398379  0  3.378783  0  0  -0.399575  0  3.378077  0  0  -0.364675  -0.398734  0  3.378997  0
N  N49  1  0.98066477  0.04548856  0.09309870  1  0  -0.432672  0  3.04933  0  0  -0.398415  0  3.378665  0  0  -0.399611  0  3.377953  0  0  -0.364656  -0.398771  0  3.378809  0
N  N50  1  0.38958565  0.78085035  0.25034535  1  0  -0.370402  0  2.528943  0  0  -0.348387  0  2.737131  0  0  -0.357212  0  2.749781  0  0  -0.293041  -0.342311  0  2.72843  0
N  N51  1  0.61042286  0.21914961  0.75034305  1  0  -0.370465  0  2.529045  0  0  -0.348453  0  2.737233  0  0  -0.357271  0  2.749871  0  0  -0.293078  -0.342371  0  2.728527  0
N  N52  1  0.43459660  0.84750022  0.47112073  1  0  -0.501255  0  3.043993  0  0  -0.46928  0  3.366278  0  0  -0.475332  0  3.369641  0  0  -0.37913  -0.466257  0  3.363659  0
N  N53  1  0.56540886  0.15249970  0.97112209  1  0  -0.501181  0  3.0439  0  0  -0.469191  0  3.366156  0  0  -0.475242  0  3.369518  0  0  -0.379057  -0.466169  0  3.363477  0
N  N54  1  0.58697576  0.15254368  0.52896089  1  0  -0.500853  0  3.044723  0  0  -0.468986  0  3.366958  0  0  -0.474992  0  3.370247  0  0  -0.37913  -0.466033  0  3.364353  0
N  N55  1  0.41302326  0.84745631  0.02896016  1  0  -0.500827  0  3.044717  0  0  -0.468948  0  3.366948  0  0  -0.474956  0  3.370232  0  0  -0.37911  -0.465997  0  3.364279  0
