# generated using pymatgen
data_MnH8C10(NO)4
_symmetry_space_group_name_H-M   'P 1'
_cell_length_a   7.46769991
_cell_length_b   16.78676645
_cell_length_c   16.78534104
_cell_angle_alpha   117.82814577
_cell_angle_beta   98.54298135
_cell_angle_gamma   98.52040667
_symmetry_Int_Tables_number   1
_chemical_formula_structural   MnH8C10(NO)4
_chemical_formula_sum   'Mn6 H48 C60 N24 O24'
_cell_volume   1782.37025913
_cell_formula_units_Z   6
loop_
 _symmetry_equiv_pos_site_id
 _symmetry_equiv_pos_as_xyz
  1  'x, y, z'
loop_
 _atom_site_type_symbol
 _atom_site_label
 _atom_site_symmetry_multiplicity
 _atom_site_fract_x
 _atom_site_fract_y
 _atom_site_fract_z
 _atom_site_occupancy
 _atom_site_pbe_bader_charge
 _atom_site_pbe_bader_spin_density
 _atom_site_pbe_cm5_charge
 _atom_site_pbe_ddec_charge
 _atom_site_pbe_ddec_spin_density
 _atom_site_pbe_ddec_sum_bond_order
 _atom_site_pbe_magmom
Mn  Mn0  1  0.29908435  0.09487818  0.58492236  1  1.520039  4.513886  0.616487  0.947096  4.638033  2.401651  4.447
Mn  Mn1  1  0.71399346  0.41508937  0.50998528  1  1.520815  4.513452  0.61731  0.947996  4.645298  2.401974  4.447
Mn  Mn2  1  0.20407203  0.48995291  0.90505360  1  1.520851  4.513642  0.616861  0.947605  4.644751  2.402333  4.447
Mn  Mn3  1  0.70091993  0.90511972  0.41507784  1  1.52016  4.513858  0.616483  0.947101  4.638026  2.401681  4.447
Mn  Mn4  1  0.28600478  0.58491270  0.49001290  1  1.520643  4.513504  0.617258  0.947871  4.64532  2.402082  4.447
Mn  Mn5  1  0.79592652  0.51004707  0.09494481  1  1.52087  4.513636  0.616841  0.947542  4.644751  2.402441  4.447
H  H6  1  0.69806677  0.11269423  0.53146834  1  0.567713  0.000774  0.322082  0.272302  7.6e-05  1.011937  0.001
H  H7  1  0.16632367  0.46850068  0.58116705  1  0.568926  0.000771  0.321733  0.270118  7.5e-05  1.012883  0.001
H  H8  1  0.58549511  0.41877386  0.88731661  1  0.573256  0.000779  0.322301  0.271261  7.5e-05  1.012397  0.001
H  H9  1  0.30193685  0.88730506  0.46853246  1  0.567735  0.000774  0.322096  0.272288  7.7e-05  1.011923  0.001
H  H10  1  0.83367287  0.53150069  0.41883307  1  0.568924  0.000771  0.321763  0.270199  7.5e-05  1.012866  0.001
H  H11  1  0.41450581  0.58122542  0.11268283  1  0.573247  0.000779  0.322306  0.27128  7.5e-05  1.012386  0.001
H  H12  1  0.19766137  0.24653062  0.53911230  1  0.494283  0.000141  0.301659  0.31008  -0.000216  0.979777  0.0
H  H13  1  0.65841255  0.46073231  0.70740372  1  0.493487  0.000141  0.301675  0.310104  -0.000218  0.980113  0.0
H  H14  1  0.95136943  0.29246710  0.75324828  1  0.489464  0.000144  0.302484  0.311054  -0.000216  0.977219  0.0
H  H15  1  0.80233552  0.75347144  0.46089055  1  0.494353  0.000141  0.30165  0.310089  -0.000216  0.979791  0.0
H  H16  1  0.34159181  0.53927115  0.29259610  1  0.49346  0.000141  0.301685  0.310146  -0.000218  0.980024  0.0
H  H17  1  0.04862808  0.70753079  0.24674969  1  0.489446  0.000144  0.302513  0.311082  -0.000216  0.977188  0.0
H  H18  1  0.30552046  0.33738830  0.52577597  1  0.482447  0.000669  0.312862  0.320272  0.000414  0.944922  0.0
H  H19  1  0.77983590  0.47406932  0.81159402  1  0.479536  0.000672  0.313327  0.320421  0.000414  0.943846  0.0
H  H20  1  0.96860076  0.18829710  0.66246437  1  0.484094  0.00067  0.313194  0.320143  0.00042  0.944498  0.0
H  H21  1  0.69448250  0.66261238  0.47422544  1  0.48243  0.000669  0.31287  0.320258  0.000414  0.94494  0.0
H  H22  1  0.22016234  0.52593275  0.18840475  1  0.479508  0.000672  0.31333  0.320387  0.000414  0.94388  0.0
H  H23  1  0.03140251  0.81170149  0.33753489  1  0.484126  0.00067  0.313168  0.320062  0.00042  0.944627  0.0
H  H24  1  0.86597240  0.23684573  0.49311696  1  0.157245  0.001277  0.143381  0.108765  0.000376  1.001079  0.0
H  H25  1  0.37278956  0.50712949  0.74378690  1  0.154849  0.00128  0.143396  0.109464  0.000375  0.999848  0.0
H  H26  1  0.62957592  0.25631405  0.76322572  1  0.151812  0.001283  0.144085  0.110203  0.000373  1.000591  0.0
H  H27  1  0.13402654  0.76315773  0.50688191  1  0.157252  0.001277  0.143337  0.108747  0.000376  1.001094  0.0
H  H28  1  0.62720969  0.49287188  0.25621280  1  0.154821  0.001281  0.143412  0.109487  0.000375  0.999869  0.0
H  H29  1  0.37042569  0.74368663  0.23677501  1  0.151682  0.001283  0.144096  0.110219  0.000373  1.000554  0.0
H  H30  1  0.50971743  0.01335798  0.27257944  1  0.099207  0.000279  0.105761  0.108649  -0.000235  1.007024  0.0
H  H31  1  0.23746777  0.72725162  0.74085983  1  0.098026  0.000282  0.10633  0.109958  -0.000234  1.00726  0.0
H  H32  1  0.49650090  0.25930600  0.98699234  1  0.081797  0.000288  0.106507  0.109537  -0.000232  1.007559  0.0
H  H33  1  0.49028790  0.98664201  0.72742002  1  0.099284  0.000279  0.105749  0.108605  -0.000235  1.007009  0.0
H  H34  1  0.76252943  0.27274836  0.25914087  1  0.097967  0.000282  0.106338  0.109968  -0.000234  1.007229  0.0
H  H35  1  0.50350140  0.74069607  0.01300789  1  0.081817  0.000288  0.106511  0.109551  -0.000232  1.007566  0.0
H  H36  1  0.42739411  0.11037272  0.20197428  1  0.052655  7.7e-05  0.102294  0.100649  2e-05  0.991637  0.0
H  H37  1  0.22570588  0.79793119  0.90846199  1  0.093395  7.3e-05  0.102184  0.101318  2e-05  0.989878  0.0
H  H38  1  0.31732350  0.09172676  0.88998882  1  0.050104  7.6e-05  0.1022  0.100875  1.9e-05  0.988998  0.0
H  H39  1  0.57260812  0.88962378  0.79802215  1  0.052861  7.7e-05  0.102307  0.100649  2e-05  0.991641  0.0
H  H40  1  0.77428791  0.20206740  0.09153844  1  0.093449  7.3e-05  0.102178  0.10134  2e-05  0.989884  0.0
H  H41  1  0.68267981  0.90827462  0.11001234  1  0.050114  7.6e-05  0.102178  0.100836  1.9e-05  0.989001  0.0
H  H42  1  0.15122362  0.17654378  0.22968555  1  0.086493  0.00014  0.094754  0.08745  6.3e-05  1.070094  0.0
H  H43  1  0.92169112  0.77040033  0.94686306  1  0.099045  0.000136  0.094892  0.088006  6.4e-05  1.069948  0.0
H  H44  1  0.97497876  0.05325986  0.82358704  1  0.063832  0.000151  0.094497  0.087506  6.2e-05  1.070863  0.0
H  H45  1  0.84877385  0.82345133  0.77031171  1  0.086386  0.00014  0.094777  0.087482  6.3e-05  1.070094  0.0
H  H46  1  0.07830202  0.22959965  0.05313857  1  0.09906  0.000136  0.09488  0.087989  6.4e-05  1.069936  0.0
H  H47  1  0.02502316  0.94673874  0.17641452  1  0.063828  0.000151  0.094506  0.087529  6.3e-05  1.070908  0.0
H  H48  1  0.96559014  0.15210327  0.33040323  1  0.074158  0.000427  0.101833  0.106318  9.1e-05  1.005123  0.0
H  H49  1  0.63535745  0.66968730  0.82167661  1  0.072046  0.000429  0.10076  0.104439  9.2e-05  1.005776  0.0
H  H50  1  0.81386005  0.17841253  0.84791068  1  0.060475  0.000437  0.101168  0.10522  9.5e-05  1.006481  0.0
H  H51  1  0.03441446  0.84789254  0.66959721  1  0.074093  0.000427  0.101865  0.106451  9.1e-05  1.005045  0.0
H  H52  1  0.36463669  0.33031199  0.17832297  1  0.07212  0.00043  0.100745  0.104396  9.2e-05  1.005723  0.0
H  H53  1  0.18614117  0.82158467  0.15209019  1  0.060471  0.000438  0.101156  0.10524  9.5e-05  1.006429  0.0
C  C54  1  0.46568811  0.25385192  0.53507305  1  1.518109  0.012475  0.338402  0.53344  0.010043  4.083511  0.011
C  C55  1  0.93049275  0.46480819  0.71873442  1  1.519545  0.012516  0.337697  0.531296  0.010064  4.087448  0.011
C  C56  1  0.21219792  0.28116144  0.74606614  1  1.524105  0.012429  0.337068  0.530653  0.010007  4.086215  0.011
C  C57  1  0.53430905  0.74614528  0.46492457  1  1.518488  0.012476  0.338392  0.53335  0.010043  4.083378  0.011
C  C58  1  0.06950580  0.53519179  0.28126458  1  1.519525  0.012515  0.337686  0.531289  0.010063  4.087553  0.011
C  C59  1  0.78780164  0.71883784  0.25393261  1  1.524116  0.012429  0.337077  0.530613  0.010007  4.086265  0.011
C  C60  1  0.73074174  0.23112209  0.50865892  1  1.04178  0.012379  0.17099  0.175601  0.009977  3.939506  0.009
C  C61  1  0.22196854  0.49144262  0.72245816  1  1.056655  0.012402  0.171592  0.175036  0.009999  3.937054  0.009
C  C62  1  0.49998715  0.27754385  0.76891233  1  1.052124  0.012339  0.171504  0.175339  0.009943  3.942433  0.009
C  C63  1  0.26925681  0.76887789  0.49133949  1  1.042  0.012379  0.171045  0.175616  0.009978  3.93952  0.009
C  C64  1  0.77803136  0.50855736  0.27754153  1  1.056689  0.012403  0.171555  0.174949  0.009999  3.9371  0.009
C  C65  1  0.50001512  0.72245544  0.23108958  1  1.052262  0.012339  0.171485  0.175342  0.009943  3.942526  0.009
C  C66  1  0.13174779  0.06858867  0.35825352  1  0.020571  0.009318  -0.004624  -0.038555  0.006545  3.943347  0.005
C  C67  1  0.77370571  0.64169657  0.71034637  1  0.020389  0.009361  -0.004649  -0.041112  0.006558  3.940464  0.005
C  C68  1  0.06341005  0.28975659  0.93148086  1  0.003443  0.009356  -0.005008  -0.039816  0.006555  3.944008  0.005
C  C69  1  0.86825920  0.93140923  0.64174626  1  0.020525  0.009318  -0.004626  -0.038623  0.006545  3.943594  0.005
C  C70  1  0.22629014  0.35830342  0.28965365  1  0.020348  0.009362  -0.004703  -0.041081  0.006558  3.940615  0.005
C  C71  1  0.93658951  0.71024270  0.06852027  1  0.003384  0.009356  -0.005039  -0.039869  0.006556  3.944113  0.005
C  C72  1  0.28527682  0.02883337  0.34054163  1  -0.026676  0.002335  -0.021065  -0.08445  0.000938  3.980849  0.001
C  C73  1  0.94504961  0.65935518  0.68835038  1  -0.056991  0.002369  -0.020755  -0.083091  0.000947  3.979083  0.001
C  C74  1  0.25667071  0.31178931  0.97132656  1  -0.019178  0.002348  -0.02155  -0.085505  0.000955  3.980122  0.001
C  C75  1  0.71473427  0.97116731  0.65946031  1  -0.026638  0.002336  -0.021055  -0.084466  0.000939  3.980831  0.001
C  C76  1  0.05494356  0.34064759  0.31165076  1  -0.057262  0.002369  -0.020738  -0.083137  0.000946  3.979146  0.001
C  C77  1  0.74333260  0.68821207  0.02867639  1  -0.019001  0.002348  -0.02155  -0.085541  0.000955  3.980163  0.001
C  C78  1  0.39071970  0.04425117  0.28411289  1  -0.054111  0.006021  -0.082249  -0.087216  0.00437  3.970986  0.004
C  C79  1  0.10693449  0.71575940  0.76021916  1  -0.056428  0.006012  -0.082477  -0.088406  0.004365  3.972293  0.004
C  C80  1  0.34663870  0.23994065  0.95601165  1  0.015098  0.005968  -0.082691  -0.088066  0.004354  3.971438  0.004
C  C81  1  0.60929108  0.95575160  0.71589061  1  -0.054092  0.006021  -0.082213  -0.087107  0.00437  3.970926  0.004
C  C82  1  0.89306039  0.28424406  0.23978182  1  -0.056102  0.006012  -0.082473  -0.088417  0.004365  3.972154  0.004
C  C83  1  0.65336125  0.76006212  0.04399053  1  0.015112  0.005968  -0.082711  -0.088109  0.004354  3.971366  0.004
C  C84  1  0.34396985  0.09768212  0.24486725  1  -0.013805  0.000349  -0.09181  -0.088445  0.000137  4.011427  0.0
C  C85  1  0.09937168  0.75505244  0.85286571  1  -0.072237  0.000359  -0.092513  -0.090335  0.00014  4.008989  0.0
C  C86  1  0.24653249  0.14728808  0.90259246  1  -0.100799  0.000384  -0.091366  -0.088157  0.000138  4.008197  0.0
C  C87  1  0.65603513  0.90231717  0.75513185  1  -0.014166  0.000349  -0.091841  -0.088436  0.000137  4.011533  0.0
C  C88  1  0.90062181  0.24494824  0.14713507  1  -0.072427  0.000359  -0.092544  -0.090388  0.00014  4.00899  0.0
C  C89  1  0.75346981  0.85271399  0.09740955  1  -0.100859  0.000383  -0.091364  -0.088101  0.000138  4.008184  0.0
C  C90  1  0.18962508  0.13553051  0.26094973  1  -0.058874  0.006802  -0.083312  -0.052264  0.005188  3.983965  0.004
C  C91  1  0.92885759  0.73906857  0.87460177  1  -0.011217  0.006779  -0.083717  -0.053785  0.005187  3.983924  0.004
C  C92  1  0.05439203  0.12551396  0.86460002  1  -0.001195  0.006771  -0.083403  -0.05328  0.005177  3.984769  0.004
C  C93  1  0.81037785  0.86446739  0.73905038  1  -0.058658  0.006802  -0.083349  -0.052365  0.005188  3.984123  0.004
C  C94  1  0.07113690  0.26093141  0.12539935  1  -0.011141  0.00678  -0.08371  -0.053787  0.005188  3.98384  0.004
C  C95  1  0.94560923  0.87448603  0.13540036  1  -0.001198  0.00677  -0.083395  -0.053313  0.005177  3.984854  0.004
C  C96  1  0.08506208  0.12159407  0.31773268  1  -0.088317  0.000549  -0.093837  -0.126411  0.000194  3.972937  0.0
C  C97  1  0.76752090  0.68230193  0.80386821  1  -0.116156  0.00057  -0.092683  -0.121983  0.0002  3.970942  0.0
C  C98  1  0.96380978  0.19624089  0.87847967  1  -0.049587  0.000529  -0.093415  -0.124113  0.00019  3.973464  0.0
C  C99  1  0.91494150  0.87840244  0.68226682  1  -0.088334  0.000549  -0.093822  -0.126474  0.000194  3.972904  0.0
C  C100  1  0.23247661  0.31769596  0.19613273  1  -0.116135  0.00057  -0.092629  -0.121884  0.000199  3.970892  0.0
C  C101  1  0.03618878  0.80375909  0.12152232  1  -0.049537  0.000528  -0.09335  -0.124064  0.000189  3.973407  0.0
C  C102  1  0.01280889  0.05529878  0.41846682  1  1.587486  0.028467  0.226468  0.601518  0.027912  4.187933  0.024
C  C103  1  0.59450117  0.58148187  0.63683350  1  1.612008  0.02859  0.22672  0.60233  0.027995  4.185705  0.024
C  C104  1  0.95768384  0.36323488  0.94465198  1  1.58646  0.028578  0.226886  0.600638  0.028029  4.187898  0.024
C  C105  1  0.98719268  0.94469911  0.58153380  1  1.587105  0.028474  0.226429  0.601536  0.027915  4.187794  0.024
C  C106  1  0.40549672  0.41851950  0.36316612  1  1.611998  0.028592  0.226775  0.602411  0.027996  4.185635  0.024
C  C107  1  0.04231673  0.63676371  0.05534711  1  1.586465  0.028578  0.226896  0.600637  0.02803  4.187908  0.024
C  C108  1  0.34125294  0.97080715  0.38048857  1  1.518131  0.032349  0.219617  0.576675  0.030985  4.167865  0.027
C  C109  1  0.96113512  0.61948385  0.59040721  1  1.537275  0.032242  0.219784  0.57842  0.030925  4.169312  0.027
C  C110  1  0.37078762  0.40970418  0.02927121  1  1.511972  0.032311  0.221248  0.580942  0.030904  4.167152  0.027
C  C111  1  0.65875239  0.02919284  0.61951148  1  1.518135  0.032351  0.219676  0.576864  0.030985  4.167637  0.027
C  C112  1  0.03885872  0.38051753  0.40959273  1  1.537283  0.032242  0.21978  0.578394  0.030925  4.169327  0.027
C  C113  1  0.62921402  0.59029928  0.97073022  1  1.511764  0.032309  0.221271  0.581051  0.030901  4.167076  0.027
N  N114  1  0.65230630  0.16696172  0.52659511  1  -0.874019  0.008621  -0.269551  -0.104949  0.004687  3.70281  0.005
N  N115  1  0.12550006  0.47339928  0.64032776  1  -0.883512  0.008651  -0.269501  -0.102359  0.004699  3.698207  0.005
N  N116  1  0.48559267  0.35960752  0.83303229  1  -0.883992  0.008629  -0.26919  -0.101816  0.004677  3.69994  0.005
N  N117  1  0.34769732  0.83303757  0.47340450  1  -0.874014  0.008623  -0.269523  -0.104878  0.004688  3.702773  0.005
N  N118  1  0.87450089  0.52660279  0.35967357  1  -0.883508  0.008649  -0.269495  -0.102366  0.004698  3.698332  0.005
N  N119  1  0.51440894  0.64039316  0.16696903  1  -0.883969  0.008629  -0.269193  -0.101847  0.004678  3.70006  0.005
N  N120  1  0.48279626  0.17984488  0.54425839  1  -0.774889  0.047276  -0.253489  -0.354291  0.034253  3.331146  0.018
N  N121  1  0.93834009  0.45558380  0.63551218  1  -0.777871  0.047226  -0.253535  -0.35403  0.034264  3.330724  0.018
N  N122  1  0.30318283  0.36435965  0.82008334  1  -0.77695  0.047133  -0.254282  -0.355763  0.034315  3.32966  0.018
N  N123  1  0.51720361  0.82015232  0.45574000  1  -0.774901  0.047278  -0.253573  -0.354365  0.034254  3.331166  0.018
N  N124  1  0.06165745  0.54441688  0.36448708  1  -0.777706  0.047208  -0.253514  -0.35401  0.034264  3.330853  0.018
N  N125  1  0.69681844  0.63564033  0.17991644  1  -0.776998  0.047134  -0.254278  -0.355734  0.034316  3.329689  0.018
N  N126  1  0.61783471  0.28760052  0.51321767  1  -1.254531  0.055536  -0.345323  -0.424532  0.037904  3.381605  0.016
N  N127  1  0.10456901  0.48681553  0.77438242  1  -1.250173  0.055478  -0.345252  -0.424154  0.037856  3.382172  0.016
N  N128  1  0.33065539  0.22559251  0.71238643  1  -1.248677  0.055427  -0.34617  -0.426259  0.037879  3.387093  0.016
N  N129  1  0.38216010  0.71239737  0.48678012  1  -1.254669  0.055527  -0.345308  -0.424473  0.037907  3.381525  0.016
N  N130  1  0.89543430  0.51318585  0.22561874  1  -1.250184  0.055475  -0.345246  -0.424121  0.037855  3.382213  0.016
N  N131  1  0.66934417  0.77440678  0.28761410  1  -1.248687  0.055432  -0.34618  -0.426272  0.03788  3.387066  0.016
N  N132  1  0.31759176  0.29215389  0.54937564  1  -1.277333  0.00626  -0.582404  -0.654139  0.004132  3.277355  0.004
N  N133  1  0.76816446  0.45047527  0.74275244  1  -1.280789  0.006273  -0.582366  -0.653592  0.004152  3.279149  0.004
N  N134  1  0.02580299  0.25711729  0.70770903  1  -1.284253  0.006259  -0.58214  -0.652649  0.004132  3.274041  0.004
N  N135  1  0.68240881  0.70784470  0.45062404  1  -1.277806  0.006261  -0.582373  -0.654075  0.004132  3.277382  0.004
N  N136  1  0.23183448  0.54952819  0.25724882  1  -1.280738  0.006273  -0.582386  -0.653594  0.004152  3.279151  0.004
N  N137  1  0.97419792  0.74288199  0.29229040  1  -1.284266  0.006259  -0.582144  -0.652564  0.004132  3.274117  0.004
O  O138  1  0.05702978  0.11653898  0.50515618  1  -1.197398  0.055746  -0.312844  -0.5807  0.039969  2.26023  0.025
O  O139  1  0.55206760  0.49479413  0.61137884  1  -1.214473  0.056067  -0.312475  -0.580579  0.040039  2.261095  0.025
O  O140  1  0.94082877  0.38865876  0.88336367  1  -1.199021  0.056266  -0.312641  -0.57987  0.040044  2.26005  0.025
O  O141  1  0.94297148  0.88346100  0.49484241  1  -1.197378  0.05575  -0.312849  -0.580713  0.03997  2.260088  0.025
O  O142  1  0.44792859  0.50520655  0.38861914  1  -1.214529  0.056068  -0.31246  -0.58057  0.04004  2.261193  0.025
O  O143  1  0.05917415  0.61133914  0.11663465  1  -1.198957  0.056253  -0.312633  -0.57985  0.040044  2.260047  0.025
O  O144  1  0.87183317  0.98633198  0.37748619  1  -1.191435  0.06889  -0.303457  -0.529896  0.047164  2.307534  0.03
O  O145  1  0.49442044  0.62244477  0.60883575  1  -1.186025  0.068804  -0.303848  -0.530483  0.047212  2.307001  0.03
O  O146  1  0.88545442  0.39121298  0.01353472  1  -1.190789  0.068847  -0.303362  -0.529261  0.047214  2.307592  0.03
O  O147  1  0.12817212  0.01366522  0.62251553  1  -1.190997  0.06887  -0.303448  -0.529908  0.047164  2.307469  0.03
O  O148  1  0.50558085  0.37755799  0.39116473  1  -1.185957  0.06881  -0.30391  -0.530609  0.047218  2.306978  0.03
O  O149  1  0.11454514  0.60878630  0.98646343  1  -1.190879  0.068854  -0.303402  -0.529305  0.047217  2.307665  0.03
O  O150  1  0.27475166  0.97329044  0.44811772  1  -1.210419  0.059389  -0.303237  -0.571648  0.042849  2.391646  0.027
O  O151  1  0.82689511  0.55194453  0.52522821  1  -1.216091  0.059315  -0.302813  -0.571019  0.042836  2.389639  0.027
O  O152  1  0.30186733  0.47484399  0.02672591  1  -1.21042  0.059294  -0.304354  -0.573342  0.042845  2.390696  0.027
O  O153  1  0.72525706  0.02671094  0.55188320  1  -1.210471  0.059389  -0.303226  -0.571747  0.04285  2.391648  0.027
O  O154  1  0.17309903  0.44805476  0.47477257  1  -1.216062  0.05931  -0.302768  -0.571007  0.042833  2.389713  0.027
O  O155  1  0.69813397  0.52515877  0.97327518  1  -1.210271  0.059283  -0.304326  -0.573335  0.042846  2.39061  0.027
O  O156  1  0.45204120  0.92091130  0.34621280  1  -1.197842  0.069631  -0.309705  -0.55134  0.049365  2.314056  0.034
O  O157  1  0.10630911  0.65373556  0.57484253  1  -1.204193  0.069695  -0.310828  -0.553901  0.049376  2.317721  0.034
O  O158  1  0.53154078  0.42527933  0.07912556  1  -1.204751  0.069679  -0.310064  -0.553032  0.049335  2.317205  0.034
O  O159  1  0.54796003  0.07908590  0.65378508  1  -1.197759  0.069638  -0.309775  -0.551456  0.049367  2.314033  0.034
O  O160  1  0.89368166  0.34626511  0.42515628  1  -1.204256  0.069691  -0.31086  -0.553867  0.049375  2.317709  0.034
O  O161  1  0.46846392  0.57472482  0.92087461  1  -1.204578  0.069641  -0.310115  -0.553116  0.049333  2.317165  0.034
