# generated using pymatgen
data_ZnH9C11(NO)2
_symmetry_space_group_name_H-M   'P 1'
_cell_length_a   7.50863623
_cell_length_b   10.81891324
_cell_length_c   13.98351183
_cell_angle_alpha   105.29140459
_cell_angle_beta   105.56967908
_cell_angle_gamma   90.01161962
_symmetry_Int_Tables_number   1
_chemical_formula_structural   ZnH9C11(NO)2
_chemical_formula_sum   'Zn4 H36 C44 N8 O8'
_cell_volume   1052.44496620
_cell_formula_units_Z   4
loop_
 _symmetry_equiv_pos_site_id
 _symmetry_equiv_pos_as_xyz
  1  'x, y, z'
loop_
 _atom_site_type_symbol
 _atom_site_label
 _atom_site_symmetry_multiplicity
 _atom_site_fract_x
 _atom_site_fract_y
 _atom_site_fract_z
 _atom_site_occupancy
 _atom_site_hle17_bader_spin_density
 _atom_site_hle17_ddec_charge
 _atom_site_hle17_ddec_spin_density
 _atom_site_hle17_ddec_sum_bond_order
 _atom_site_hle17_magmom
 _atom_site_hse06_10hf_bader_spin_density
 _atom_site_hse06_10hf_ddec_charge
 _atom_site_hse06_10hf_ddec_spin_density
 _atom_site_hse06_10hf_ddec_sum_bond_order
 _atom_site_hse06_10hf_magmom
 _atom_site_hse06_bader_spin_density
 _atom_site_hse06_ddec_charge
 _atom_site_hse06_ddec_spin_density
 _atom_site_hse06_ddec_sum_bond_order
 _atom_site_hse06_magmom
 _atom_site_pbe_bader_spin_density
 _atom_site_pbe_cm5_charge
 _atom_site_pbe_ddec_charge
 _atom_site_pbe_ddec_spin_density
 _atom_site_pbe_ddec_sum_bond_order
 _atom_site_pbe_magmom
Zn  Zn0  1  0.05817725  0.72950259  0.42959268  1  0  1.025249  0  1.865992  0  0  0.838345  0  2.34255  0  0  0.881516  0  2.291021  0  0  0.719034  0.807221  0  2.378799  0
Zn  Zn1  1  0.62873222  0.77045946  0.57046323  1  0  1.024617  0  1.866676  0  0  0.837425  0  2.34315  0  0  0.880589  0  2.29164  0  0  0.718719  0.806284  0  2.379386  0
Zn  Zn2  1  0.94182392  0.27049740  0.57040915  1  0  1.025267  0  1.865987  0  0  0.838365  0  2.342534  0  0  0.88153  0  2.291006  0  0  0.719056  0.807244  0  2.378787  0
Zn  Zn3  1  0.37127172  0.22954053  0.42953685  1  0  1.024601  0  1.866625  0  0  0.837397  0  2.343093  0  0  0.880563  0  2.291582  0  0  0.718702  0.806263  0  2.379331  0
H  H4  1  0.07686784  0.66595053  0.72565340  1  0  0.107254  0  0.972998  0  0  0.112472  0  1.041531  0  0  0.115234  0  1.040855  0  0  0.104139  0.110553  0  1.041869  0
H  H5  1  0.35137058  0.83407745  0.27452920  1  0  0.107012  0  0.97214  0  0  0.112167  0  1.040828  0  0  0.114793  0  1.040354  0  0  0.10395  0.110313  0  1.041093  0
H  H6  1  0.92313185  0.33404850  0.27434730  1  0  0.107258  0  0.973001  0  0  0.112477  0  1.041529  0  0  0.115223  0  1.040871  0  0  0.10414  0.11056  0  1.04186  0
H  H7  1  0.64863049  0.16592158  0.72547170  1  0  0.106995  0  0.972137  0  0  0.112153  0  1.040826  0  0  0.114779  0  1.040353  0  0  0.103951  0.1103  0  1.041091  0
H  H8  1  0.17680806  0.64499910  0.90545032  1  0  0.086038  0  0.96464  0  0  0.096541  0  1.028003  0  0  0.099302  0  1.027361  0  0  0.09746  0.094506  0  1.028777  0
H  H9  1  0.27152613  0.85488128  0.09467821  1  0  0.08662  0  0.964443  0  0  0.096686  0  1.028227  0  0  0.099469  0  1.027494  0  0  0.097564  0.09466  0  1.028999  0
H  H10  1  0.82319279  0.35499801  0.09454945  1  0  0.08605  0  0.964633  0  0  0.096549  0  1.027993  0  0  0.099311  0  1.027349  0  0  0.097454  0.094514  0  1.028766  0
H  H11  1  0.72847355  0.14511775  0.90532106  1  0  0.086636  0  0.964397  0  0  0.096696  0  1.028192  0  0  0.099477  0  1.027458  0  0  0.097575  0.09467  0  1.028964  0
H  H12  1  0.57333951  0.90573380  0.78862976  1  0  0.09729  0  0.962375  0  0  0.106438  0  1.028823  0  0  0.109452  0  1.027097  0  0  0.101733  0.103933  0  1.030891  0
H  H13  1  0.78477731  0.59423681  0.21155064  1  0  0.097798  0  0.960369  0  0  0.106867  0  1.027122  0  0  0.109902  0  1.025355  0  0  0.101879  0.104355  0  1.029205  0
H  H14  1  0.42665890  0.09426619  0.21136953  1  0  0.09729  0  0.962361  0  0  0.106434  0  1.028817  0  0  0.109448  0  1.027089  0  0  0.101727  0.103929  0  1.030886  0
H  H15  1  0.21522249  0.40576318  0.78844956  1  0  0.097827  0  0.960358  0  0  0.106893  0  1.02711  0  0  0.109928  0  1.025343  0  0  0.101908  0.104383  0  1.029194  0
H  H16  1  0.69912371  0.98559761  0.04949475  1  0  0.114592  0  0.961018  0  0  0.135058  0  1.024262  0  0  0.135209  0  1.026993  0  0  0.0918  0.134867  0  1.02255  0
H  H17  1  0.64950431  0.51436271  0.95057526  1  0  0.114408  0  0.961995  0  0  0.135147  0  1.024851  0  0  0.135273  0  1.027606  0  0  0.091903  0.134969  0  1.02312  0
H  H18  1  0.30087598  0.01440142  0.95050524  1  0  0.114562  0  0.960971  0  0  0.135026  0  1.024231  0  0  0.135178  0  1.026961  0  0  0.091789  0.134835  0  1.022518  0
H  H19  1  0.35049538  0.48563632  0.04942473  1  0  0.114397  0  0.962049  0  0  0.135141  0  1.02489  0  0  0.135267  0  1.027645  0  0  0.091892  0.134963  0  1.023159  0
H  H20  1  0.80439047  0.94830924  0.94647469  1  0  0.1028  0  0.952363  0  0  0.125806  0  1.012092  0  0  0.127353  0  1.011209  0  0  0.089193  0.124692  0  1.012728  0
H  H21  1  0.85785092  0.55159856  0.05354930  1  0  0.1021  0  0.953036  0  0  0.125273  0  1.012591  0  0  0.126833  0  1.011704  0  0  0.088939  0.124142  0  1.01324  0
H  H22  1  0.19560783  0.05168979  0.05352510  1  0  0.102783  0  0.952329  0  0  0.125802  0  1.012057  0  0  0.127349  0  1.011174  0  0  0.089195  0.124688  0  1.012693  0
H  H23  1  0.14215015  0.44840046  0.94645089  1  0  0.102128  0  0.953004  0  0  0.125275  0  1.01259  0  0  0.126836  0  1.011703  0  0  0.088937  0.124145  0  1.01324  0
H  H24  1  0.81744136  0.84502379  0.02753779  1  0  0.103689  0  0.973279  0  0  0.126722  0  1.032416  0  0  0.127819  0  1.032477  0  0  0.090346  0.12595  0  1.032309  0
H  H25  1  0.78979238  0.65495618  0.97255800  1  0  0.103814  0  0.971215  0  0  0.12682  0  1.030684  0  0  0.127966  0  1.030678  0  0  0.090146  0.126009  0  1.030631  0
H  H26  1  0.18255705  0.15497620  0.97246221  1  0  0.10367  0  0.973273  0  0  0.126706  0  1.03241  0  0  0.127803  0  1.032471  0  0  0.090342  0.125935  0  1.032303  0
H  H27  1  0.21020859  0.34504188  0.02744198  1  0  0.103816  0  0.971208  0  0  0.126822  0  1.030678  0  0  0.127968  0  1.030672  0  0  0.090165  0.126011  0  1.030625  0
H  H28  1  0.19146137  0.57452718  0.23035641  1  0  0.087353  0  0.96883  0  0  0.101658  0  1.025497  0  0  0.103545  0  1.025373  0  0  0.108674  0.100319  0  1.025687  0
H  H29  1  0.96124823  0.92558402  0.76969010  1  0  0.087729  0  0.968079  0  0  0.10167  0  1.025166  0  0  0.103612  0  1.024987  0  0  0.108587  0.100353  0  1.025303  0
H  H30  1  0.80853991  0.42547376  0.76964348  1  0  0.087363  0  0.968812  0  0  0.101667  0  1.025482  0  0  0.103554  0  1.025359  0  0  0.108671  0.100329  0  1.025673  0
H  H31  1  0.03875167  0.07441693  0.23031246  1  0  0.087755  0  0.968104  0  0  0.101695  0  1.025183  0  0  0.103637  0  1.025004  0  0  0.108605  0.100377  0  1.025323  0
H  H32  1  0.34994069  0.34377879  0.23246906  1  0  0.083816  0  1.018686  0  0  0.0948  0  1.080544  0  0  0.095844  0  1.082355  0  0  0.101598  0.094132  0  1.079218  0
H  H33  1  0.11748734  0.15644819  0.76759617  1  0  0.082791  0  1.018692  0  0  0.094048  0  1.080324  0  0  0.095083  0  1.082119  0  0  0.101474  0.093432  0  1.078944  0
H  H34  1  0.65006069  0.65622312  0.76753033  1  0  0.083787  0  1.018669  0  0  0.094765  0  1.08054  0  0  0.095808  0  1.08235  0  0  0.101565  0.094074  0  1.079237  0
H  H35  1  0.88251245  0.84355180  0.23240403  1  0  0.082814  0  1.018646  0  0  0.094072  0  1.080279  0  0  0.095107  0  1.082073  0  0  0.101489  0.093458  0  1.078898  0
H  H36  1  0.19911352  0.48750670  0.50833227  1  0  0.089665  0  0.955309  0  0  0.100427  0  1.01633  0  0  0.102513  0  1.014113  0  0  0.127347  0.098925  0  1.017945  0
H  H37  1  0.69105849  0.01246285  0.49164648  1  0  0.089396  0  0.955121  0  0  0.100246  0  1.016033  0  0  0.102329  0  1.013778  0  0  0.127079  0.098747  0  1.017677  0
H  H38  1  0.80088776  0.51249425  0.49166691  1  0  0.089682  0  0.9553  0  0  0.100454  0  1.016324  0  0  0.102534  0  1.014103  0  0  0.127356  0.098949  0  1.017942  0
H  H39  1  0.30894396  0.98753618  0.50835462  1  0  0.089401  0  0.955089  0  0  0.100252  0  1.016009  0  0  0.102333  0  1.013754  0  0  0.127091  0.098751  0  1.017652  0
C  C40  1  0.27036310  0.78992470  0.63644262  1  0  0.660215  0  3.886824  0  0  0.609115  0  4.170547  0  0  0.64412  0  4.162831  0  0  0.21985  0.585332  0  4.175067  0
C  C41  1  0.63381929  0.71003306  0.36373061  1  0  0.661303  0  3.885359  0  0  0.608756  0  4.170654  0  0  0.643778  0  4.162999  0  0  0.219839  0.584974  0  4.175123  0
C  C42  1  0.72963925  0.21007336  0.36355898  1  0  0.660336  0  3.886739  0  0  0.609235  0  4.170482  0  0  0.644242  0  4.162763  0  0  0.219887  0.585452  0  4.175003  0
C  C43  1  0.36618178  0.28996597  0.63627029  1  0  0.661232  0  3.885386  0  0  0.608738  0  4.170626  0  0  0.64376  0  4.16297  0  0  0.219808  0.584958  0  4.175097  0
C  C44  1  0.32166561  0.78522393  0.74605574  1  0  -0.068748  0  3.792894  0  0  -0.048298  0  4.030163  0  0  -0.056609  0  4.053094  0  0  -0.020784  -0.042856  0  4.014607  0
C  C45  1  0.57575458  0.71478719  0.25414316  1  0  -0.07128  0  3.790462  0  0  -0.049965  0  4.027746  0  0  -0.058382  0  4.050768  0  0  -0.020829  -0.044481  0  4.01218  0
C  C46  1  0.67833280  0.21477606  0.25394354  1  0  -0.068782  0  3.792906  0  0  -0.04837  0  4.030225  0  0  -0.056681  0  4.053152  0  0  -0.020808  -0.042927  0  4.014666  0
C  C47  1  0.42424639  0.28521087  0.74585610  1  0  -0.07121  0  3.790413  0  0  -0.049933  0  4.027727  0  0  -0.058345  0  4.050741  0  0  -0.020859  -0.044451  0  4.012162  0
C  C48  1  0.20726347  0.71341238  0.77913257  1  0  -0.0646  0  3.740932  0  0  -0.091117  0  3.994243  0  0  -0.089692  0  4.013389  0  0  -0.084677  -0.091818  0  3.981146  0
C  C49  1  0.42834182  0.78660386  0.22106885  1  0  -0.062795  0  3.737904  0  0  -0.089366  0  3.991208  0  0  -0.08783  0  4.010385  0  0  -0.084284  -0.090127  0  3.978065  0
C  C50  1  0.79273505  0.28658857  0.22086692  1  0  -0.064593  0  3.740989  0  0  -0.091098  0  3.994308  0  0  -0.089661  0  4.013464  0  0  -0.084668  -0.0918  0  3.98121  0
C  C51  1  0.57165925  0.21339517  0.77893134  1  0  -0.062789  0  3.737828  0  0  -0.089356  0  3.991141  0  0  -0.087822  0  4.010317  0  0  -0.084275  -0.090119  0  3.978  0
C  C52  1  0.26455358  0.70149892  0.87926452  1  0  -0.1175  0  3.763709  0  0  -0.136687  0  4.016132  0  0  -0.140691  0  4.037203  0  0  -0.091519  -0.134017  0  4.00222  0
C  C53  1  0.38539940  0.79842893  0.12091941  1  0  -0.118913  0  3.763093  0  0  -0.137919  0  4.016089  0  0  -0.141905  0  4.037115  0  0  -0.092091  -0.135257  0  4.002176  0
C  C54  1  0.73544621  0.29850107  0.12073567  1  0  -0.117512  0  3.763673  0  0  -0.136692  0  4.016089  0  0  -0.140695  0  4.037154  0  0  -0.091511  -0.134022  0  4.002176  0
C  C55  1  0.61460167  0.20157010  0.87908006  1  0  -0.11894  0  3.763029  0  0  -0.137949  0  4.016033  0  0  -0.141933  0  4.037057  0  0  -0.092104  -0.135286  0  4.002119  0
C  C56  1  0.43541554  0.75891030  0.94741495  1  0  0.016508  0  3.727145  0  0  0.028053  0  3.954273  0  0  0.028416  0  3.977736  0  0  -0.001711  0.027906  0  3.938421  0
C  C57  1  0.48809318  0.74091906  0.05277732  1  0  0.016769  0  3.728089  0  0  0.027722  0  3.955489  0  0  0.02806  0  3.978964  0  0  -0.001064  0.027611  0  3.939628  0
C  C58  1  0.56458287  0.24108969  0.05258576  1  0  0.016496  0  3.726981  0  0  0.028035  0  3.954108  0  0  0.028397  0  3.977572  0  0  -0.001743  0.02789  0  3.938255  0
C  C59  1  0.51190779  0.25907900  0.94722266  1  0  0.016788  0  3.72804  0  0  0.027748  0  3.955382  0  0  0.028089  0  3.978855  0  0  -0.001075  0.027635  0  3.939519  0
C  C60  1  0.54877832  0.83560491  0.91583293  1  0  0.09207  0  3.723319  0  0  0.115431  0  3.96077  0  0  0.114553  0  3.984096  0  0  -0.008146  0.1159  0  3.944947  0
C  C61  1  0.63305513  0.66427866  0.08432588  1  0  0.092056  0  3.724845  0  0  0.115735  0  3.962299  0  0  0.114878  0  3.985599  0  0  -0.008216  0.11619  0  3.946498  0
C  C62  1  0.45122020  0.16439604  0.08416656  1  0  0.092011  0  3.723324  0  0  0.115357  0  3.960802  0  0  0.114479  0  3.984128  0  0  -0.008175  0.115824  0  3.944981  0
C  C63  1  0.36694594  0.33572037  0.91567430  1  0  0.091966  0  3.724874  0  0  0.115708  0  3.962216  0  0  0.11485  0  3.985516  0  0  -0.008231  0.116163  0  3.946413  0
C  C64  1  0.48853805  0.84746899  0.81513940  1  0  -0.135839  0  3.72749  0  0  -0.163558  0  3.970277  0  0  -0.163818  0  3.989658  0  0  -0.087174  -0.163379  0  3.957867  0
C  C65  1  0.67343471  0.65251221  0.18505146  1  0  -0.135045  0  3.724605  0  0  -0.16299  0  3.96734  0  0  -0.163221  0  3.986719  0  0  -0.087109  -0.162865  0  3.954992  0
C  C66  1  0.51145919  0.15253292  0.18486082  1  0  -0.135802  0  3.727547  0  0  -0.163506  0  3.970346  0  0  -0.163764  0  3.989726  0  0  -0.087134  -0.16333  0  3.95794  0
C  C67  1  0.32656625  0.34748586  0.81494709  1  0  -0.135051  0  3.724573  0  0  -0.163006  0  3.967292  0  0  -0.163238  0  3.98667  0  0  -0.087089  -0.162882  0  3.954944  0
C  C68  1  0.72681846  0.90693392  0.98838397  1  0  -0.336392  0  3.735676  0  0  -0.418894  0  3.968605  0  0  -0.420914  0  3.978965  0  0  -0.241889  -0.417222  0  3.961488  0
C  C69  1  0.73835352  0.59300652  0.01171454  1  0  -0.336019  0  3.73545  0  0  -0.418972  0  3.968044  0  0  -0.421043  0  3.978429  0  0  -0.241697  -0.41725  0  3.960923  0
C  C70  1  0.27318144  0.09306703  0.01161644  1  0  -0.336297  0  3.735581  0  0  -0.418808  0  3.968518  0  0  -0.420831  0  3.978882  0  0  -0.241858  -0.417137  0  3.961403  0
C  C71  1  0.26164627  0.40699346  0.98828494  1  0  -0.336007  0  3.735479  0  0  -0.418966  0  3.968058  0  0  -0.421037  0  3.978443  0  0  -0.241699  -0.417243  0  3.960938  0
C  C72  1  0.21333797  0.52129558  0.28774298  1  0  -0.021309  0  3.800324  0  0  -0.051663  0  4.056433  0  0  -0.050861  0  4.078582  0  0  -0.02205  -0.052174  0  4.041384  0
C  C73  1  0.92579151  0.97878010  0.71227921  1  0  -0.023031  0  3.798095  0  0  -0.053248  0  4.054557  0  0  -0.052489  0  4.076658  0  0  -0.022214  -0.053764  0  4.039539  0
C  C74  1  0.78666193  0.47870537  0.71225672  1  0  -0.021318  0  3.80032  0  0  -0.051667  0  4.056424  0  0  -0.050867  0  4.078574  0  0  -0.02205  -0.052179  0  4.041374  0
C  C75  1  0.07420562  0.02122085  0.28772223  1  0  -0.023014  0  3.798177  0  0  -0.053228  0  4.054622  0  0  -0.052469  0  4.076725  0  0  -0.022185  -0.053744  0  4.039608  0
C  C76  1  0.29318916  0.40710011  0.28901519  1  0  -0.034623  0  3.790217  0  0  -0.061339  0  4.039237  0  0  -0.060579  0  4.062493  0  0  -0.026401  -0.061818  0  4.023211  0
C  C77  1  0.00422444  0.09307774  0.71105749  1  0  -0.032911  0  3.787886  0  0  -0.059749  0  4.037239  0  0  -0.058963  0  4.060455  0  0  -0.026461  -0.060282  0  4.021213  0
C  C78  1  0.70681074  0.59290084  0.71098307  1  0  -0.034621  0  3.790404  0  0  -0.061325  0  4.039415  0  0  -0.060565  0  4.062672  0  0  -0.026411  -0.061784  0  4.0234  0
C  C79  1  0.99577556  0.90692417  0.28894527  1  0  -0.032927  0  3.788085  0  0  -0.059765  0  4.037437  0  0  -0.058978  0  4.060653  0  0  -0.026484  -0.060299  0  4.021411  0
C  C80  1  0.21831805  0.48060108  0.43298219  1  0  0.215679  0  3.719518  0  0  0.1613  0  3.983903  0  0  0.175628  0  3.997386  0  0  0.121602  0.151782  0  3.974258  0
C  C81  1  0.78557184  0.01942432  0.56701964  1  0  0.216124  0  3.719462  0  0  0.161814  0  3.983743  0  0  0.176174  0  3.9972  0  0  0.122306  0.152277  0  3.974117  0
C  C82  1  0.78168323  0.51939987  0.56701628  1  0  0.215663  0  3.71963  0  0  0.161277  0  3.984032  0  0  0.175617  0  3.997504  0  0  0.121571  0.151762  0  3.974384  0
C  C83  1  0.21443061  0.98057470  0.43298146  1  0  0.216115  0  3.719397  0  0  0.161795  0  3.983683  0  0  0.176157  0  3.997137  0  0  0.12226  0.15226  0  3.974057  0
N  N84  1  0.16674035  0.56709466  0.37907990  1  0  -0.418871  0  3.350427  0  0  -0.330368  0  3.648165  0  0  -0.351526  0  3.660699  0  0  -0.379585  -0.315292  0  3.639227  0
N  N85  1  0.78792424  0.93290303  0.62092636  1  0  -0.417765  0  3.349309  0  0  -0.328946  0  3.646486  0  0  -0.350134  0  3.659092  0  0  -0.379246  -0.313862  0  3.637527  0
N  N86  1  0.83326093  0.43290629  0.62091928  1  0  -0.418908  0  3.350494  0  0  -0.330411  0  3.64824  0  0  -0.351567  0  3.660767  0  0  -0.379588  -0.315335  0  3.639303  0
N  N87  1  0.21207545  0.06709600  0.37907577  1  0  -0.417773  0  3.349271  0  0  -0.328943  0  3.646439  0  0  -0.350133  0  3.659045  0  0  -0.379231  -0.313861  0  3.637482  0
N  N88  1  0.29593307  0.38170487  0.38148800  1  0  -0.425209  0  3.334611  0  0  -0.334785  0  3.636303  0  0  -0.356604  0  3.647614  0  0  -0.379265  -0.319241  0  3.62809  0
N  N89  1  0.91450721  0.11841542  0.61856246  1  0  -0.426056  0  3.335509  0  0  -0.336012  0  3.637665  0  0  -0.357838  0  3.648967  0  0  -0.379405  -0.320469  0  3.629466  0
N  N90  1  0.70406821  0.61829607  0.61851118  1  0  -0.425161  0  3.334829  0  0  -0.334754  0  3.636525  0  0  -0.356571  0  3.647832  0  0  -0.379204  -0.319206  0  3.6283  0
N  N91  1  0.08549535  0.88158457  0.38143814  1  0  -0.426098  0  3.335668  0  0  -0.336054  0  3.637837  0  0  -0.357882  0  3.649139  0  0  -0.379408  -0.320509  0  3.629633  0
O  O92  1  0.10585409  0.74903871  0.58112264  1  0  -0.604174  0  2.074767  0  0  -0.531895  0  2.345187  0  0  -0.559885  0  2.333005  0  0  -0.303387  -0.512574  0  2.353015  0
O  O93  1  0.52434502  0.75071284  0.41891632  1  0  -0.603968  0  2.072595  0  0  -0.53111  0  2.343556  0  0  -0.559015  0  2.331249  0  0  -0.30324  -0.511755  0  2.3513  0
O  O94  1  0.89414847  0.25096127  0.41887724  1  0  -0.604231  0  2.074747  0  0  -0.531946  0  2.345166  0  0  -0.559933  0  2.332978  0  0  -0.303411  -0.512622  0  2.352996  0
O  O95  1  0.47565467  0.24928619  0.58108367  1  0  -0.603945  0  2.072574  0  0  -0.531123  0  2.343539  0  0  -0.559026  0  2.331226  0  0  -0.303228  -0.511767  0  2.351285  0
O  O96  1  0.39086055  0.83282927  0.60161627  1  0  -0.654891  0  2.09685  0  0  -0.583127  0  2.37517  0  0  -0.608908  0  2.357477  0  0  -0.326617  -0.565221  0  2.387038  0
O  O97  1  0.78912549  0.66724161  0.39867818  1  0  -0.654789  0  2.098468  0  0  -0.582501  0  2.377065  0  0  -0.608305  0  2.359397  0  0  -0.326099  -0.564583  0  2.388896  0
O  O98  1  0.60914296  0.16716688  0.39838368  1  0  -0.654949  0  2.096864  0  0  -0.583167  0  2.375179  0  0  -0.608949  0  2.357484  0  0  -0.32662  -0.565262  0  2.387048  0
O  O99  1  0.21087420  0.33275742  0.60132181  1  0  -0.654785  0  2.098474  0  0  -0.582502  0  2.377041  0  0  -0.608309  0  2.359376  0  0  -0.32609  -0.564583  0  2.388872  0
