# generated using pymatgen
data_ZnH11C19NO4
_symmetry_space_group_name_H-M   'P 1'
_cell_length_a   8.18471342
_cell_length_b   14.78958065
_cell_length_c   15.01485980
_cell_angle_alpha   89.99935660
_cell_angle_beta   97.72546038
_cell_angle_gamma   89.99957311
_symmetry_Int_Tables_number   1
_chemical_formula_structural   ZnH11C19NO4
_chemical_formula_sum   'Zn4 H44 C76 N4 O16'
_cell_volume   1801.02928430
_cell_formula_units_Z   4
loop_
 _symmetry_equiv_pos_site_id
 _symmetry_equiv_pos_as_xyz
  1  'x, y, z'
loop_
 _atom_site_type_symbol
 _atom_site_label
 _atom_site_symmetry_multiplicity
 _atom_site_fract_x
 _atom_site_fract_y
 _atom_site_fract_z
 _atom_site_occupancy
 _atom_site_hle17_bader_spin_density
 _atom_site_hle17_ddec_charge
 _atom_site_hle17_ddec_spin_density
 _atom_site_hle17_ddec_sum_bond_order
 _atom_site_hle17_magmom
 _atom_site_hse06_10hf_bader_spin_density
 _atom_site_hse06_10hf_ddec_charge
 _atom_site_hse06_10hf_ddec_spin_density
 _atom_site_hse06_10hf_ddec_sum_bond_order
 _atom_site_hse06_10hf_magmom
 _atom_site_hse06_bader_spin_density
 _atom_site_hse06_ddec_charge
 _atom_site_hse06_ddec_spin_density
 _atom_site_hse06_ddec_sum_bond_order
 _atom_site_hse06_magmom
 _atom_site_pbe_bader_spin_density
 _atom_site_pbe_cm5_charge
 _atom_site_pbe_ddec_charge
 _atom_site_pbe_ddec_spin_density
 _atom_site_pbe_ddec_sum_bond_order
 _atom_site_pbe_magmom
Zn  Zn0  1  0.99036708  0.72957147  0.74631884  1  0  1.129359  0  1.692067  0  0  0.955694  0  2.14295  0  0  1.005123  0  2.084017  0  0  0.700881  0.920999  0  2.183483  0
Zn  Zn1  1  0.50962651  0.22956856  0.25368402  1  0  1.12938  0  1.692028  0  0  0.955742  0  2.14291  0  0  1.005179  0  2.083965  0  0  0.700854  0.921047  0  2.183442  0
Zn  Zn2  1  0.00962961  0.27043013  0.25368489  1  0  1.12935  0  1.692143  0  0  0.955726  0  2.143042  0  0  1.005159  0  2.0841  0  0  0.700871  0.921034  0  2.183588  0
Zn  Zn3  1  0.49037796  0.77043101  0.74631139  1  0  1.129354  0  1.691953  0  0  0.955746  0  2.142859  0  0  1.005188  0  2.083906  0  0  0.700846  0.92105  0  2.183409  0
H  H4  1  0.10491884  0.87634352  0.63303586  1  0  0.09179  0  0.985916  0  0  0.098633  0  1.053967  0  0  0.101237  0  1.051716  0  0  0.117446  0.096785  0  1.05551  0
H  H5  1  0.39507897  0.37634445  0.36697744  1  0  0.091802  0  0.985864  0  0  0.09865  0  1.054003  0  0  0.101249  0  1.051756  0  0  0.117439  0.096808  0  1.055529  0
H  H6  1  0.89509185  0.12365740  0.36697316  1  0  0.09182  0  0.985937  0  0  0.098665  0  1.054009  0  0  0.101266  0  1.05176  0  0  0.117451  0.096816  0  1.055555  0
H  H7  1  0.60492446  0.62365038  0.63301992  1  0  0.091766  0  0.985893  0  0  0.098673  0  1.05395  0  0  0.101275  0  1.051699  0  0  0.117439  0.096824  0  1.055495  0
H  H8  1  0.00328553  0.13193316  0.75208080  1  0  0.096372  0  0.947724  0  0  0.108595  0  1.006944  0  0  0.11194  0  1.003731  0  0  0.109153  0.106155  0  1.009251  0
H  H9  1  0.49672163  0.63193161  0.24792771  1  0  0.096329  0  0.947857  0  0  0.108552  0  1.007076  0  0  0.111895  0  1.003864  0  0  0.10912  0.106116  0  1.009375  0
H  H10  1  0.99672108  0.86807181  0.24792403  1  0  0.09638  0  0.9478  0  0  0.108569  0  1.007054  0  0  0.111911  0  1.003842  0  0  0.109139  0.106133  0  1.009358  0
H  H11  1  0.50326015  0.36806592  0.75207401  1  0  0.096424  0  0.947689  0  0  0.108667  0  1.006879  0  0  0.112008  0  1.003669  0  0  0.109151  0.106228  0  1.009182  0
H  H12  1  0.87540574  0.87554273  0.86103218  1  0  0.092993  0  0.984452  0  0  0.099472  0  1.053045  0  0  0.102048  0  1.050879  0  0  0.117724  0.097609  0  1.054582  0
H  H13  1  0.62457621  0.37554201  0.13897447  1  0  0.092932  0  0.984446  0  0  0.09948  0  1.05296  0  0  0.102067  0  1.050772  0  0  0.117699  0.097618  0  1.054492  0
H  H14  1  0.12458843  0.12446292  0.13897076  1  0  0.092949  0  0.984552  0  0  0.099445  0  1.053128  0  0  0.102026  0  1.050953  0  0  0.117725  0.097582  0  1.054665  0
H  H15  1  0.37542975  0.62446297  0.86102367  1  0  0.092902  0  0.984414  0  0  0.099363  0  1.053037  0  0  0.101947  0  1.050859  0  0  0.117693  0.097499  0  1.054576  0
H  H16  1  0.29624566  0.94952601  0.58223050  1  0  0.112097  0  0.945754  0  0  0.122112  0  1.005531  0  0  0.125741  0  1.00331  0  0  0.107688  0.119438  0  1.007325  0
H  H17  1  0.20375102  0.44953190  0.41778257  1  0  0.112163  0  0.945486  0  0  0.12215  0  1.00533  0  0  0.125803  0  1.003076  0  0  0.107675  0.119472  0  1.007134  0
H  H18  1  0.70375342  0.05047356  0.41777266  1  0  0.112078  0  0.945671  0  0  0.122095  0  1.005457  0  0  0.125725  0  1.003233  0  0  0.107678  0.119417  0  1.007257  0
H  H19  1  0.79625843  0.55046158  0.58222639  1  0  0.112064  0  0.945689  0  0  0.122091  0  1.005472  0  0  0.125722  0  1.003246  0  0  0.107631  0.119439  0  1.007237  0
H  H20  1  0.39080221  0.02520286  0.45047598  1  0  0.101073  0  0.954537  0  0  0.11076  0  1.016001  0  0  0.113905  0  1.014017  0  0  0.105375  0.108489  0  1.017435  0
H  H21  1  0.10919022  0.52521233  0.54952842  1  0  0.101053  0  0.95451  0  0  0.110728  0  1.015978  0  0  0.113871  0  1.013996  0  0  0.105384  0.108463  0  1.017417  0
H  H22  1  0.60918736  0.97479198  0.54951741  1  0  0.101028  0  0.954503  0  0  0.110724  0  1.015965  0  0  0.113868  0  1.013983  0  0  0.105374  0.108457  0  1.017403  0
H  H23  1  0.89081638  0.47477980  0.45047641  1  0  0.101002  0  0.954624  0  0  0.110715  0  1.016059  0  0  0.113858  0  1.014077  0  0  0.10538  0.108452  0  1.017495  0
H  H24  1  0.08634356  0.25467498  0.48595424  1  0  0.102464  0  0.957203  0  0  0.112238  0  1.017556  0  0  0.115241  0  1.016042  0  0  0.103599  0.109938  0  1.018864  0
H  H25  1  0.41366142  0.75467479  0.51405077  1  0  0.102436  0  0.957176  0  0  0.112215  0  1.017517  0  0  0.115218  0  1.016005  0  0  0.103619  0.109929  0  1.018809  0
H  H26  1  0.91365132  0.74532256  0.51404340  1  0  0.102462  0  0.957174  0  0  0.112253  0  1.017507  0  0  0.115256  0  1.015993  0  0  0.103611  0.109945  0  1.018821  0
H  H27  1  0.58634506  0.24532005  0.48595273  1  0  0.102397  0  0.957191  0  0  0.112204  0  1.017518  0  0  0.115207  0  1.016006  0  0  0.103591  0.109901  0  1.018827  0
H  H28  1  0.97730029  0.17757622  0.61250695  1  0  0.091042  0  0.950977  0  0  0.103931  0  1.006961  0  0  0.106888  0  1.006016  0  0  0.101236  0.101831  0  1.007714  0
H  H29  1  0.52270813  0.67757235  0.38750183  1  0  0.090948  0  0.951134  0  0  0.10391  0  1.007037  0  0  0.106859  0  1.006094  0  0  0.101229  0.101809  0  1.007788  0
H  H30  1  0.02270327  0.82242538  0.38749174  1  0  0.090978  0  0.951046  0  0  0.103868  0  1.00703  0  0  0.106822  0  1.006086  0  0  0.10122  0.101767  0  1.007785  0
H  H31  1  0.47730081  0.32242045  0.61250178  1  0  0.090951  0  0.950987  0  0  0.103854  0  1.006969  0  0  0.10681  0  1.006025  0  0  0.101194  0.101755  0  1.007724  0
H  H32  1  0.69417586  0.95293106  0.91691878  1  0  0.110558  0  0.945436  0  0  0.120641  0  1.00492  0  0  0.12424  0  1.002747  0  0  0.107676  0.11804  0  1.006628  0
H  H33  1  0.80583568  0.45292481  0.08308898  1  0  0.110496  0  0.94533  0  0  0.120613  0  1.004779  0  0  0.124213  0  1.002603  0  0  0.107672  0.118012  0  1.00649  0
H  H34  1  0.30582278  0.04707392  0.08307969  1  0  0.110525  0  0.945402  0  0  0.12062  0  1.004891  0  0  0.124225  0  1.002705  0  0  0.107634  0.118017  0  1.006598  0
H  H35  1  0.19417054  0.54707611  0.91691183  1  0  0.110551  0  0.945388  0  0  0.120685  0  1.00479  0  0  0.124287  0  1.002611  0  0  0.10768  0.118079  0  1.006511  0
H  H36  1  0.60885152  0.02809388  0.05146070  1  0  0.098588  0  0.956265  0  0  0.108492  0  1.018056  0  0  0.111563  0  1.016109  0  0  0.104112  0.106288  0  1.019448  0
H  H37  1  0.89114021  0.52808204  0.94854237  1  0  0.098622  0  0.956297  0  0  0.108519  0  1.018099  0  0  0.111591  0  1.016149  0  0  0.104163  0.106286  0  1.019529  0
H  H38  1  0.39113843  0.97190771  0.94853671  1  0  0.098616  0  0.956302  0  0  0.108512  0  1.018086  0  0  0.111585  0  1.016137  0  0  0.104106  0.10631  0  1.019479  0
H  H39  1  0.10885479  0.47191685  0.05145660  1  0  0.098553  0  0.95619  0  0  0.108446  0  1.018022  0  0  0.111519  0  1.016072  0  0  0.104105  0.106206  0  1.019459  0
H  H40  1  0.93503417  0.24937077  0.02116368  1  0  0.10265  0  0.958972  0  0  0.111569  0  1.020406  0  0  0.114578  0  1.018821  0  0  0.103963  0.109363  0  1.021617  0
H  H41  1  0.56494452  0.74935522  0.97882760  1  0  0.102754  0  0.95918  0  0  0.111667  0  1.020598  0  0  0.114636  0  1.019055  0  0  0.103968  0.109454  0  1.02182  0
H  H42  1  0.06494509  0.75063691  0.97883726  1  0  0.102714  0  0.959062  0  0  0.11165  0  1.02047  0  0  0.11466  0  1.018882  0  0  0.103989  0.109443  0  1.021683  0
H  H43  1  0.43505347  0.25064231  0.02116417  1  0  0.102635  0  0.959132  0  0  0.111585  0  1.02053  0  0  0.114589  0  1.018949  0  0  0.103963  0.109375  0  1.021748  0
H  H44  1  0.03453637  0.17227016  0.89190985  1  0  0.090011  0  0.952037  0  0  0.103218  0  1.007603  0  0  0.106179  0  1.006625  0  0  0.10069  0.101109  0  1.00838  0
H  H45  1  0.46545647  0.67226087  0.10808355  1  0  0.090084  0  0.952062  0  0  0.103287  0  1.007622  0  0  0.106247  0  1.006648  0  0  0.100732  0.10118  0  1.008399  0
H  H46  1  0.96544963  0.82773955  0.10808472  1  0  0.090057  0  0.951969  0  0  0.103263  0  1.007524  0  0  0.106217  0  1.006554  0  0  0.100702  0.101158  0  1.008298  0
H  H47  1  0.53453549  0.32774072  0.89190929  1  0  0.089945  0  0.951918  0  0  0.10316  0  1.007478  0  0  0.106109  0  1.006515  0  0  0.100637  0.101049  0  1.008256  0
C  C48  1  0.05600143  0.91706457  0.68347163  1  0  0.102243  0  3.638712  0  0  0.060019  0  3.889145  0  0  0.067693  0  3.906027  0  0  0.05306  0.054679  0  3.878529  0
C  C49  1  0.44400285  0.41706182  0.31653882  1  0  0.10242  0  3.638952  0  0  0.060182  0  3.889333  0  0  0.067818  0  3.906284  0  0  0.053195  0.054837  0  3.878734  0
C  C50  1  0.94400770  0.08293703  0.31653399  1  0  0.102461  0  3.638914  0  0  0.060247  0  3.889378  0  0  0.067898  0  3.9063  0  0  0.053216  0.054911  0  3.87876  0
C  C51  1  0.55599708  0.58293369  0.68346037  1  0  0.102473  0  3.638628  0  0  0.060199  0  3.889083  0  0  0.067836  0  3.906028  0  0  0.053193  0.054856  0  3.878481  0
C  C52  1  0.06224003  0.01162983  0.68151203  1  0  0.014871  0  3.773387  0  0  0.032054  0  4.010716  0  0  0.027087  0  4.034553  0  0  0.000381  0.035009  0  3.994524  0
C  C53  1  0.43776169  0.51162772  0.31849762  1  0  0.014951  0  3.773355  0  0  0.03221  0  4.010691  0  0  0.027254  0  4.034513  0  0  0.000447  0.03516  0  3.994504  0
C  C54  1  0.93777169  0.98837312  0.31849503  1  0  0.014819  0  3.773455  0  0  0.03202  0  4.010783  0  0  0.02706  0  4.034608  0  0  0.000377  0.034977  0  3.99459  0
C  C55  1  0.56222852  0.48836576  0.68150248  1  0  0.014925  0  3.773282  0  0  0.03218  0  4.010647  0  0  0.027224  0  4.034464  0  0  0.000406  0.035129  0  3.994462  0
C  C56  1  0.99940039  0.05826300  0.75058930  1  0  -0.090694  0  3.661877  0  0  -0.122207  0  3.902768  0  0  -0.119304  0  3.919412  0  0  -0.062477  -0.123565  0  3.891229  0
C  C57  1  0.50060473  0.55826758  0.24941737  1  0  -0.090671  0  3.661731  0  0  -0.122169  0  3.90271  0  0  -0.119253  0  3.919334  0  0  -0.06244  -0.123535  0  3.891176  0
C  C58  1  0.00060609  0.94173589  0.24941419  1  0  -0.090681  0  3.66177  0  0  -0.12218  0  3.902695  0  0  -0.119267  0  3.919324  0  0  -0.06246  -0.123548  0  3.89116  0
C  C59  1  0.49938276  0.44173537  0.75057994  1  0  -0.090868  0  3.661855  0  0  -0.122354  0  3.902829  0  0  -0.119437  0  3.919451  0  0  -0.062485  -0.123716  0  3.89129  0
C  C60  1  0.93174375  0.01116000  0.81785568  1  0  0.014642  0  3.775219  0  0  0.033835  0  4.010697  0  0  0.028812  0  4.034718  0  0  0.001039  0.0368  0  3.994419  0
C  C61  1  0.56825455  0.51115560  0.18214922  1  0  0.014583  0  3.775014  0  0  0.033586  0  4.010738  0  0  0.028568  0  4.034746  0  0  0.000976  0.036555  0  3.994455  0
C  C62  1  0.06825145  0.98884565  0.18214531  1  0  0.01454  0  3.774926  0  0  0.03371  0  4.010446  0  0  0.02869  0  4.034456  0  0  0.000978  0.036687  0  3.994157  0
C  C63  1  0.43174131  0.48884465  0.81784579  1  0  0.014577  0  3.774806  0  0  0.033543  0  4.010584  0  0  0.02853  0  4.034581  0  0  0.000896  0.036519  0  3.994297  0
C  C64  1  0.92842924  0.91666104  0.81227528  1  0  0.100324  0  3.638068  0  0  0.057563  0  3.888842  0  0  0.065451  0  3.905172  0  0  0.052667  0.052277  0  3.878235  0
C  C65  1  0.57156364  0.41665930  0.18773673  1  0  0.100488  0  3.638155  0  0  0.057852  0  3.888776  0  0  0.065701  0  3.905176  0  0  0.052785  0.052564  0  3.878164  0
C  C66  1  0.07156739  0.08334394  0.18772777  1  0  0.100438  0  3.638073  0  0  0.05775  0  3.888755  0  0  0.065609  0  3.90514  0  0  0.052717  0.052459  0  3.87815  0
C  C67  1  0.42844368  0.58334432  0.81226280  1  0  0.100603  0  3.637782  0  0  0.058086  0  3.888412  0  0  0.065904  0  3.904868  0  0  0.052883  0.052801  0  3.877808  0
C  C68  1  0.12896136  0.05796950  0.60716358  1  0  0.066971  0  3.78325  0  0  0.079975  0  4.013726  0  0  0.081927  0  4.039291  0  0  -0.001688  0.078954  0  3.996242  0
C  C69  1  0.37103967  0.55797425  0.39284617  1  0  0.066953  0  3.783066  0  0  0.079822  0  4.013771  0  0  0.081775  0  4.039339  0  0  -0.00172  0.078814  0  3.996269  0
C  C70  1  0.87104161  0.94203413  0.39284176  1  0  0.066958  0  3.783152  0  0  0.079951  0  4.01366  0  0  0.081905  0  4.039218  0  0  -0.001715  0.078933  0  3.996166  0
C  C71  1  0.62896026  0.44202396  0.60715302  1  0  0.066922  0  3.783062  0  0  0.079798  0  4.013755  0  0  0.081751  0  4.03932  0  0  -0.001684  0.07878  0  3.996269  0
C  C72  1  0.24679624  0.01574249  0.56081675  1  0  -0.113189  0  3.704524  0  0  -0.130514  0  3.950897  0  0  -0.135198  0  3.971736  0  0  -0.084556  -0.127387  0  3.936734  0
C  C73  1  0.25319582  0.51574586  0.43919509  1  0  -0.113286  0  3.704367  0  0  -0.130591  0  3.950807  0  0  -0.135289  0  3.971632  0  0  -0.084636  -0.12747  0  3.936657  0
C  C74  1  0.75320486  0.98425708  0.43918184  1  0  -0.113237  0  3.704631  0  0  -0.130565  0  3.951011  0  0  -0.135247  0  3.971846  0  0  -0.084582  -0.127442  0  3.936856  0
C  C75  1  0.74681091  0.48424830  0.56081109  1  0  -0.113255  0  3.704377  0  0  -0.130567  0  3.950825  0  0  -0.135248  0  3.971657  0  0  -0.084601  -0.127453  0  3.936649  0
C  C76  1  0.30287517  0.05839241  0.48803686  1  0  -0.061199  0  3.738336  0  0  -0.086007  0  3.986062  0  0  -0.084839  0  4.006574  0  0  -0.083022  -0.086492  0  3.972  0
C  C77  1  0.19712690  0.55839721  0.51197094  1  0  -0.061368  0  3.738213  0  0  -0.08611  0  3.985921  0  0  -0.084945  0  4.00644  0  0  -0.08307  -0.086609  0  3.97187  0
C  C78  1  0.69712314  0.94160580  0.51195827  1  0  -0.060965  0  3.738135  0  0  -0.085767  0  3.985865  0  0  -0.084601  0  4.00638  0  0  -0.082896  -0.086267  0  3.971814  0
C  C79  1  0.80288438  0.44159425  0.48803144  1  0  -0.061225  0  3.738468  0  0  -0.086033  0  3.986211  0  0  -0.084866  0  4.006722  0  0  -0.083048  -0.086536  0  3.97217  0
C  C80  1  0.24567193  0.14462975  0.46085963  1  0  -0.079848  0  3.77968  0  0  -0.055416  0  4.012982  0  0  -0.065612  0  4.03867  0  0  -0.024008  -0.048778  0  3.995573  0
C  C81  1  0.25433385  0.64463399  0.53914934  1  0  -0.079318  0  3.779175  0  0  -0.054959  0  4.012379  0  0  -0.065153  0  4.038067  0  0  -0.023844  -0.048305  0  3.994963  0
C  C82  1  0.75432988  0.85536711  0.53913365  1  0  -0.08005  0  3.779817  0  0  -0.05566  0  4.013158  0  0  -0.065859  0  4.03885  0  0  -0.024185  -0.049009  0  3.995738  0
C  C83  1  0.74567677  0.35536422  0.46085901  1  0  -0.079509  0  3.779447  0  0  -0.055102  0  4.012709  0  0  -0.065296  0  4.038396  0  0  -0.023837  -0.048462  0  3.995302  0
C  C84  1  0.13081462  0.18777902  0.50789132  1  0  -0.06644  0  3.74915  0  0  -0.089512  0  3.996262  0  0  -0.088817  0  4.017259  0  0  -0.085963  -0.08964  0  3.981984  0
C  C85  1  0.36918561  0.68777723  0.49211758  1  0  -0.066515  0  3.749019  0  0  -0.0896  0  3.996189  0  0  -0.088903  0  4.017182  0  0  -0.085982  -0.089752  0  3.981913  0
C  C86  1  0.86918396  0.81221987  0.49210649  1  0  -0.066398  0  3.749306  0  0  -0.089477  0  3.996402  0  0  -0.088783  0  4.017401  0  0  -0.085922  -0.08961  0  3.982123  0
C  C87  1  0.63081257  0.31221557  0.50788888  1  0  -0.066395  0  3.749129  0  0  -0.089483  0  3.996231  0  0  -0.088788  0  4.017227  0  0  -0.085904  -0.089607  0  3.981947  0
C  C88  1  0.07203879  0.14459022  0.57938675  1  0  -0.121179  0  3.74925  0  0  -0.139548  0  3.996462  0  0  -0.144715  0  4.018661  0  0  -0.091611  -0.136161  0  3.981316  0
C  C89  1  0.42796791  0.64459239  0.42061893  1  0  -0.121086  0  3.749083  0  0  -0.139461  0  3.996349  0  0  -0.144619  0  4.018537  0  0  -0.09159  -0.136072  0  3.981204  0
C  C90  1  0.92796128  0.85540867  0.42061379  1  0  -0.121062  0  3.749281  0  0  -0.139412  0  3.996481  0  0  -0.144576  0  4.01868  0  0  -0.091583  -0.136024  0  3.981334  0
C  C91  1  0.57203954  0.35540109  0.57938194  1  0  -0.121025  0  3.749171  0  0  -0.139367  0  3.99644  0  0  -0.144533  0  4.01864  0  0  -0.091599  -0.135983  0  3.981296  0
C  C92  1  0.30053789  0.19051780  0.38125925  1  0  0.643577  0  3.920474  0  0  0.588056  0  4.220687  0  0  0.622971  0  4.213899  0  0  0.206649  0.564363  0  4.224458  0
C  C93  1  0.19946768  0.69052339  0.61874185  1  0  0.643317  0  3.920361  0  0  0.587996  0  4.22032  0  0  0.622914  0  4.213537  0  0  0.206688  0.564305  0  4.224076  0
C  C94  1  0.69946399  0.80947839  0.61873470  1  0  0.643505  0  3.920397  0  0  0.588047  0  4.220523  0  0  0.622964  0  4.213743  0  0  0.206706  0.564354  0  4.224293  0
C  C95  1  0.80053861  0.30947820  0.38125963  1  0  0.643545  0  3.920305  0  0  0.588064  0  4.22047  0  0  0.622981  0  4.213683  0  0  0.206644  0.564375  0  4.22423  0
C  C96  1  0.87105396  0.05713395  0.89426036  1  0  0.066696  0  3.782145  0  0  0.077955  0  4.01445  0  0  0.079873  0  4.040129  0  0  -0.00189  0.076934  0  3.996927  0
C  C97  1  0.62894864  0.55712476  0.10574554  1  0  0.066623  0  3.782013  0  0  0.077925  0  4.014379  0  0  0.079847  0  4.040051  0  0  -0.00198  0.076918  0  3.996843  0
C  C98  1  0.12893962  0.94287238  0.10573656  1  0  0.066661  0  3.781968  0  0  0.077915  0  4.014298  0  0  0.079837  0  4.039967  0  0  -0.001935  0.076898  0  3.996773  0
C  C99  1  0.37105304  0.44287481  0.89425907  1  0  0.066667  0  3.781785  0  0  0.077955  0  4.014164  0  0  0.079884  0  4.039823  0  0  -0.001914  0.076939  0  3.996631  0
C  C100  1  0.75017891  0.01718758  0.94009337  1  0  -0.115576  0  3.710774  0  0  -0.132569  0  3.958278  0  0  -0.13738  0  3.979277  0  0  -0.085568  -0.129413  0  3.944016  0
C  C101  1  0.74982636  0.51718651  0.05990843  1  0  -0.115553  0  3.710742  0  0  -0.132558  0  3.958277  0  0  -0.137368  0  3.979275  0  0  -0.085588  -0.129401  0  3.944  0
C  C102  1  0.24981798  0.98281402  0.05989969  1  0  -0.115482  0  3.710817  0  0  -0.132482  0  3.958284  0  0  -0.137292  0  3.979284  0  0  -0.085484  -0.129319  0  3.944008  0
C  C103  1  0.25017137  0.48282117  0.94009333  1  0  -0.115639  0  3.710646  0  0  -0.132609  0  3.958125  0  0  -0.137417  0  3.979115  0  0  -0.085526  -0.129449  0  3.943846  0
C  C104  1  0.69967908  0.05958296  0.01456618  1  0  -0.060329  0  3.739437  0  0  -0.085275  0  3.987005  0  0  -0.084032  0  4.007668  0  0  -0.083111  -0.085849  0  3.97289  0
C  C105  1  0.80032796  0.55957717  0.98543522  1  0  -0.060243  0  3.739405  0  0  -0.085232  0  3.986975  0  0  -0.083989  0  4.007635  0  0  -0.08313  -0.085786  0  3.972883  0
C  C106  1  0.30031684  0.94041593  0.98542950  1  0  -0.060399  0  3.739722  0  0  -0.085338  0  3.98727  0  0  -0.084097  0  4.007939  0  0  -0.083113  -0.085913  0  3.973157  0
C  C107  1  0.19968059  0.44042172  0.01456436  1  0  -0.060082  0  3.739318  0  0  -0.085065  0  3.986923  0  0  -0.083824  0  4.007587  0  0  -0.083088  -0.085608  0  3.972824  0
C  C108  1  0.76581473  0.14339977  0.04407578  1  0  -0.077232  0  3.775921  0  0  -0.052709  0  4.008607  0  0  -0.062887  0  4.034327  0  0  -0.022849  -0.046095  0  3.991229  0
C  C109  1  0.73419490  0.64339662  0.95592745  1  0  -0.077284  0  3.775592  0  0  -0.052695  0  4.008218  0  0  -0.062867  0  4.033921  0  0  -0.022816  -0.046081  0  3.990835  0
C  C110  1  0.23418151  0.85659912  0.95592325  1  0  -0.077156  0  3.77608  0  0  -0.052637  0  4.008734  0  0  -0.062818  0  4.034463  0  0  -0.022829  -0.046027  0  3.991365  0
C  C111  1  0.26580989  0.35660159  0.04407130  1  0  -0.077423  0  3.776009  0  0  -0.052912  0  4.008781  0  0  -0.063088  0  4.034499  0  0  -0.022888  -0.046292  0  3.991389  0
C  C112  1  0.88390438  0.18429245  0.99766210  1  0  -0.065663  0  3.751208  0  0  -0.087782  0  3.997556  0  0  -0.087114  0  4.018549  0  0  -0.085631  -0.087953  0  3.983252  0
C  C113  1  0.61608326  0.68428787  0.00233566  1  0  -0.065841  0  3.751408  0  0  -0.087949  0  3.997684  0  0  -0.087247  0  4.01869  0  0  -0.085696  -0.088114  0  3.983381  0
C  C114  1  0.11608926  0.81571117  0.00233548  1  0  -0.065897  0  3.751417  0  0  -0.088033  0  3.997753  0  0  -0.087366  0  4.018747  0  0  -0.085744  -0.088198  0  3.98345  0
C  C115  1  0.38390552  0.31571169  0.99766237  1  0  -0.06558  0  3.751534  0  0  -0.087734  0  3.997871  0  0  -0.087059  0  4.018862  0  0  -0.085596  -0.087907  0  3.983567  0
C  C116  1  0.93711295  0.14126179  0.92451479  1  0  -0.120222  0  3.750332  0  0  -0.138446  0  3.997699  0  0  -0.143599  0  4.019973  0  0  -0.091141  -0.13506  0  3.982542  0
C  C117  1  0.56287890  0.64125660  0.07548166  1  0  -0.120157  0  3.750331  0  0  -0.138388  0  3.997666  0  0  -0.14354  0  4.019931  0  0  -0.091061  -0.13501  0  3.982512  0
C  C118  1  0.06287804  0.85874454  0.07548068  1  0  -0.120123  0  3.75019  0  0  -0.138339  0  3.997537  0  0  -0.143486  0  4.019815  0  0  -0.091048  -0.134964  0  3.982389  0
C  C119  1  0.43710872  0.35874297  0.92451698  1  0  -0.120067  0  3.75015  0  0  -0.138279  0  3.997501  0  0  -0.143424  0  4.01978  0  0  -0.091028  -0.134892  0  3.982341  0
C  C120  1  0.71594801  0.18932296  0.12500568  1  0  0.643191  0  3.91879  0  0  0.587691  0  4.219139  0  0  0.622579  0  4.212397  0  0  0.206028  0.564025  0  4.22288  0
C  C121  1  0.78405181  0.68932188  0.87499191  1  0  0.643046  0  3.918501  0  0  0.587525  0  4.218849  0  0  0.622413  0  4.212105  0  0  0.205971  0.563861  0  4.222594  0
C  C122  1  0.28405581  0.81067728  0.87499569  1  0  0.642987  0  3.918742  0  0  0.587521  0  4.219056  0  0  0.622407  0  4.212317  0  0  0.205887  0.56385  0  4.222805  0
C  C123  1  0.21593912  0.31068107  0.12500288  1  0  0.64311  0  3.918342  0  0  0.587639  0  4.218672  0  0  0.622528  0  4.21193  0  0  0.206015  0.563968  0  4.222419  0
N  N124  1  0.99028849  0.87086215  0.74705477  1  0  -0.336348  0  3.333212  0  0  -0.249042  0  3.604998  0  0  -0.269922  0  3.621448  0  0  -0.324247  -0.234874  0  3.593505  0
N  N125  1  0.50971232  0.37086601  0.25295612  1  0  -0.336636  0  3.333698  0  0  -0.249478  0  3.605726  0  0  -0.270338  0  3.622143  0  0  -0.324409  -0.235308  0  3.594235  0
N  N126  1  0.00971435  0.12913877  0.25294923  1  0  -0.336598  0  3.333456  0  0  -0.249406  0  3.60539  0  0  -0.270279  0  3.621829  0  0  -0.324397  -0.235241  0  3.59391  0
N  N127  1  0.49029610  0.62913221  0.74704212  1  0  -0.336625  0  3.333466  0  0  -0.249538  0  3.605583  0  0  -0.270387  0  3.62198  0  0  -0.324401  -0.235375  0  3.594106  0
O  O128  1  0.60171953  0.15223674  0.16324012  1  0  -0.615376  0  2.01507  0  0  -0.544632  0  2.275605  0  0  -0.572756  0  2.260703  0  0  -0.314975  -0.52504  0  2.285141  0
O  O129  1  0.89828710  0.65223223  0.83675887  1  0  -0.615261  0  2.014772  0  0  -0.544518  0  2.275302  0  0  -0.572641  0  2.260404  0  0  -0.31494  -0.524923  0  2.284828  0
O  O130  1  0.39829271  0.84776553  0.83675963  1  0  -0.615226  0  2.014721  0  0  -0.544544  0  2.275272  0  0  -0.572675  0  2.260377  0  0  -0.314913  -0.524945  0  2.284809  0
O  O131  1  0.10171075  0.34776936  0.16324424  1  0  -0.615281  0  2.014831  0  0  -0.544556  0  2.27536  0  0  -0.572678  0  2.260462  0  0  -0.314949  -0.524966  0  2.284901  0
O  O132  1  0.78724083  0.26271555  0.15118473  1  0  -0.666598  0  2.073752  0  0  -0.607249  0  2.341022  0  0  -0.633154  0  2.327389  0  0  -0.321519  -0.589076  0  2.349774  0
O  O133  1  0.71275786  0.76271033  0.84881264  1  0  -0.666597  0  2.073859  0  0  -0.607203  0  2.341093  0  0  -0.633103  0  2.327448  0  0  -0.321519  -0.589033  0  2.349846  0
O  O134  1  0.21277226  0.73728875  0.84881106  1  0  -0.666567  0  2.073869  0  0  -0.607196  0  2.341108  0  0  -0.633091  0  2.327471  0  0  -0.321453  -0.589021  0  2.349864  0
O  O135  1  0.28723961  0.23728450  0.15118645  1  0  -0.666643  0  2.073569  0  0  -0.607292  0  2.340831  0  0  -0.633196  0  2.327194  0  0  -0.321579  -0.589119  0  2.349584  0
O  O136  1  0.41541041  0.15281217  0.34406794  1  0  -0.614524  0  2.015063  0  0  -0.544087  0  2.276032  0  0  -0.572251  0  2.261205  0  0  -0.313572  -0.524494  0  2.28555  0
O  O137  1  0.08457905  0.65281512  0.65593821  1  0  -0.614519  0  2.01482  0  0  -0.544126  0  2.275692  0  0  -0.572295  0  2.260876  0  0  -0.3136  -0.524543  0  2.285228  0
O  O138  1  0.58458220  0.84719213  0.65593160  1  0  -0.614579  0  2.014608  0  0  -0.544144  0  2.275554  0  0  -0.572311  0  2.260725  0  0  -0.313649  -0.524564  0  2.285099  0
O  O139  1  0.91542011  0.34718242  0.34406563  1  0  -0.614544  0  2.014963  0  0  -0.544121  0  2.275921  0  0  -0.572288  0  2.261104  0  0  -0.313602  -0.524541  0  2.285466  0
O  O140  1  0.23202643  0.26458105  0.35478236  1  0  -0.667076  0  2.081346  0  0  -0.607516  0  2.350373  0  0  -0.633503  0  2.336685  0  0  -0.321547  -0.589196  0  2.359028  0
O  O141  1  0.26796620  0.76458672  0.64522331  1  0  -0.667055  0  2.081347  0  0  -0.607535  0  2.350207  0  0  -0.633523  0  2.336513  0  0  -0.32159  -0.589242  0  2.358919  0
O  O142  1  0.76796482  0.73541784  0.64521578  1  0  -0.666935  0  2.081456  0  0  -0.607456  0  2.350553  0  0  -0.633444  0  2.336868  0  0  -0.321518  -0.589122  0  2.359171  0
O  O143  1  0.73203859  0.23541081  0.35477544  1  0  -0.667183  0  2.081182  0  0  -0.607581  0  2.350102  0  0  -0.633565  0  2.336402  0  0  -0.321575  -0.589287  0  2.358815  0
