# generated using pymatgen
data_CuH12C6N2Cl2(OF)2
_symmetry_space_group_name_H-M   'P 1'
_cell_length_a   8.08401787
_cell_length_b   9.02071690
_cell_length_c   9.02075399
_cell_angle_alpha   84.61277177
_cell_angle_beta   68.27371089
_cell_angle_gamma   68.27379027
_symmetry_Int_Tables_number   1
_chemical_formula_structural   CuH12C6N2Cl2(OF)2
_chemical_formula_sum   'Cu2 H24 C12 N4 Cl4 O4 F4'
_cell_volume   566.97603569
_cell_formula_units_Z   2
loop_
 _symmetry_equiv_pos_site_id
 _symmetry_equiv_pos_as_xyz
  1  'x, y, z'
loop_
 _atom_site_type_symbol
 _atom_site_label
 _atom_site_symmetry_multiplicity
 _atom_site_fract_x
 _atom_site_fract_y
 _atom_site_fract_z
 _atom_site_occupancy
 _atom_site_hle17_ddec_charge
 _atom_site_hle17_ddec_spin_density
 _atom_site_hle17_ddec_sum_bond_order
 _atom_site_hle17_magmom
 _atom_site_hse06_10hf_ddec_charge
 _atom_site_hse06_10hf_ddec_spin_density
 _atom_site_hse06_10hf_ddec_sum_bond_order
 _atom_site_hse06_10hf_magmom
 _atom_site_hse06_ddec_charge
 _atom_site_hse06_ddec_spin_density
 _atom_site_hse06_ddec_sum_bond_order
 _atom_site_hse06_magmom
 _atom_site_pbe_cm5_charge
 _atom_site_pbe_ddec_charge
 _atom_site_pbe_ddec_spin_density
 _atom_site_pbe_ddec_sum_bond_order
 _atom_site_pbe_magmom
Cu  Cu0  1  0.24560803  0.61702130  0.73395963  1  0.7805  0.617515  1.885591  0.447  0.769502  0.724874  2.301196  0.568  0.863496  0.79088  2.218198  0.651  0.551253  0.716105  0.68327  2.353287  0.519
Cu  Cu1  1  0.74561704  0.73395249  0.61701817  1  0.780527  0.617503  1.885399  0.447  0.769488  0.724875  2.300986  0.568  0.863526  0.790893  2.217998  0.651  0.551247  0.716129  0.683269  2.353081  0.519
H  H2  1  0.50682673  0.33032817  0.68075554  1  0.323998  -0.001259  0.895319  -0.002  0.312773  3e-06  0.953049  0.0  0.32109  -0.000387  0.947987  -0.001  0.288424  0.307003  0.000351  0.956748  0.0
H  H3  1  0.00683408  0.68074496  0.33032457  1  0.323941  -0.001259  0.895297  -0.002  0.312738  2e-06  0.953002  0.0  0.321059  -0.000388  0.947936  -0.001  0.288423  0.30697  0.00035  0.956702  0.0
H  H4  1  0.55643086  0.45886721  0.76240193  1  0.302097  -0.002505  0.929043  -0.002  0.286742  -0.000765  0.999261  -0.001  0.293974  -0.001039  0.995199  -0.001  0.267856  0.281814  -0.000521  1.002252  -0.001
H  H5  1  0.05644144  0.76239241  0.45885551  1  0.302036  -0.002506  0.929052  -0.002  0.286646  -0.000765  0.999341  -0.001  0.293876  -0.00104  0.995291  -0.001  0.267818  0.281718  -0.000521  1.002336  -0.001
H  H6  1  0.18729736  0.96416607  0.64841893  1  0.321455  -0.000657  0.882363  0.0  0.298137  -0.000404  0.956239  0.0  0.305229  -0.000375  0.950943  0.0  0.290401  0.293065  -0.000398  0.960151  0.0
H  H7  1  0.68728383  0.64842237  0.96416511  1  0.321416  -0.000658  0.8824  0.0  0.298109  -0.000403  0.956239  0.0  0.305201  -0.000376  0.950945  0.0  0.290359  0.293037  -0.000398  0.960144  0.0
H  H8  1  0.36699397  0.01969601  0.65177822  1  0.338001  -0.000197  0.889796  0.0  0.31599  -7.1e-05  0.954007  0.0  0.324351  -9.6e-05  0.94827  0.0  0.305228  0.310102  -4e-05  0.958084  0.0
H  H9  1  0.86698564  0.65178495  0.01969535  1  0.337887  -0.000198  0.890017  0.0  0.315953  -7.1e-05  0.954105  0.0  0.324316  -9.6e-05  0.948367  0.0  0.305206  0.310063  -3.9e-05  0.958181  0.0
H  H10  1  0.20166230  0.13938474  0.57675612  1  0.335182  0.000848  0.810277  0.0  0.324342  0.000869  0.856777  0.0  0.330801  0.000662  0.852068  0.0  0.329355  0.3197  0.001037  0.860316  0.0
H  H11  1  0.70165877  0.57675609  0.13938455  1  0.335219  0.000848  0.810113  0.0  0.324376  0.000869  0.856619  0.0  0.330834  0.000662  0.851911  0.0  0.329334  0.319732  0.001037  0.860166  0.0
H  H12  1  0.43011658  0.12759009  0.83703075  1  0.10687  -2e-06  0.954126  0.0  0.118168  0.000107  1.018944  0.0  0.121508  8.1e-05  1.01659  0.0  0.096674  0.115851  0.000129  1.020487  0.0
H  H13  1  0.93011629  0.83702583  0.12758364  1  0.106861  -1e-06  0.95407  0.0  0.118172  0.000106  1.018875  0.0  0.121511  8.1e-05  1.016518  0.0  0.096648  0.115856  0.000129  1.020425  0.0
H  H14  1  0.26829633  0.17026234  0.03652011  1  0.086864  6.6e-05  0.936897  0.0  0.100099  5.9e-05  1.002029  0.0  0.101494  1.5e-05  1.001723  0.0  0.093567  0.098977  0.000104  1.002404  0.0
H  H15  1  0.76829571  0.03651708  0.17026244  1  0.086829  6.7e-05  0.936964  0.0  0.100064  5.9e-05  1.002097  0.0  0.101459  1.5e-05  1.001794  0.0  0.093542  0.098941  0.000104  1.00247  0.0
H  H16  1  0.00826430  0.35182743  0.95787862  1  0.073412  -7.9e-05  0.935395  0.0  0.092912  -6.2e-05  0.991705  0.0  0.093403  -5.7e-05  0.992833  0.0  0.092764  0.092465  -6.2e-05  0.991021  0.0
H  H17  1  0.50826880  0.95787147  0.35183334  1  0.073416  -8e-05  0.935443  0.0  0.092938  -6.2e-05  0.991747  0.0  0.093428  -5.7e-05  0.992875  0.0  0.092798  0.092491  -6.2e-05  0.991066  0.0
H  H18  1  0.15793978  0.35042031  0.75954355  1  0.075892  -0.000651  0.960498  0.0  0.085124  -0.000631  1.03848  0.0  0.085875  -0.00075  1.036817  0.0  0.086144  0.08396  -0.000501  1.040537  0.0
H  H19  1  0.65794488  0.75953745  0.35041456  1  0.075875  -0.000651  0.960514  0.0  0.085137  -0.000631  1.038481  0.0  0.085886  -0.000749  1.036822  0.0  0.086148  0.083973  -0.000501  1.04054  0.0
H  H20  1  0.10160827  0.04500941  0.91039451  1  0.081148  4e-05  0.93039  0.0  0.09408  7.5e-05  0.994851  0.0  0.095224  5e-05  0.994468  0.0  0.104658  0.093126  9.7e-05  0.99528  0.0
H  H21  1  0.60159291  0.91040022  0.04501534  1  0.081201  4.3e-05  0.930279  0.0  0.094081  7.6e-05  0.994802  0.0  0.095231  5e-05  0.994425  0.0  0.104627  0.093126  9.7e-05  0.99523  0.0
H  H22  1  0.94671255  0.18316290  0.82124628  1  0.079261  0.000632  0.951894  0.0  0.087072  0.00072  1.022439  0.0  0.089584  0.000559  1.019647  0.0  0.099244  0.085339  0.000833  1.02427  0.0
H  H23  1  0.44670135  0.82124755  0.18317122  1  0.079332  0.000634  0.95199  0.0  0.087213  0.00072  1.022452  0.0  0.089723  0.000559  1.019662  0.0  0.099279  0.085479  0.000833  1.024271  0.0
H  H24  1  0.44310430  0.27693092  0.14466890  1  0.056988  0.00063  0.895841  0.001  0.056673  0.000664  0.960501  0.001  0.058165  0.000416  0.956665  0.001  0.115799  0.055409  0.000908  0.963557  0.001
H  H25  1  0.94311346  0.14466134  0.27691915  1  0.057042  0.000629  0.895863  0.001  0.056717  0.000665  0.960501  0.001  0.058212  0.000416  0.956673  0.001  0.11581  0.055452  0.000909  0.96355  0.001
C  C26  1  0.19543912  0.49413025  0.04076638  1  0.616096  -0.002539  3.839244  -0.002  0.568761  0.001066  4.141758  0.001  0.602221  0.00042  4.137794  0.001  0.20819  0.545979  0.001561  4.143372  0.001
C  C27  1  0.69544565  0.04075624  0.49414392  1  0.616045  -0.002542  3.839309  -0.002  0.568872  0.001069  4.141732  0.001  0.602339  0.000422  4.137768  0.001  0.208162  0.546086  0.001562  4.143341  0.001
C  C28  1  0.37311265  0.35862276  0.93174119  1  0.054832  -0.002178  3.621786  -0.004  0.056102  0.000464  3.863292  -0.002  0.054602  -0.000377  3.880814  -0.002  0.05952  0.057029  0.001122  3.852546  -0.001
C  C29  1  0.87311271  0.93173780  0.35862321  1  0.055169  -0.002174  3.621489  -0.004  0.055962  0.000468  3.863641  -0.002  0.054468  -0.000376  3.881167  -0.002  0.059493  0.056898  0.001123  3.852847  -0.001
C  C30  1  0.30698951  0.22177058  0.91902814  1  -0.172237  5.3e-05  3.63578  0.0  -0.215721  0.00016  3.888026  0.0  -0.218102  9.2e-05  3.901079  0.0  -0.165849  -0.213782  0.000219  3.878797  0.0
C  C31  1  0.80698093  0.91902953  0.22177125  1  -0.172233  4.7e-05  3.63558  0.0  -0.215637  0.000161  3.888006  0.0  -0.218012  9.3e-05  3.901054  0.0  -0.165788  -0.213709  0.000219  3.878781  0.0
C  C32  1  0.13735149  0.27560949  0.86362669  1  -0.123479  -0.000329  3.673401  0.0  -0.163113  -0.000325  3.932578  0.0  -0.164283  -0.000514  3.94742  0.0  -0.169933  -0.162061  -0.000155  3.922453  0.0
C  C33  1  0.63735093  0.86362184  0.27560579  1  -0.123503  -0.000318  3.673521  0.0  -0.163178  -0.000325  3.932764  0.0  -0.164352  -0.000513  3.947609  0.0  -0.169988  -0.162128  -0.000155  3.922642  0.0
C  C34  1  0.09057578  0.13928484  0.82465598  1  0.066968  0.000714  3.548553  0.0  0.006641  0.000832  3.811203  0.0  0.010917  0.000624  3.820104  0.0  -0.070766  0.004047  0.000981  3.804652  0.001
C  C35  1  0.59056162  0.82466019  0.13929658  1  0.066953  0.000704  3.548693  0.0  0.006572  0.000832  3.811439  0.0  0.010843  0.000624  3.820335  0.0  -0.07074  0.003988  0.000982  3.804881  0.001
C  C36  1  0.51401363  0.29690399  0.01871608  1  0.422796  0.003848  3.573939  0.004  0.351819  0.003299  3.894694  0.003  0.371779  0.002412  3.881004  0.003  0.135993  0.337516  0.004009  3.904803  0.004
C  C37  1  0.01401504  0.01870977  0.29689470  1  0.422628  0.003852  3.573966  0.004  0.351828  0.003297  3.894698  0.003  0.371765  0.002412  3.881043  0.003  0.135968  0.337539  0.00401  3.904788  0.004
N  N38  1  0.45072314  0.41658568  0.77200024  1  -0.62056  0.088141  3.121434  0.108  -0.595214  0.066266  3.372715  0.085  -0.629338  0.053572  3.375927  0.074  -0.624694  -0.574852  0.073033  3.37216  0.089
N  N39  1  0.95072737  0.77200229  0.41657615  1  -0.620538  0.088147  3.121484  0.108  -0.595095  0.066267  3.37301  0.085  -0.629242  0.053572  3.376242  0.074  -0.624625  -0.574746  0.073036  3.372459  0.089
N  N40  1  0.22241752  0.06032872  0.66378367  1  -0.48492  0.000199  3.189243  0.0  -0.433593  0.000497  3.389456  0.0  -0.448462  0.000318  3.387702  0.0  -0.605373  -0.423347  0.000645  3.390767  0.001
N  N41  1  0.72241099  0.66378887  0.06032857  1  -0.484946  0.000203  3.189181  0.0  -0.433615  0.000498  3.389347  0.0  -0.44849  0.000318  3.387595  0.0  -0.605323  -0.423367  0.000645  3.390649  0.001
Cl  Cl42  1  0.38878071  0.61487783  0.46962986  1  -0.543528  0.11611  0.883613  0.139  -0.541056  0.072449  1.152647  0.091  -0.570457  0.054997  1.124558  0.075  -0.344927  -0.525018  0.082182  1.172839  0.097
Cl  Cl43  1  0.88878661  0.46961765  0.61486999  1  -0.543543  0.116117  0.883502  0.139  -0.541033  0.072449  1.152464  0.091  -0.570454  0.054996  1.124389  0.075  -0.344914  -0.525006  0.082183  1.172656  0.097
Cl  Cl44  1  0.98076894  0.83527662  0.74881355  1  -0.523091  0.10063  1.037301  0.123  -0.523455  0.065895  1.352906  0.085  -0.553196  0.050251  1.323663  0.071  -0.285816  -0.506982  0.074995  1.374135  0.091
Cl  Cl45  1  0.48077090  0.74881725  0.83527623  1  -0.523049  0.100635  1.037305  0.123  -0.523427  0.065897  1.352917  0.085  -0.553176  0.050252  1.32368  0.071  -0.285777  -0.506962  0.074995  1.37415  0.091
O  O46  1  0.13490825  0.48416238  0.18790851  1  -0.551858  0.018136  1.905527  0.023  -0.516127  0.011817  2.118385  0.016  -0.540262  0.006113  2.110844  0.009  -0.303777  -0.497463  0.018122  2.121919  0.024
O  O47  1  0.63490488  0.18791761  0.48416374  1  -0.552041  0.01815  1.90503  0.023  -0.516337  0.011821  2.117835  0.016  -0.540481  0.006115  2.110298  0.009  -0.303847  -0.49767  0.018132  2.121365  0.024
O  O48  1  0.11026689  0.60828250  0.96547538  1  -0.61742  0.061881  2.192321  0.084  -0.564243  0.050799  2.465253  0.074  -0.606104  0.041169  2.457881  0.064  -0.334077  -0.537161  0.056391  2.470476  0.078
O  O49  1  0.61028137  0.96546675  0.60827839  1  -0.617451  0.061855  2.192907  0.084  -0.564201  0.050784  2.465711  0.074  -0.606063  0.041157  2.458344  0.064  -0.334028  -0.537132  0.056373  2.470946  0.078
F  F50  1  0.66009218  0.15585621  0.94477093  1  -0.234313  0.000939  1.206102  0.0  -0.174024  0.001087  1.372135  0.0  -0.185034  0.000814  1.359039  0.0  -0.101686  -0.165901  0.001317  1.381166  0.0
F  F51  1  0.16009136  0.94476623  0.15584237  1  -0.234345  0.000939  1.206113  0.0  -0.174103  0.001088  1.372131  0.0  -0.185103  0.000814  1.35904  0.0  -0.101692  -0.165982  0.001317  1.381158  0.0
F  F52  1  0.60213333  0.40425005  0.01521670  1  -0.25086  1.5e-05  1.166683  0.0  -0.198342  0.000256  1.336017  0.0  -0.208419  0.000147  1.321385  0.0  -0.118163  -0.190872  0.000372  1.346141  0.0
F  F53  1  0.10214507  0.01521615  0.40422802  1  -0.250822  1.4e-05  1.166698  0.0  -0.19829  0.000256  1.335953  0.0  -0.208361  0.000147  1.321331  0.0  -0.118149  -0.190826  0.000372  1.346073  0.0
