# generated using pymatgen
data_ZnH6C6(N2O)2
_symmetry_space_group_name_H-M   'P 1'
_cell_length_a   12.11904794
_cell_length_b   12.11906700
_cell_length_c   12.11910535
_cell_angle_alpha   96.19952534
_cell_angle_beta   96.19960666
_cell_angle_gamma   96.19930898
_symmetry_Int_Tables_number   1
_chemical_formula_structural   ZnH6C6(N2O)2
_chemical_formula_sum   'Zn6 H36 C36 N24 O12'
_cell_volume   1746.25477762
_cell_formula_units_Z   6
loop_
 _symmetry_equiv_pos_site_id
 _symmetry_equiv_pos_as_xyz
  1  'x, y, z'
loop_
 _atom_site_type_symbol
 _atom_site_label
 _atom_site_symmetry_multiplicity
 _atom_site_fract_x
 _atom_site_fract_y
 _atom_site_fract_z
 _atom_site_occupancy
 _atom_site_pbe_bader_charge
 _atom_site_pbe_bader_spin_density
 _atom_site_pbe_cm5_charge
 _atom_site_pbe_ddec_charge
 _atom_site_pbe_ddec_spin_density
 _atom_site_pbe_ddec_sum_bond_order
 _atom_site_pbe_magmom
Zn  Zn0  1  0.32608804  0.04697520  0.76086797  1  1.262503  0  0.693403  0.791952  0  2.388714  0
Zn  Zn1  1  0.76086542  0.32608841  0.04697409  1  1.26258  0  0.693414  0.791977  0  2.388753  0
Zn  Zn2  1  0.04697638  0.76086696  0.32608857  1  1.262648  0  0.693405  0.791977  0  2.388664  0
Zn  Zn3  1  0.67391010  0.95302406  0.23913255  1  1.262492  0  0.693401  0.791962  0  2.389005  0
Zn  Zn4  1  0.23913440  0.67390940  0.95302480  1  1.262514  0  0.693385  0.791962  0  2.389037  0
Zn  Zn5  1  0.95302260  0.23913490  0.67390902  1  1.262511  0  0.693389  0.791924  0  2.389046  0
H  H6  1  0.20829996  0.12297758  0.50943801  1  0.0666  0  0.103543  0.154816  0  0.980347  0
H  H7  1  0.50943765  0.20830056  0.12297837  1  0.066586  0  0.103583  0.154843  0  0.9804  0
H  H8  1  0.12297870  0.50943810  0.20829902  1  0.066564  0  0.103577  0.15487  0  0.980391  0
H  H9  1  0.79169734  0.87702408  0.49056020  1  0.066603  0  0.103542  0.154803  0  0.980423  0
H  H10  1  0.49056132  0.79169963  0.87702317  1  0.066589  0  0.103535  0.154804  0  0.980446  0
H  H11  1  0.87702279  0.49056241  0.79169952  1  0.066605  0  0.103523  0.154755  0  0.980415  0
H  H12  1  0.07628759  0.06783306  0.43398568  1  0.089003  0  0.098058  0.148118  0  0.999234  0
H  H13  1  0.43398529  0.07628899  0.06783464  1  0.088869  0  0.098024  0.148092  0  0.999244  0
H  H14  1  0.06783422  0.43398412  0.07628877  1  0.089  0  0.098025  0.148077  0  0.999258  0
H  H15  1  0.92370972  0.93216694  0.56601235  1  0.088878  0  0.098039  0.148083  0  0.999285  0
H  H16  1  0.56601536  0.92371058  0.93216784  1  0.088873  0  0.098045  0.148105  0  0.999239  0
H  H17  1  0.93216643  0.56601628  0.92371132  1  0.088991  0  0.098017  0.148058  0  0.999266  0
H  H18  1  0.20075192  0.03235777  0.38181375  1  0.065705  0  0.100646  0.147632  0  0.995586  0
H  H19  1  0.38181388  0.20075465  0.03236049  1  0.065671  0  0.100626  0.147606  0  0.995608  0
H  H20  1  0.03236157  0.38181289  0.20075372  1  0.065671  0  0.10064  0.147622  0  0.995605  0
H  H21  1  0.79924622  0.96764150  0.61818595  1  0.065699  0  0.100634  0.147609  0  0.995611  0
H  H22  1  0.61818677  0.79924575  0.96764207  1  0.06568  0  0.100632  0.147618  0  0.995658  0
H  H23  1  0.96764159  0.61818699  0.79924658  1  0.065681  0  0.100629  0.147591  0  0.995638  0
H  H24  1  0.13300513  0.62583028  0.69231983  1  0.544607  0  0.29603  0.310135  0  1.009206  0
H  H25  1  0.69231787  0.13300476  0.62583195  1  0.544626  0  0.29601  0.310099  0  1.009253  0
H  H26  1  0.62583106  0.69231812  0.13300396  1  0.54464  0  0.296071  0.310233  0  1.009086  0
H  H27  1  0.86699385  0.37417074  0.30768428  1  0.544662  0  0.296087  0.310262  0  1.008956  0
H  H28  1  0.30768612  0.86699521  0.37416763  1  0.544705  0  0.29607  0.310258  0  1.008904  0
H  H29  1  0.37416960  0.30768062  0.86699430  1  0.544611  0  0.296074  0.310217  0  1.009058  0
H  H30  1  0.05673943  0.51113161  0.59697841  1  0.52188  0  0.301217  0.323105  0  0.96935  0
H  H31  1  0.59697795  0.05674085  0.51113562  1  0.521891  0  0.301213  0.323041  0  0.969464  0
H  H32  1  0.51113013  0.59697591  0.05673852  1  0.521875  0  0.301225  0.323135  0  0.96924  0
H  H33  1  0.94325955  0.48887440  0.40302540  1  0.521895  0  0.30125  0.323216  0  0.968996  0
H  H34  1  0.40302687  0.94326255  0.48887268  1  0.522008  0  0.301265  0.323215  0  0.968949  0
H  H35  1  0.48887136  0.40302294  0.94325984  1  0.52192  0  0.301248  0.323192  0  0.9691  0
H  H36  1  0.30577729  0.89695740  0.91604496  1  0.419487  0  0.281278  0.285563  0  1.011481  0
H  H37  1  0.91604522  0.30577741  0.89695878  1  0.419435  0  0.281275  0.285542  0  1.011501  0
H  H38  1  0.89695790  0.91604401  0.30577819  1  0.419483  0  0.281265  0.285507  0  1.01158  0
H  H39  1  0.69422085  0.10304020  0.08395703  1  0.419483  0  0.28129  0.285537  0  1.011532  0
H  H40  1  0.08395877  0.69422091  0.10303980  1  0.419389  0  0.281298  0.285559  0  1.011524  0
H  H41  1  0.10303940  0.08395764  0.69422085  1  0.419495  0  0.281294  0.285553  0  1.011527  0
C  C42  1  0.15988998  0.95088625  0.52292833  1  0.986291  0  0.213901  0.409399  0  3.971234  0
C  C43  1  0.52292680  0.15988785  0.95088806  1  0.986279  0  0.21391  0.409328  0  3.97107  0
C  C44  1  0.95088861  0.52292731  0.15988687  1  0.986329  0  0.213894  0.409384  0  3.971036  0
C  C45  1  0.84010899  0.04911394  0.47707403  1  0.986275  0  0.213901  0.409425  0  3.97104  0
C  C46  1  0.47707469  0.84011100  0.04911360  1  0.986196  0  0.213924  0.40937  0  3.971158  0
C  C47  1  0.04911204  0.47707475  0.84011340  1  0.986213  0  0.213971  0.409455  0  3.971071  0
C  C48  1  0.16162426  0.04897124  0.45861760  1  -0.088876  0  -0.232188  -0.461522  0  3.925239  0
C  C49  1  0.45861763  0.16162597  0.04897222  1  -0.088741  0  -0.232189  -0.4615  0  3.925344  0
C  C50  1  0.04897376  0.45861716  0.16162577  1  -0.088881  0  -0.232194  -0.46153  0  3.925325  0
C  C51  1  0.83837304  0.95102958  0.54138135  1  -0.088773  0  -0.232151  -0.461453  0  3.925367  0
C  C52  1  0.54138219  0.83837350  0.95102851  1  -0.08872  0  -0.232169  -0.461496  0  3.925395  0
C  C53  1  0.95102856  0.54138345  0.83837452  1  -0.088874  0  -0.232147  -0.461382  0  3.925377  0
C  C54  1  0.08348990  0.66177359  0.53662538  1  1.372553  0  0.238919  0.530557  0  4.163253  0
C  C55  1  0.53661736  0.08348532  0.66177872  1  1.381529  0  0.238805  0.530458  0  4.163314  0
C  C56  1  0.66177298  0.53662776  0.08348613  1  1.381574  0  0.238942  0.530669  0  4.163492  0
C  C57  1  0.91650406  0.33823431  0.46336324  1  1.381458  0  0.239085  0.530753  0  4.163573  0
C  C58  1  0.46336155  0.91650911  0.33823322  1  1.381467  0  0.239136  0.530813  0  4.16362  0
C  C59  1  0.33823019  0.46336299  0.91650741  1  1.373299  0  0.239044  0.53071  0  4.163631  0
C  C60  1  0.12716588  0.78048115  0.56485785  1  0.434408  0  0.065754  -0.02101  0  4.037132  0
C  C61  1  0.56485921  0.12716384  0.78048427  1  0.434363  0  0.0657  -0.021054  0  4.037179  0
C  C62  1  0.78048415  0.56485811  0.12716106  1  0.434214  0  0.065754  -0.020992  0  4.037041  0
C  C63  1  0.87283143  0.21951967  0.43514522  1  0.434319  0  0.06574  -0.021148  0  4.037163  0
C  C64  1  0.43514729  0.87283644  0.21951726  1  0.434324  0  0.065774  -0.02108  0  4.037031  0
C  C65  1  0.21951650  0.43514229  0.87283738  1  0.43421  0  0.065746  -0.02106  0  4.037193  0
C  C66  1  0.18252232  0.84828480  0.65963062  1  0.406711  0  0.073308  0.012245  0  4.003234  0
C  C67  1  0.65962962  0.18252059  0.84828573  1  0.406726  0  0.073291  0.012178  0  4.003339  0
C  C68  1  0.84828584  0.65963023  0.18251848  1  0.406728  0  0.073305  0.012187  0  4.003243  0
C  C69  1  0.81747499  0.15171686  0.34037089  1  0.406697  0  0.073351  0.012372  0  4.003177  0
C  C70  1  0.34037187  0.81747576  0.15171484  1  0.406683  0  0.073331  0.012327  0  4.003163  0
C  C71  1  0.15171397  0.34037090  0.81747748  1  0.406724  0  0.073294  0.012229  0  4.003302  0
C  C72  1  0.22223168  0.82783819  0.77404732  1  1.400264  0  0.217448  0.513483  0  4.210047  0
C  C73  1  0.77404756  0.22223054  0.82783909  1  1.400406  0  0.217482  0.513555  0  4.210173  0
C  C74  1  0.82783623  0.77404744  0.22222995  1  1.400286  0  0.217392  0.513405  0  4.21008  0
C  C75  1  0.77776563  0.17216512  0.22595520  1  1.399654  0  0.217308  0.513135  0  4.210305  0
C  C76  1  0.22595727  0.77776953  0.17216720  1  1.399647  0  0.217317  0.513157  0  4.210239  0
C  C77  1  0.17216610  0.22595483  0.77776722  1  1.399679  0  0.217308  0.513239  0  4.210223  0
N  N78  1  0.20269199  0.95513813  0.63153547  1  -1.227902  0  -0.352082  -0.401287  0  3.430212  0
N  N79  1  0.63153573  0.20269179  0.95514009  1  -1.227908  0  -0.352026  -0.40115  0  3.42995  0
N  N80  1  0.95514058  0.63153611  0.20269036  1  -1.227946  0  -0.352063  -0.401218  0  3.429989  0
N  N81  1  0.79730532  0.04486269  0.36846596  1  -1.22785  0  -0.352108  -0.401295  0  3.429954  0
N  N82  1  0.36846827  0.79730653  0.04486178  1  -1.227854  0  -0.352109  -0.401268  0  3.430111  0
N  N83  1  0.04486007  0.36846595  0.79730825  1  -1.227851  0  -0.352076  -0.401202  0  3.43002  0
N  N84  1  0.11366341  0.84664890  0.48040500  1  -1.245023  0  -0.357506  -0.386169  0  3.494162  0
N  N85  1  0.48040515  0.11365992  0.84665033  1  -1.245075  0  -0.35752  -0.386122  0  3.494063  0
N  N86  1  0.84665149  0.48040558  0.11365893  1  -1.244988  0  -0.35751  -0.38618  0  3.494177  0
N  N87  1  0.88633473  0.15335203  0.51959652  1  -1.245054  0  -0.357485  -0.386071  0  3.494185  0
N  N88  1  0.51959634  0.88633893  0.15334886  1  -1.245035  0  -0.357483  -0.386037  0  3.494237  0
N  N89  1  0.15334999  0.51959409  0.88634282  1  -1.244956  0  -0.357522  -0.386152  0  3.494256  0
N  N90  1  0.09430199  0.59245340  0.61389203  1  -1.354091  0  -0.556572  -0.602775  0  3.323992  0
N  N91  1  0.61389463  0.09430207  0.59245161  1  -1.362917  0  -0.55649  -0.602615  0  3.323802  0
N  N92  1  0.59245683  0.61388814  0.09430033  1  -1.362974  0  -0.556656  -0.602974  0  3.324379  0
N  N93  1  0.90569699  0.40753683  0.38612081  1  -1.362969  0  -0.55672  -0.603021  0  3.324754  0
N  N94  1  0.38612610  0.90570077  0.40753194  1  -1.363098  0  -0.556733  -0.603038  0  3.324883  0
N  N95  1  0.40753796  0.38611570  0.90569619  1  -1.354813  0  -0.556696  -0.602969  0  3.324803  0
N  N96  1  0.27908373  0.91457446  0.83765174  1  -1.298616  0  -0.557119  -0.688275  0  3.299497  0
N  N97  1  0.83764895  0.27908306  0.91457475  1  -1.298754  0  -0.557154  -0.688328  0  3.29967  0
N  N98  1  0.91457483  0.83765180  0.27908449  1  -1.298643  0  -0.557105  -0.688225  0  3.299461  0
N  N99  1  0.72091107  0.08542108  0.16234802  1  -1.297872  0  -0.557136  -0.688188  0  3.299428  0
N  N100  1  0.16234753  0.72091019  0.08541916  1  -1.297717  0  -0.557178  -0.688273  0  3.299245  0
N  N101  1  0.08542164  0.16234975  0.72090949  1  -1.297828  0  -0.557119  -0.688198  0  3.299373  0
O  O102  1  0.03597542  0.62950264  0.43732017  1  -1.171774  0  -0.304626  -0.522252  0  2.24014  0
O  O103  1  0.43732480  0.03597534  0.62950913  1  -1.171888  0  -0.304579  -0.522211  0  2.240449  0
O  O104  1  0.62950642  0.43731814  0.03597196  1  -1.171788  0  -0.304578  -0.522245  0  2.240036  0
O  O105  1  0.96402355  0.37049755  0.56269291  1  -1.17175  0  -0.304707  -0.522354  0  2.239595  0
O  O106  1  0.56269592  0.96403165  0.37049384  1  -1.171731  0  -0.304736  -0.522424  0  2.239555  0
O  O107  1  0.37049507  0.56268651  0.96402703  1  -1.171692  0  -0.304656  -0.522311  0  2.239722  0
O  O108  1  0.19913705  0.72868218  0.80270893  1  -1.183717  0  -0.323397  -0.543746  0  2.373528  0
O  O109  1  0.80270744  0.19913494  0.72868364  1  -1.183702  0  -0.323362  -0.543721  0  2.373582  0
O  O110  1  0.72868406  0.80270753  0.19913662  1  -1.18371  0  -0.323341  -0.543677  0  2.37359  0
O  O111  1  0.80085691  0.27131160  0.19729219  1  -1.183926  0  -0.323354  -0.543626  0  2.373723  0
O  O112  1  0.19729405  0.80085892  0.27130923  1  -1.183922  0  -0.323327  -0.543584  0  2.373877  0
O  O113  1  0.27131325  0.19729413  0.80085912  1  -1.183923  0  -0.323341  -0.543647  0  2.373721  0
