# generated using pymatgen
data_Cu2H8C11N4O7
_symmetry_space_group_name_H-M   'P 1'
_cell_length_a   7.78005783
_cell_length_b   13.45725384
_cell_length_c   16.72438462
_cell_angle_alpha   90.04623412
_cell_angle_beta   99.32594062
_cell_angle_gamma   90.02466308
_symmetry_Int_Tables_number   1
_chemical_formula_structural   Cu2H8C11N4O7
_chemical_formula_sum   'Cu8 H32 C44 N16 O28'
_cell_volume   1727.86823877
_cell_formula_units_Z   4
loop_
 _symmetry_equiv_pos_site_id
 _symmetry_equiv_pos_as_xyz
  1  'x, y, z'
loop_
 _atom_site_type_symbol
 _atom_site_label
 _atom_site_symmetry_multiplicity
 _atom_site_fract_x
 _atom_site_fract_y
 _atom_site_fract_z
 _atom_site_occupancy
 _atom_site_pbe_bader_charge
 _atom_site_pbe_bader_spin_density
 _atom_site_pbe_cm5_charge
 _atom_site_pbe_ddec_charge
 _atom_site_pbe_ddec_spin_density
 _atom_site_pbe_ddec_sum_bond_order
 _atom_site_pbe_magmom
Cu  Cu0  1  0.82772318  0.39926965  0.55178892  1  1.129551  -0.510879  0.735468  0.903657  -0.639604  2.265891  -0.511
Cu  Cu1  1  0.67165960  0.90074145  0.94898655  1  1.127983  0.526781  0.732282  0.899083  0.659454  2.262106  0.526
Cu  Cu2  1  0.16981976  0.59960837  0.44952641  1  1.128006  -0.507788  0.736136  0.903216  -0.634692  2.268878  -0.508
Cu  Cu3  1  0.32991066  0.09942254  0.05065969  1  1.125969  -0.525553  0.732795  0.898517  -0.655547  2.264081  -0.525
Cu  Cu4  1  0.47620435  0.45946539  0.41421020  1  1.101929  0.522  0.695876  0.897955  0.644744  2.219449  0.52
Cu  Cu5  1  0.02448402  0.95858057  0.08675892  1  1.103556  -0.521768  0.699845  0.899801  -0.643114  2.227652  -0.52
Cu  Cu6  1  0.52269994  0.54059001  0.58740885  1  1.100489  0.519761  0.695242  0.895584  0.642793  2.220959  0.517
Cu  Cu7  1  0.97631762  0.04209381  0.91283988  1  1.102518  0.520586  0.69915  0.898213  0.642746  2.226459  0.519
H  H8  1  0.73309642  0.56120146  0.47964278  1  0.644541  -0.000613  0.286141  0.391335  3.3e-05  0.949795  -0.001
H  H9  1  0.76967080  0.06222251  0.02102375  1  0.655648  3.5e-05  0.28562  0.389468  0.000247  0.953397  0.0
H  H10  1  0.26711183  0.43826398  0.52174433  1  0.657349  -0.00065  0.285584  0.391274  2.9e-05  0.95063  -0.001
H  H11  1  0.23115127  0.93857146  0.97850141  1  0.665947  -3.8e-05  0.285873  0.390101  -0.000241  0.952085  0.0
H  H12  1  0.23316418  0.53507090  0.70525058  1  0.139174  -0.000266  0.106625  0.120435  -0.000242  1.025548  0.0
H  H13  1  0.26620400  0.03499614  0.79532843  1  0.134854  9.8e-05  0.106957  0.12163  9.4e-05  1.025702  0.0
H  H14  1  0.76521124  0.46497230  0.29440590  1  0.139055  -0.000316  0.106604  0.121643  -0.000247  1.025482  0.0
H  H15  1  0.73492096  0.96457686  0.20545641  1  0.13735  -0.000129  0.106944  0.121635  -9.9e-05  1.024677  0.0
H  H16  1  0.81656259  0.12099860  0.27380460  1  0.461761  -0.00013  0.29724  0.27147  -0.000183  1.005367  0.0
H  H17  1  0.68566715  0.62017143  0.22527903  1  0.469789  0.000179  0.298056  0.273783  0.000226  1.002329  0.0
H  H18  1  0.18354159  0.87950781  0.72594070  1  0.466088  0.000192  0.297243  0.271366  0.000234  1.005422  0.0
H  H19  1  0.31795762  0.37959239  0.77455342  1  0.466348  0.000159  0.297529  0.272129  0.000233  1.003899  0.0
H  H20  1  0.67849317  0.05829379  0.32165836  1  0.435872  -0.000201  0.308607  0.279729  -9.3e-05  0.958889  0.0
H  H21  1  0.82088432  0.55709319  0.17605736  1  0.432034  0.000217  0.30984  0.281335  0.000121  0.957128  0.0
H  H22  1  0.32029987  0.94294802  0.67788659  1  0.434925  -0.000232  0.308907  0.28101  -0.000132  0.958391  0.0
H  H23  1  0.18046425  0.44268008  0.82247522  1  0.440171  -0.000212  0.30888  0.281001  -0.000111  0.957883  0.0
H  H24  1  0.44322994  0.62945538  0.80590252  1  0.105714  0.000573  0.109941  0.121573  0.000352  0.982649  0.0
H  H25  1  0.05587550  0.12796013  0.69409859  1  0.098308  -0.000109  0.110027  0.1213  -0.000136  0.981879  0.0
H  H26  1  0.55729576  0.37136462  0.19225128  1  0.10645  -0.000205  0.109516  0.121758  -0.000169  0.982702  0.0
H  H27  1  0.94325791  0.87128229  0.30739173  1  0.104111  -0.000467  0.109451  0.121069  -0.0003  0.982157  0.0
H  H28  1  0.81682416  0.72117836  0.75913628  1  0.110628  0.000527  0.107743  0.120329  0.000338  1.001071  0.0
H  H29  1  0.68160842  0.22175874  0.74115090  1  0.118531  0.000108  0.108997  0.121332  9.9e-05  0.999034  0.0
H  H30  1  0.18286166  0.27806682  0.24326249  1  0.111578  -8e-05  0.107569  0.119747  3.5e-05  1.001391  0.0
H  H31  1  0.31796573  0.77691479  0.25641170  1  0.112447  -0.000313  0.107576  0.119754  -0.00023  1.000907  0.0
H  H32  1  0.48262113  0.23689560  0.30667783  1  0.178999  -0.000572  0.157124  0.139479  -0.000353  0.965562  0.0
H  H33  1  0.01757210  0.73615370  0.19261532  1  0.184002  0.000439  0.157627  0.140018  0.000228  0.96502  0.0
H  H34  1  0.51822983  0.76523642  0.69231551  1  0.184959  -0.000437  0.157674  0.140225  -0.000233  0.964059  0.0
H  H35  1  0.98297036  0.26471854  0.80746894  1  0.188644  -0.000595  0.157424  0.13996  -0.000369  0.964627  0.0
H  H36  1  0.97719971  0.20884959  0.45451022  1  0.204807  -0.000102  0.15987  0.144378  0.0  0.957757  0.0
H  H37  1  0.52302599  0.70865415  0.04466710  1  0.203463  6.8e-05  0.159873  0.144419  -3.1e-05  0.957703  0.0
H  H38  1  0.02199393  0.79125117  0.54561590  1  0.205502  -0.000104  0.159853  0.144705  -4e-06  0.958469  0.0
H  H39  1  0.47869288  0.29118346  0.95461500  1  0.208649  -6.9e-05  0.159908  0.144931  2.8e-05  0.957843  0.0
C  C40  1  0.88120269  0.56522821  0.66739304  1  1.554158  0.000351  0.216996  0.594445  0.000375  4.150848  0.0
C  C41  1  0.61754762  0.06654851  0.83374125  1  1.55711  -0.000376  0.219505  0.596041  0.001593  4.150456  -0.002
C  C42  1  0.11676907  0.43394960  0.33445480  1  1.55054  0.000229  0.217905  0.595995  0.000289  4.14759  0.0
C  C43  1  0.38363007  0.93328755  0.16556558  1  1.553298  0.00048  0.217247  0.594597  -0.001513  4.152576  0.002
C  C44  1  0.01099063  0.62197922  0.72612098  1  -0.071991  0.000154  -0.022258  -0.038458  4.5e-05  3.996208  0.0
C  C45  1  0.48798365  0.12228748  0.77435978  1  -0.068159  0.013503  -0.021528  -0.036421  0.009176  3.993537  0.01
C  C46  1  0.98799775  0.37769765  0.27487810  1  -0.098536  -0.000114  -0.021833  -0.037718  -7.8e-05  3.993545  0.0
C  C47  1  0.51238757  0.87701421  0.22497273  1  -0.032343  -0.012578  -0.021485  -0.036512  -0.008578  3.992785  -0.01
C  C48  1  0.18810863  0.59604430  0.73953265  1  -0.056868  0.001568  -0.094402  -0.120916  0.000908  3.986571  0.001
C  C49  1  0.31109285  0.09571535  0.76081225  1  -0.063343  0.00089  -0.095197  -0.122978  0.000666  3.987262  0.001
C  C50  1  0.81111094  0.40409274  0.26032592  1  -0.056189  0.000556  -0.094369  -0.120083  0.000359  3.983953  0.001
C  C51  1  0.68919403  0.90366040  0.23951026  1  -0.048696  0.000294  -0.094648  -0.121142  0.000158  3.984673  0.0
C  C52  1  0.30584347  0.65000174  0.79488064  1  -0.053422  0.000778  -0.08817  -0.107275  0.000605  3.989989  0.001
C  C53  1  0.19313468  0.14888656  0.70513176  1  -0.04333  0.001023  -0.087387  -0.104911  0.000529  3.989937  0.001
C  C54  1  0.69451198  0.35054745  0.20415678  1  -0.049227  0.000281  -0.08782  -0.109404  9.3e-05  3.991072  0.0
C  C55  1  0.80599467  0.85032874  0.29563108  1  -0.049049  -0.000644  -0.087649  -0.107553  -0.000426  3.988766  0.0
C  C56  1  0.25013459  0.73167326  0.83627461  1  -0.039533  0.008657  -0.014508  -0.056991  0.00586  3.940053  0.007
C  C57  1  0.24835860  0.23041313  0.66352874  1  0.032229  -0.007762  -0.014336  -0.056196  -0.005301  3.939997  -0.006
C  C58  1  0.75113487  0.26893860  0.16303216  1  -0.040007  -0.008743  -0.013171  -0.05349  -0.0059  3.938345  -0.007
C  C59  1  0.74963540  0.76877806  0.33685347  1  -0.040533  -0.005758  -0.012941  -0.0535  -0.004007  3.936463  -0.005
C  C60  1  0.37528132  0.79093369  0.89617299  1  1.582291  -0.001277  0.200841  0.564574  -9e-06  4.225939  -0.003
C  C61  1  0.12288142  0.28947259  0.60381478  1  1.566827  0.001184  0.196675  0.55883  1.3e-05  4.228744  0.003
C  C62  1  0.62709657  0.20973085  0.10267386  1  1.568387  0.001218  0.197123  0.561077  -3.3e-05  4.229551  0.003
C  C63  1  0.87369785  0.70992243  0.39738043  1  1.561771  0.001213  0.198556  0.562561  -1.5e-05  4.228166  0.003
C  C64  1  0.07260862  0.75759202  0.82187895  1  -0.051836  0.006857  -0.00747  -0.022693  0.004615  3.944481  0.006
C  C65  1  0.42571899  0.25677988  0.67786369  1  -0.122233  0.006535  -0.006714  -0.022358  0.004463  3.943589  0.005
C  C66  1  0.92840162  0.24258118  0.17849849  1  -0.095781  -0.008181  -0.008078  -0.025427  -0.005492  3.946418  -0.007
C  C67  1  0.57244942  0.74207932  0.32134084  1  -0.088956  0.004689  -0.007652  -0.025654  0.003338  3.942985  0.004
C  C68  1  0.00155862  0.84504790  0.86151738  1  1.601345  -0.001678  0.200858  0.594074  -0.000785  4.244705  -0.002
C  C69  1  0.49656289  0.34393002  0.63786615  1  1.603625  -0.000585  0.199656  0.592127  -2.6e-05  4.248185  -0.002
C  C70  1  0.00027995  0.15518277  0.13913881  1  1.594453  0.001317  0.20152  0.59523  0.000538  4.245394  0.002
C  C71  1  0.50113844  0.65470677  0.36100489  1  1.601176  -0.000895  0.200133  0.593442  -0.000255  4.246364  -0.002
C  C72  1  0.95451438  0.70211646  0.76813946  1  -0.001676  0.000454  -0.080328  -0.115275  0.000285  3.937949  0.0
C  C73  1  0.54409759  0.20214702  0.73200643  1  0.001875  0.000444  -0.082107  -0.11682  0.000354  3.936058  0.0
C  C74  1  0.04532575  0.29756215  0.23315917  1  0.070627  -0.002132  -0.082158  -0.116663  -0.001374  3.940438  -0.002
C  C75  1  0.45539345  0.79674252  0.26659714  1  -0.006982  -3.8e-05  -0.082033  -0.116115  -0.000103  3.937806  0.0
C  C76  1  0.59327924  0.25039174  0.35381090  1  0.959879  -0.002863  0.174017  0.063227  -0.00188  3.864364  -0.002
C  C77  1  0.90678225  0.75009640  0.14569955  1  0.956588  0.003044  0.173782  0.063088  0.001988  3.864887  0.002
C  C78  1  0.40712934  0.75107387  0.64557677  1  0.989036  -0.002768  0.172988  0.062517  -0.001829  3.861608  -0.002
C  C79  1  0.09398239  0.25063016  0.85423591  1  0.971797  -0.003047  0.175516  0.064926  -0.001977  3.862482  -0.002
C  C80  1  0.84855470  0.23586022  0.42964100  1  1.011815  -0.000416  0.182747  0.085433  -0.000809  3.83819  -0.001
C  C81  1  0.65154045  0.73579879  0.06974456  1  1.009702  0.00013  0.182382  0.086577  0.000582  3.839102  0.001
C  C82  1  0.15110776  0.76469452  0.57025852  1  1.009907  -0.000216  0.182474  0.084605  -0.000656  3.837939  -0.001
C  C83  1  0.34977949  0.26438963  0.92979880  1  0.99711  -5e-05  0.182144  0.084856  -0.000524  3.838513  -0.001
N  N84  1  0.77191210  0.31558935  0.45289880  1  -0.70606  -0.054699  -0.252619  -0.167162  -0.036846  3.587369  -0.049
N  N85  1  0.72772618  0.81607811  0.04720525  1  -0.705823  0.054993  -0.252158  -0.168407  0.037272  3.584047  0.049
N  N86  1  0.22800483  0.68492910  0.54718647  1  -0.707078  -0.053964  -0.252001  -0.166834  -0.036366  3.591125  -0.048
N  N87  1  0.27313388  0.18438830  0.95258421  1  -0.705501  -0.055206  -0.252155  -0.168571  -0.037331  3.586032  -0.049
N  N88  1  0.61152593  0.32464136  0.40607384  1  -0.704848  0.022599  -0.233731  -0.17388  0.015858  3.492342  0.023
N  N89  1  0.88812524  0.82500236  0.09416558  1  -0.707536  -0.024782  -0.236258  -0.175682  -0.017274  3.500592  -0.025
N  N90  1  0.38882626  0.67639938  0.59368165  1  -0.738575  0.023061  -0.233501  -0.174855  0.016152  3.491831  0.023
N  N91  1  0.11238921  0.17581563  0.90589306  1  -0.721543  0.024916  -0.236012  -0.175818  0.017405  3.500495  0.025
N  N92  1  0.74027383  0.19258983  0.36721015  1  -0.892862  -0.000983  -0.138246  0.194021  -0.000509  3.786148  0.0
N  N93  1  0.76005377  0.69206238  0.13175984  1  -0.891543  0.001405  -0.135174  0.196373  0.000784  3.788833  0.001
N  N94  1  0.25968503  0.80849754  0.63228491  1  -0.887828  -0.000871  -0.137798  0.195263  -0.00047  3.785464  0.0
N  N95  1  0.24126451  0.30822565  0.86784322  1  -0.886388  -0.001342  -0.138143  0.195223  -0.000761  3.787493  -0.001
N  N96  1  0.78288480  0.10535042  0.32938639  1  -0.728513  0.000242  -0.494098  -0.527998  0.00016  3.132869  0.0
N  N97  1  0.71734934  0.60469317  0.16927789  1  -0.730026  -0.000229  -0.496381  -0.532744  -0.000131  3.133801  0.0
N  N98  1  0.21648073  0.89547315  0.67026421  1  -0.734938  0.000527  -0.494397  -0.529256  0.000337  3.133338  0.0
N  N99  1  0.28443562  0.39537637  0.83016215  1  -0.738801  0.00056  -0.494916  -0.530399  0.000337  3.130893  0.0
O  O100  1  0.67189920  0.50100607  0.49606275  1  -1.093875  0.053734  -0.572521  -0.838475  0.033564  2.408778  0.047
O  O101  1  0.83081155  0.00207966  0.00431010  1  -1.100466  0.041908  -0.569543  -0.831725  0.027011  2.406081  0.039
O  O102  1  0.32768866  0.49870677  0.50538459  1  -1.10506  0.056493  -0.571226  -0.837953  0.035394  2.411514  0.049
O  O103  1  0.16996152  0.99858509  0.99537487  1  -1.110037  -0.041982  -0.569721  -0.831996  -0.026882  2.407945  -0.039
O  O104  1  0.72289262  0.59336022  0.66051543  1  -1.123664  0.073138  -0.322426  -0.544631  0.04639  2.381989  0.065
O  O105  1  0.77602150  0.09460988  0.84033744  1  -1.120395  0.070553  -0.32246  -0.544481  0.044246  2.382367  0.064
O  O106  1  0.27562521  0.40692100  0.34101782  1  -1.125865  0.073084  -0.322425  -0.54673  0.04627  2.381522  0.065
O  O107  1  0.22480445  0.90594849  0.15909347  1  -1.120446  -0.070777  -0.320886  -0.54357  -0.044244  2.384643  -0.064
O  O108  1  0.94244021  0.49390060  0.63057241  1  -1.121647  -0.065012  -0.316423  -0.530728  -0.040983  2.409385  -0.06
O  O109  1  0.55605827  0.99620474  0.87132574  1  -1.119467  0.064587  -0.316508  -0.531324  0.040694  2.41678  0.059
O  O110  1  0.05414515  0.50388645  0.37225766  1  -1.114227  -0.065501  -0.316656  -0.52966  -0.04138  2.411404  -0.06
O  O111  1  0.44584206  0.00336017  0.12795130  1  -1.118404  -0.064183  -0.315694  -0.529999  -0.040364  2.413702  -0.059
O  O112  1  0.90424752  0.82635279  0.91220214  1  -1.153089  0.004529  -0.325802  -0.571998  0.002875  2.319115  0.006
O  O113  1  0.59205377  0.32504257  0.58647025  1  -1.152882  0.003652  -0.323738  -0.571093  0.001805  2.318992  0.003
O  O114  1  0.09955236  0.17398112  0.08932746  1  -1.151093  -0.004808  -0.32651  -0.572299  -0.003029  2.317001  -0.006
O  O115  1  0.40196896  0.67345774  0.41088089  1  -1.150089  0.003582  -0.324941  -0.572474  0.001795  2.316527  0.003
O  O116  1  0.04098421  0.93121760  0.83631719  1  -1.140398  0.052921  -0.335303  -0.57395  0.033085  2.257007  0.049
O  O117  1  0.45909672  0.43020322  0.66368466  1  -1.135057  0.058756  -0.334679  -0.571008  0.036701  2.260064  0.054
O  O118  1  0.95912624  0.06897308  0.16356844  1  -1.139386  -0.052873  -0.335597  -0.574594  -0.032948  2.257353  -0.049
O  O119  1  0.54280484  0.56843050  0.33685991  1  -1.141095  0.056695  -0.335122  -0.57155  0.035426  2.256769  0.052
O  O120  1  0.32278754  0.82959447  0.95646106  1  -1.193849  0.001701  -0.319525  -0.562043  0.000884  2.20807  0.002
O  O121  1  0.17548436  0.32922185  0.54403669  1  -1.188556  -0.001  -0.316604  -0.558281  -0.000447  2.209699  -0.001
O  O122  1  0.68010921  0.17192088  0.04219687  1  -1.184468  -0.001748  -0.316772  -0.55932  -0.000909  2.207996  -0.002
O  O123  1  0.82039482  0.67217380  0.45775518  1  -1.18225  -0.000806  -0.316652  -0.559001  -0.000336  2.203978  -0.001
O  O124  1  0.53227399  0.79681690  0.88145329  1  -1.097267  0.099381  -0.327003  -0.537396  0.062174  2.292261  0.089
O  O125  1  0.96550864  0.29437668  0.61824545  1  -1.09953  -0.099361  -0.324683  -0.53543  -0.062059  2.291208  -0.089
O  O126  1  0.47036487  0.20290254  0.11756459  1  -1.093109  -0.098975  -0.325597  -0.535477  -0.062112  2.299417  -0.088
O  O127  1  0.03062043  0.70325254  0.38263808  1  -1.091027  -0.099536  -0.325841  -0.536104  -0.062402  2.298395  -0.089
