# generated using pymatgen
data_AlH9C21(O2F)3
_symmetry_space_group_name_H-M   'P 1'
_cell_length_a   3.96566910
_cell_length_b   24.62851940
_cell_length_c   24.62908164
_cell_angle_alpha   120.00789241
_cell_angle_beta   89.98537393
_cell_angle_gamma   90.01105956
_symmetry_Int_Tables_number   1
_chemical_formula_structural   AlH9C21(O2F)3
_chemical_formula_sum   'Al2 H18 C42 O12 F6'
_cell_volume   2083.04699235
_cell_formula_units_Z   2
loop_
 _symmetry_equiv_pos_site_id
 _symmetry_equiv_pos_as_xyz
  1  'x, y, z'
loop_
 _atom_site_type_symbol
 _atom_site_label
 _atom_site_symmetry_multiplicity
 _atom_site_fract_x
 _atom_site_fract_y
 _atom_site_fract_z
 _atom_site_occupancy
 _atom_site_pbe_bader_charge
 _atom_site_pbe_bader_spin_density
 _atom_site_pbe_cm5_charge
 _atom_site_pbe_ddec_charge
 _atom_site_pbe_ddec_spin_density
 _atom_site_pbe_ddec_sum_bond_order
 _atom_site_pbe_magmom
Al  Al0  1  0.99381398  0.49997923  0.50001150  1  2.506702  0  0.426904  1.594473  0  2.577333  0
Al  Al1  1  0.99373537  0.16668447  0.83332434  1  2.506561  0  0.426882  1.594117  0  2.577645  0
H  H2  1  0.30815119  0.43695233  0.72945390  1  0.090819  0  0.110262  0.132379  0  0.992234  0
H  H3  1  0.30831299  0.22970608  0.60389694  1  0.090445  0  0.110106  0.13226  0  0.992586  0
H  H4  1  0.71502183  0.32786091  0.82357021  1  0.131026  0  0.115706  0.123197  0  0.973664  0
H  H5  1  0.70556281  0.39072253  0.76983103  1  0.063434  0  0.102238  0.105966  0  1.000597  0
H  H6  1  0.71495455  0.33884754  0.50977034  1  0.131037  0  0.115619  0.123037  0  0.97343  0
H  H7  1  0.70563741  0.27597992  0.56350677  1  0.063738  0  0.102175  0.10593  0  1.000686  0
H  H8  1  0.30823684  0.79247203  0.56304894  1  0.082205  0  0.110017  0.131912  0  0.992444  0
H  H9  1  0.30829803  0.87418187  0.77029423  1  0.081073  0  0.11006  0.131981  0  0.99256  0
H  H10  1  0.71480144  0.99574642  0.67216451  1  0.082651  0  0.115655  0.123231  0  0.973515  0
H  H11  1  0.70562774  0.87912741  0.60930279  1  0.072484  0  0.102191  0.105987  0  1.000879  0
H  H12  1  0.71490772  0.67092829  0.66114805  1  0.083046  0  0.115733  0.123274  0  0.973662  0
H  H13  1  0.70553977  0.78754431  0.72402270  1  0.072821  0  0.102193  0.105887  0  1.00084  0
H  H14  1  0.30738854  0.27055037  0.20753236  1  0.070932  0  0.110125  0.133356  0  0.99112  0
H  H15  1  0.30733958  0.39609049  0.12581350  1  0.070876  0  0.10999  0.13315  0  0.990978  0
H  H16  1  0.71469823  0.17644804  0.00423599  1  0.09177  0  0.11563  0.123046  0  0.97321  0
H  H17  1  0.70498010  0.23017207  0.12084780  1  0.063728  0  0.102328  0.106176  0  1.000631  0
H  H18  1  0.71494161  0.49019453  0.32905449  1  0.092313  0  0.115555  0.122924  0  0.973478  0
H  H19  1  0.70484467  0.43646949  0.21244308  1  0.061508  0  0.102331  0.106137  0  1.000466  0
C  C20  1  0.49451137  0.44873049  0.40366293  1  1.611568  0  0.277643  0.673135  0  4.063855  0
C  C21  1  0.49431478  0.45490681  0.55127211  1  1.611474  0  0.277697  0.673025  0  4.06317  0
C  C22  1  0.49462143  0.59633806  0.54510609  1  1.603587  0  0.277606  0.672771  0  4.063312  0
C  C23  1  0.49461619  0.21178823  0.78208953  1  1.610146  0  0.277577  0.672591  0  4.064086  0
C  C24  1  0.49432215  0.07033609  0.78824639  1  1.605308  0  0.277606  0.673004  0  4.063189  0
C  C25  1  0.49425823  0.21794327  0.92967369  1  1.610846  0  0.277173  0.672159  0  4.06347  0
C  C26  1  0.50009608  0.42096203  0.58703365  1  0.036992  0  -0.016093  -0.151206  0  3.955107  0
C  C27  1  0.50042184  0.24570783  0.74630676  1  0.037037  0  -0.016072  -0.150959  0  3.954318  0
C  C28  1  0.38778641  0.44699739  0.64901663  1  0.394937  0  0.110056  0.293495  0  4.039421  0
C  C29  1  0.39511952  0.41393467  0.68100574  1  0.023274  0  -0.100063  -0.266716  0  3.978899  0
C  C30  1  0.38817168  0.21966498  0.68432215  1  0.407981  0  0.109979  0.293363  0  4.039904  0
C  C31  1  0.39541366  0.25271997  0.65232356  1  0.011266  0  -0.099819  -0.266391  0  3.978871  0
C  C32  1  0.61997157  0.30768773  0.77583913  1  -0.024267  0  -0.074776  -0.059444  0  3.982646  0
C  C33  1  0.61445116  0.34250876  0.74563593  1  -0.068249  0  -0.095801  -0.155531  0  4.001828  0
C  C34  1  0.61976452  0.35900372  0.55750164  1  -0.024025  0  -0.074521  -0.059082  0  3.982561  0
C  C35  1  0.61434856  0.32417153  0.58769582  1  -0.067516  0  -0.095909  -0.155573  0  4.000882  0
C  C36  1  0.50411452  0.35139400  0.65017528  1  -0.005629  0  -0.000223  0.100007  0  4.010497  0
C  C37  1  0.50420032  0.31528485  0.68317393  1  0.082741  0  -0.000128  0.099955  0  4.010559  0
C  C38  1  0.50036806  0.66605532  0.57902779  1  -0.013905  0  -0.016012  -0.150717  0  3.954215  0
C  C39  1  0.50019778  0.00060902  0.75429865  1  -0.01619  0  -0.015999  -0.150842  0  3.95416  0
C  C40  1  0.38802571  0.70199040  0.55299460  1  0.378163  0  0.10985  0.292856  0  4.039575  0
C  C41  1  0.39533618  0.76705301  0.58605632  1  0.11284  0  -0.099768  -0.265876  0  3.978102  0
C  C42  1  0.38795514  0.96467064  0.78035282  1  0.379497  0  0.109912  0.293128  0  4.039377  0
C  C43  1  0.39529543  0.89961057  0.74728111  1  0.113489  0  -0.099881  -0.266137  0  3.978625  0
C  C44  1  0.61977610  0.96817956  0.69233414  1  0.082818  0  -0.074671  -0.059575  0  3.983084  0
C  C45  1  0.61440620  0.90314636  0.65750340  1  -0.072587  0  -0.095814  -0.155509  0  4.000958  0
C  C46  1  0.61991216  0.69849789  0.64099465  1  0.081781  0  -0.074654  -0.059541  0  3.982508  0
C  C47  1  0.61445665  0.76352819  0.67581946  1  -0.073913  0  -0.095966  -0.155531  0  4.001727  0
C  C48  1  0.50420021  0.79876938  0.64860571  1  0.013477  0  -1.5e-05  0.100007  0  4.010722  0
C  C49  1  0.50415253  0.86788856  0.68472786  1  -0.082279  0  -0.000209  0.09989  0  4.010007  0
C  C50  1  0.50013819  0.41294697  0.33394995  1  -0.035132  0  -0.016038  -0.151204  0  3.954621  0
C  C51  1  0.49988549  0.25370208  0.99938934  1  -0.036968  0  -0.015973  -0.150942  0  3.954461  0
C  C52  1  0.38769450  0.35097202  0.29800562  1  0.415119  0  0.109838  0.293063  0  4.039786  0
C  C53  1  0.39457820  0.31897496  0.23294118  1  0.135845  0  -0.100047  -0.267484  0  3.977474  0
C  C54  1  0.38742776  0.31567395  0.03533352  1  0.416258  0  0.109946  0.293051  0  4.040056  0
C  C55  1  0.39449882  0.34765465  0.10039064  1  0.096076  0  -0.099752  -0.26709  0  3.978147  0
C  C56  1  0.61938187  0.22417382  0.03181863  1  0.103844  0  -0.074557  -0.058854  0  3.982385  0
C  C57  1  0.61368732  0.25435701  0.09684274  1  -0.136798  0  -0.095964  -0.156067  0  4.00165  0
C  C58  1  0.61955622  0.44247004  0.30148710  1  0.102556  0  -0.074271  -0.058614  0  3.982166  0
C  C59  1  0.61368398  0.41227553  0.23646225  1  -0.133815  0  -0.096125  -0.156219  0  4.002055  0
C  C60  1  0.50326433  0.34982392  0.20122030  1  -0.069489  0  -6.8e-05  0.100273  0  4.011115  0
C  C61  1  0.50325899  0.31682112  0.13211095  1  0.074398  0  -0.000257  0.099926  0  4.011061  0
O  O62  1  0.72766231  0.56946497  0.55878490  1  -1.254073  0  -0.236121  -0.595181  0  2.362906  0
O  O63  1  0.72764024  0.48927308  0.43053930  1  -1.257097  0  -0.236356  -0.595377  0  2.363483  0
O  O64  1  0.72743939  0.44123337  0.51070977  1  -1.256577  0  -0.236115  -0.59528  0  2.363237  0
O  O65  1  0.25649136  0.56824652  0.50637052  1  -1.246872  0  -0.233992  -0.591904  0  2.375988  0
O  O66  1  0.25621592  0.49365012  0.56193031  1  -1.250088  0  -0.23396  -0.591926  0  2.375395  0
O  O67  1  0.25642450  0.43807219  0.43175562  1  -1.251106  0  -0.233765  -0.591911  0  2.37581  0
O  O68  1  0.72739116  0.17739318  0.90278470  1  -1.256184  0  -0.236207  -0.595095  0  2.362907  0
O  O69  1  0.72761471  0.22545018  0.82263105  1  -1.254844  0  -0.236065  -0.594801  0  2.363988  0
O  O70  1  0.72746239  0.09722339  0.77457386  1  -1.253888  0  -0.236144  -0.5953  0  2.362919  0
O  O71  1  0.25626907  0.22861158  0.90157901  1  -1.251257  0  -0.233529  -0.591393  0  2.375529  0
O  O72  1  0.25617697  0.09842286  0.82698582  1  -1.248845  0  -0.233814  -0.591865  0  2.376108  0
O  O73  1  0.25645243  0.17303389  0.77141628  1  -1.249782  0  -0.233968  -0.591793  0  2.375716  0
F  F74  1  0.27454285  0.50705004  0.68062875  1  -0.628432  0  -0.101153  -0.139553  0  1.327818  0
F  F75  1  0.27513310  0.15959904  0.65272234  1  -0.62783  0  -0.10135  -0.139758  0  1.32805  0
F  F76  1  0.27491268  0.67353192  0.49294554  1  -0.627105  0  -0.101221  -0.139442  0  1.327915  0
F  F77  1  0.27484405  0.99311969  0.84039977  1  -0.627068  0  -0.101092  -0.139344  0  1.328172  0
F  F78  1  0.27482709  0.31935635  0.32646907  1  -0.630245  0  -0.101124  -0.139528  0  1.327649  0
F  F79  1  0.27440640  0.34727565  0.00687981  1  -0.630436  0  -0.101165  -0.139566  0  1.327467  0
