# generated using pymatgen
data_CdH14C20(NO)4
_symmetry_space_group_name_H-M   'P 1'
_cell_length_a   11.21733090
_cell_length_b   16.09435476
_cell_length_c   16.28146726
_cell_angle_alpha   90.00001488
_cell_angle_beta   90.00005857
_cell_angle_gamma   90.00031392
_symmetry_Int_Tables_number   1
_chemical_formula_structural   CdH14C20(NO)4
_chemical_formula_sum   'Cd4 H56 C80 N16 O16'
_cell_volume   2939.38613696
_cell_formula_units_Z   4
loop_
 _symmetry_equiv_pos_site_id
 _symmetry_equiv_pos_as_xyz
  1  'x, y, z'
loop_
 _atom_site_type_symbol
 _atom_site_label
 _atom_site_symmetry_multiplicity
 _atom_site_fract_x
 _atom_site_fract_y
 _atom_site_fract_z
 _atom_site_occupancy
 _atom_site_pbe_bader_charge
 _atom_site_pbe_bader_spin_density
 _atom_site_pbe_cm5_charge
 _atom_site_pbe_ddec_charge
 _atom_site_pbe_ddec_spin_density
 _atom_site_pbe_ddec_sum_bond_order
 _atom_site_pbe_magmom
Cd  Cd0  1  0.17506163  0.49999680  0.25000339  1  1.233895  0  0.774069  0.857793  0  2.206324  0
Cd  Cd1  1  0.67505815  0.99999922  0.75000525  1  1.233905  0  0.774067  0.857808  0  2.206302  0
Cd  Cd2  1  0.32493756  0.00000003  0.25000584  1  1.233901  0  0.774108  0.857843  0  2.206337  0
Cd  Cd3  1  0.82494031  0.50000120  0.74999910  1  1.233849  0  0.774091  0.857878  0  2.206271  0
H  H4  1  0.92471072  0.74741418  0.35333835  1  0.072885  0  0.101881  0.10369  0  1.00765  0
H  H5  1  0.85505642  0.83149075  0.47128901  1  0.060066  0  0.103638  0.105898  0  0.997732  0
H  H6  1  0.99407462  0.64565569  0.63784528  1  0.105752  0  0.105335  0.118348  0  1.018  0
H  H7  1  0.06503324  0.56418373  0.51898404  1  0.107305  0  0.106489  0.11275  0  1.002827  0
H  H8  1  0.79189206  0.91020769  0.58198787  1  0.121946  0  0.123313  0.123895  0  0.994025  0
H  H9  1  0.84492328  0.83572953  0.82685340  1  0.1042  0  0.139227  0.100363  0  0.979577  0
H  H10  1  0.93089865  0.72095031  0.73854258  1  0.544122  0  0.307405  0.289527  0  1.003675  0
H  H11  1  0.92470504  0.25259407  0.14666281  1  0.072901  0  0.101905  0.103696  0  1.007621  0
H  H12  1  0.85505614  0.16851351  0.02871518  1  0.060024  0  0.1036  0.105783  0  0.997692  0
H  H13  1  0.99407631  0.35434363  0.86215303  1  0.105685  0  0.105315  0.118337  0  1.017986  0
H  H14  1  0.06503040  0.43581766  0.98101424  1  0.107265  0  0.106435  0.11267  0  1.002851  0
H  H15  1  0.79189442  0.08979149  0.91801829  1  0.121817  0  0.123287  0.123876  0  0.993997  0
H  H16  1  0.84492408  0.16426736  0.67314972  1  0.104298  0  0.139232  0.100351  0  0.97952  0
H  H17  1  0.93089692  0.27904691  0.76145937  1  0.544422  0  0.307418  0.289583  0  1.003608  0
H  H18  1  0.42470803  0.75259213  0.85333857  1  0.072934  0  0.101908  0.103698  0  1.007637  0
H  H19  1  0.35505575  0.66851160  0.97128737  1  0.059999  0  0.103608  0.105762  0  0.997719  0
H  H20  1  0.49406754  0.85434400  0.13784965  1  0.105655  0  0.105315  0.118324  0  1.017934  0
H  H21  1  0.56502582  0.93581927  0.01898939  1  0.107289  0  0.106454  0.112696  0  1.002823  0
H  H22  1  0.29189268  0.58978997  0.08198480  1  0.121834  0  0.12329  0.123899  0  0.994045  0
H  H23  1  0.34492271  0.66426591  0.32685158  1  0.104249  0  0.139252  0.100407  0  0.979515  0
H  H24  1  0.43089364  0.77904668  0.23854141  1  0.544248  0  0.307436  0.289621  0  1.003571  0
H  H25  1  0.42470677  0.24740441  0.64666610  1  0.07287  0  0.101916  0.103655  0  1.007652  0
H  H26  1  0.35505854  0.33148095  0.52871050  1  0.060235  0  0.10361  0.105777  0  0.997752  0
H  H27  1  0.49407917  0.14565268  0.36215183  1  0.105589  0  0.10533  0.118399  0  1.018118  0
H  H28  1  0.56503521  0.06417954  0.48101214  1  0.107344  0  0.106463  0.112672  0  1.00286  0
H  H29  1  0.29189758  0.41020407  0.41801224  1  0.12199  0  0.12334  0.12392  0  0.994095  0
H  H30  1  0.34492665  0.33572833  0.17314488  1  0.104183  0  0.139215  0.100303  0  0.979568  0
H  H31  1  0.43089858  0.22094975  0.26145819  1  0.544349  0  0.307387  0.289491  0  1.003711  0
H  H32  1  0.57529213  0.24740463  0.14665962  1  0.072981  0  0.101887  0.103678  0  1.007705  0
H  H33  1  0.64494709  0.33148454  0.02871390  1  0.060126  0  0.103588  0.10573  0  0.997681  0
H  H34  1  0.50592460  0.14565649  0.86215407  1  0.105693  0  0.105333  0.118393  0  1.017963  0
H  H35  1  0.43496542  0.06417998  0.98101248  1  0.107376  0  0.106474  0.112693  0  1.002848  0
H  H36  1  0.70810926  0.41020865  0.91801400  1  0.121856  0  0.123284  0.123879  0  0.994038  0
H  H37  1  0.65507299  0.33573209  0.67314783  1  0.104253  0  0.139259  0.100381  0  0.979535  0
H  H38  1  0.56910563  0.22095194  0.76145801  1  0.544228  0  0.307427  0.289608  0  1.0036  0
H  H39  1  0.57529428  0.75259297  0.35334069  1  0.072987  0  0.101871  0.103685  0  1.007617  0
H  H40  1  0.64494430  0.66851519  0.47129076  1  0.06012  0  0.103609  0.10578  0  0.997709  0
H  H41  1  0.50592545  0.85434471  0.63784698  1  0.105665  0  0.105308  0.118329  0  1.017983  0
H  H42  1  0.43497120  0.93581971  0.51898790  1  0.107238  0  0.106419  0.112645  0  1.002833  0
H  H43  1  0.70810883  0.58979518  0.58198903  1  0.12199  0  0.123337  0.123932  0  0.993965  0
H  H44  1  0.65507619  0.66427091  0.82685638  1  0.104132  0  0.139201  0.100284  0  0.979591  0
H  H45  1  0.56910247  0.77904949  0.73854307  1  0.544182  0  0.307415  0.289609  0  1.003644  0
H  H46  1  0.07528855  0.25259749  0.64665861  1  0.073058  0  0.101898  0.10373  0  1.007656  0
H  H47  1  0.14494107  0.16851720  0.52870979  1  0.0602  0  0.103639  0.105815  0  0.997682  0
H  H48  1  0.00592019  0.35434480  0.36214738  1  0.105561  0  0.105339  0.118371  0  1.01796  0
H  H49  1  0.93496336  0.43581738  0.48100556  1  0.107209  0  0.106502  0.112724  0  1.002851  0
H  H50  1  0.20810454  0.08979405  0.41801401  1  0.121937  0  0.123306  0.123896  0  0.99408  0
H  H51  1  0.15507599  0.16426661  0.17314540  1  0.104189  0  0.13927  0.100377  0  0.97957  0
H  H52  1  0.06910152  0.27904894  0.26145623  1  0.544564  0  0.307397  0.289555  0  1.003672  0
H  H53  1  0.07529245  0.74741077  0.85333599  1  0.072831  0  0.101887  0.103637  0  1.007707  0
H  H54  1  0.14494580  0.83149133  0.97128301  1  0.059908  0  0.103613  0.105831  0  0.997738  0
H  H55  1  0.00593722  0.64565623  0.13784577  1  0.10574  0  0.105331  0.118329  0  1.017986  0
H  H56  1  0.93497778  0.56417972  0.01898640  1  0.107298  0  0.106446  0.112667  0  1.002868  0
H  H57  1  0.20810664  0.91021086  0.08198605  1  0.121841  0  0.123302  0.1239  0  0.994048  0
H  H58  1  0.15507252  0.83573375  0.32685338  1  0.104243  0  0.139234  0.100341  0  0.979542  0
H  H59  1  0.06910235  0.72095420  0.23854066  1  0.544433  0  0.307425  0.289614  0  1.003614  0
C  C60  1  0.04991292  0.60255738  0.35818342  1  1.534939  0  0.192971  0.56064  0  4.227513  0
C  C61  1  0.00213353  0.65131166  0.42872557  1  -0.01217  0  -0.027635  -0.052575  0  4.006864  0
C  C62  1  0.94137507  0.72649943  0.41597829  1  -0.140902  0  -0.091824  -0.101725  0  4.0145  0
C  C63  1  0.90219397  0.77331951  0.48230031  1  0.028569  0  -0.091544  -0.131031  0  3.991869  0
C  C64  1  0.92219155  0.74610878  0.56351290  1  0.038912  0  -0.004595  0.053182  0  4.054726  0
C  C65  1  0.98011413  0.66958268  0.57594361  1  -0.054672  0  -0.090567  -0.128266  0  3.947395  0
C  C66  1  0.01974016  0.62319253  0.50934730  1  -0.061128  0  -0.080811  -0.075463  0  3.972397  0
C  C67  1  0.88205302  0.79686005  0.63198031  1  0.429063  0  0.085207  0.109338  0  4.007495  0
C  C68  1  0.82285029  0.87255231  0.63286105  1  0.337748  0  0.002573  -0.078531  0  3.954518  0
C  C69  1  0.84733914  0.83673050  0.76024515  1  1.031571  0  0.140505  0.147236  0  3.968323  0
C  C70  1  0.04991105  0.39745127  0.14181223  1  1.535239  0  0.192859  0.560512  0  4.22798  0
C  C71  1  0.00212939  0.34869557  0.07127372  1  -0.012315  0  -0.027754  -0.052822  0  4.006946  0
C  C72  1  0.94136858  0.27350888  0.08402350  1  -0.141015  0  -0.09186  -0.101705  0  4.014406  0
C  C73  1  0.90219414  0.22668617  0.01770207  1  0.028769  0  -0.091523  -0.130962  0  3.991661  0
C  C74  1  0.92219256  0.25389524  0.93648905  1  0.038956  0  -0.004496  0.053426  0  4.054451  0
C  C75  1  0.98011305  0.33042032  0.92405408  1  -0.054752  0  -0.090558  -0.128331  0  3.947313  0
C  C76  1  0.01973331  0.37681241  0.99065033  1  -0.061068  0  -0.080701  -0.075238  0  3.972222  0
C  C77  1  0.88205175  0.20313885  0.86802345  1  0.429242  0  0.085167  0.109148  0  4.007552  0
C  C78  1  0.82285198  0.12744512  0.86714328  1  0.338293  0  0.002646  -0.078409  0  3.954618  0
C  C79  1  0.84734359  0.16326578  0.73975858  1  1.03161  0  0.140499  0.147292  0  3.968333  0
C  C80  1  0.54990595  0.89744751  0.85818955  1  1.535197  0  0.192926  0.560666  0  4.227605  0
C  C81  1  0.50212439  0.84869306  0.92873108  1  -0.01219  0  -0.027798  -0.05286  0  4.007031  0
C  C82  1  0.44136810  0.77350571  0.91597913  1  -0.141025  0  -0.09187  -0.101719  0  4.014582  0
C  C83  1  0.40219643  0.72668426  0.98230052  1  0.028692  0  -0.091494  -0.130893  0  3.991662  0
C  C84  1  0.42219170  0.75389186  0.06351541  1  0.038961  0  -0.004559  0.053355  0  4.054558  0
C  C85  1  0.48010685  0.83041880  0.07594613  1  -0.054724  0  -0.090554  -0.128299  0  3.947322  0
C  C86  1  0.51973139  0.87681154  0.00935142  1  -0.06101  0  -0.080656  -0.07524  0  3.972211  0
C  C87  1  0.38205009  0.70313859  0.13197850  1  0.428682  0  0.085133  0.109163  0  4.007713  0
C  C88  1  0.32285389  0.62744486  0.13285677  1  0.337744  0  0.002589  -0.078529  0  3.954553  0
C  C89  1  0.34734124  0.66326369  0.26024272  1  1.031591  0  0.14037  0.147102  0  3.968552  0
C  C90  1  0.54991424  0.10254951  0.64180784  1  1.534831  0  0.192984  0.560643  0  4.227696  0
C  C91  1  0.50213028  0.15130377  0.57126750  1  -0.012127  0  -0.027809  -0.052891  0  4.007062  0
C  C92  1  0.44137103  0.22649089  0.58402433  1  -0.140974  0  -0.0918  -0.101594  0  4.014449  0
C  C93  1  0.40219608  0.27330908  0.51770045  1  0.028153  0  -0.091549  -0.130988  0  3.991821  0
C  C94  1  0.42219443  0.24610081  0.43648725  1  0.039181  0  -0.004537  0.053407  0  4.054392  0
C  C95  1  0.48011164  0.16957844  0.42405104  1  -0.05474  0  -0.090593  -0.128512  0  3.947378  0
C  C96  1  0.51973947  0.12318524  0.49065069  1  -0.061254  0  -0.080652  -0.075087  0  3.972211  0
C  C97  1  0.38205044  0.29685517  0.36802044  1  0.428757  0  0.085129  0.109241  0  4.007326  0
C  C98  1  0.32285217  0.37254744  0.36714152  1  0.338286  0  0.002625  -0.07852  0  3.954707  0
C  C99  1  0.34734528  0.33672994  0.23975558  1  1.031583  0  0.140549  0.147439  0  3.968374  0
C  C100  1  0.45008352  0.10255112  0.14181171  1  1.535291  0  0.192967  0.560568  0  4.227907  0
C  C101  1  0.49787043  0.15130432  0.07127018  1  -0.012338  0  -0.027807  -0.052907  0  4.006843  0
C  C102  1  0.55863028  0.22649353  0.08402091  1  -0.141041  0  -0.091836  -0.101643  0  4.014394  0
C  C103  1  0.59780641  0.27331126  0.01769828  1  0.028342  0  -0.091485  -0.130881  0  3.99163  0
C  C104  1  0.57781203  0.24610552  0.93648524  1  0.03889  0  -0.00454  0.053357  0  4.05458  0
C  C105  1  0.51989242  0.16958106  0.92405390  1  -0.054772  0  -0.090632  -0.128553  0  3.947501  0
C  C106  1  0.48026164  0.12318709  0.99064862  1  -0.061167  0  -0.080655  -0.075092  0  3.972167  0
C  C107  1  0.61795186  0.29685941  0.86802092  1  0.428743  0  0.085205  0.109367  0  4.007383  0
C  C108  1  0.67715162  0.37255128  0.86714265  1  0.337739  0  0.002655  -0.078467  0  3.954553  0
C  C109  1  0.65265536  0.33673431  0.73975731  1  1.031591  0  0.140437  0.147279  0  3.968354  0
C  C110  1  0.45009306  0.89744912  0.35819097  1  1.535243  0  0.193001  0.560809  0  4.227799  0
C  C111  1  0.49787167  0.84869299  0.42872946  1  -0.01223  0  -0.027792  -0.052978  0  4.00701  0
C  C112  1  0.55863448  0.77350587  0.41598185  1  -0.141005  0  -0.091781  -0.101587  0  4.014463  0
C  C113  1  0.59780676  0.72668519  0.48230204  1  0.028048  0  -0.091549  -0.130987  0  3.991668  0
C  C114  1  0.57781198  0.75389595  0.56351462  1  0.039148  0  -0.004545  0.053359  0  4.054375  0
C  C115  1  0.51989120  0.83042019  0.57594715  1  -0.054797  0  -0.090557  -0.128316  0  3.947411  0
C  C116  1  0.48026783  0.87681277  0.50935180  1  -0.061048  0  -0.080633  -0.075156  0  3.972184  0
C  C117  1  0.61795150  0.70314035  0.63198205  1  0.428829  0  0.085173  0.109262  0  4.007447  0
C  C118  1  0.67714978  0.62744746  0.63286404  1  0.337763  0  0.00259  -0.078509  0  3.954641  0
C  C119  1  0.65266023  0.66326869  0.76024752  1  1.031502  0  0.140566  0.147468  0  3.968151  0
C  C120  1  0.95008457  0.39744870  0.64180556  1  1.534973  0  0.193017  0.560659  0  4.227733  0
C  C121  1  0.99786307  0.34869442  0.57126402  1  -0.012234  0  -0.027848  -0.052885  0  4.006895  0
C  C122  1  0.05862152  0.27350789  0.58401929  1  -0.141006  0  -0.09185  -0.101809  0  4.014775  0
C  C123  1  0.09780084  0.22668843  0.51770033  1  0.028463  0  -0.091562  -0.130897  0  3.991807  0
C  C124  1  0.07780504  0.25389482  0.43648345  1  0.039181  0  -0.004533  0.053191  0  4.05452  0
C  C125  1  0.01988514  0.33041719  0.42405028  1  -0.054642  0  -0.090561  -0.128327  0  3.947377  0
C  C126  1  0.98025733  0.37681231  0.49064536  1  -0.06112  0  -0.080699  -0.075226  0  3.97226  0
C  C127  1  0.11794714  0.20314044  0.36801911  1  0.429113  0  0.085208  0.109617  0  4.007058  0
C  C128  1  0.17714452  0.12744756  0.36714082  1  0.337703  0  0.002672  -0.07856  0  3.954568  0
C  C129  1  0.15265746  0.16326564  0.23975488  1  1.031545  0  0.140435  0.147236  0  3.968272  0
C  C130  1  0.95008911  0.60255170  0.85818842  1  1.535139  0  0.19302  0.560742  0  4.227591  0
C  C131  1  0.99787702  0.65130740  0.92872754  1  -0.012181  0  -0.027733  -0.052759  0  4.006959  0
C  C132  1  0.05862980  0.72649720  0.91597469  1  -0.141092  0  -0.091849  -0.101641  0  4.014515  0
C  C133  1  0.09780692  0.77331681  0.98229674  1  0.028448  0  -0.091509  -0.130962  0  3.991809  0
C  C134  1  0.07780938  0.74610773  0.06351037  1  0.028901  0  -0.004537  0.053203  0  4.054448  0
C  C135  1  0.01989692  0.66957955  0.07594350  1  -0.054292  0  -0.090586  -0.128325  0  3.94731  0
C  C136  1  0.98027042  0.62318870  0.00934909  1  -0.061512  0  -0.08069  -0.075226  0  3.972223  0
C  C137  1  0.11795020  0.79686164  0.13197842  1  0.385593  0  0.085189  0.109484  0  4.007313  0
C  C138  1  0.17714373  0.87255786  0.13285921  1  0.391311  0  0.002635  -0.078537  0  3.954649  0
C  C139  1  0.15265301  0.83673595  0.26024268  1  1.031621  0  0.140451  0.147261  0  3.968249  0
N  N140  1  0.80211200  0.89638859  0.71258912  1  -1.239937  0  -0.366486  -0.307655  0  3.569542  0
N  N141  1  0.89647533  0.77600557  0.71410129  1  -1.275221  0  -0.370761  -0.248778  0  3.633463  0
N  N142  1  0.80211695  0.10360752  0.78741643  1  -1.240597  0  -0.366455  -0.307662  0  3.56983  0
N  N143  1  0.89647320  0.22399339  0.78590310  1  -1.275716  0  -0.370773  -0.248826  0  3.633375  0
N  N144  1  0.30211541  0.60360604  0.21258668  1  -1.24009  0  -0.366381  -0.307545  0  3.56973  0
N  N145  1  0.39647256  0.72399190  0.21409887  1  -1.27536  0  -0.370701  -0.24876  0  3.633466  0
N  N146  1  0.30211911  0.39638742  0.28741344  1  -1.24043  0  -0.366533  -0.307765  0  3.569755  0
N  N147  1  0.39647352  0.27600253  0.28590070  1  -1.275738  0  -0.370739  -0.24879  0  3.63353  0
N  N148  1  0.69788564  0.39639010  0.78741397  1  -1.239945  0  -0.366509  -0.307774  0  3.569738  0
N  N149  1  0.60352404  0.27600734  0.78590116  1  -1.275157  0  -0.370741  -0.248866  0  3.633442  0
N  N150  1  0.69788641  0.60361120  0.71259028  1  -1.240009  0  -0.366567  -0.307802  0  3.569677  0
N  N151  1  0.60352932  0.72399609  0.71410179  1  -1.275459  0  -0.370725  -0.248885  0  3.63344  0
N  N152  1  0.19788281  0.10360879  0.28741398  1  -1.240013  0  -0.366566  -0.307734  0  3.569716  0
N  N153  1  0.10352484  0.22399430  0.28589813  1  -1.275579  0  -0.370726  -0.248915  0  3.633366  0
N  N154  1  0.19788233  0.89639484  0.21258729  1  -1.240028  0  -0.366493  -0.307691  0  3.569819  0
N  N155  1  0.10352161  0.77600835  0.21409632  1  -1.27532  0  -0.370797  -0.248959  0  3.633287  0
O  O156  1  0.03534176  0.62825952  0.28468574  1  -1.201772  0  -0.335463  -0.587003  0  2.218721  0
O  O157  1  0.10706976  0.53544825  0.37477161  1  -1.14779  0  -0.335923  -0.542787  0  2.212261  0
O  O158  1  0.03534783  0.37174659  0.21531174  1  -1.201834  0  -0.335447  -0.586927  0  2.218795  0
O  O159  1  0.10707464  0.46456001  0.12522837  1  -1.147891  0  -0.335781  -0.542645  0  2.212454  0
O  O160  1  0.53534529  0.87174219  0.78469002  1  -1.201885  0  -0.3354  -0.586946  0  2.218757  0
O  O161  1  0.60706777  0.96455562  0.87477899  1  -1.147903  0  -0.335916  -0.542805  0  2.212305  0
O  O162  1  0.53535121  0.12825229  0.71530797  1  -1.201718  0  -0.335464  -0.5869  0  2.218788  0
O  O163  1  0.60708175  0.03544099  0.62522212  1  -1.147836  0  -0.335904  -0.542842  0  2.212256  0
O  O164  1  0.46464864  0.12825644  0.21531001  1  -1.201861  0  -0.335416  -0.586859  0  2.218814  0
O  O165  1  0.39291812  0.03544300  0.12522657  1  -1.14793  0  -0.335908  -0.542749  0  2.212441  0
O  O166  1  0.46465073  0.87174385  0.28469206  1  -1.201882  0  -0.335451  -0.586985  0  2.218801  0
O  O167  1  0.39293268  0.96455826  0.37477914  1  -1.147866  0  -0.335963  -0.542894  0  2.212357  0
O  O168  1  0.96465127  0.37174407  0.71530570  1  -1.201767  0  -0.335456  -0.586948  0  2.218691  0
O  O169  1  0.89291436  0.46455535  0.62522289  1  -1.14786  0  -0.335943  -0.542805  0  2.212408  0
O  O170  1  0.96465323  0.62825390  0.78468768  1  -1.201689  0  -0.335456  -0.586948  0  2.218725  0
O  O171  1  0.89292463  0.53544359  0.87477596  1  -1.147903  0  -0.335942  -0.542904  0  2.212384  0
