# generated using pymatgen
data_H10PbC13S(N2O)3
_symmetry_space_group_name_H-M   'P 1'
_cell_length_a   9.97743885
_cell_length_b   13.53748170
_cell_length_c   16.72386184
_cell_angle_alpha   107.54915579
_cell_angle_beta   107.35122535
_cell_angle_gamma   90.01347450
_symmetry_Int_Tables_number   1
_chemical_formula_structural   H10PbC13S(N2O)3
_chemical_formula_sum   'H40 Pb4 C52 S4 N24 O12'
_cell_volume   2045.63032392
_cell_formula_units_Z   4
loop_
 _symmetry_equiv_pos_site_id
 _symmetry_equiv_pos_as_xyz
  1  'x, y, z'
loop_
 _atom_site_type_symbol
 _atom_site_label
 _atom_site_symmetry_multiplicity
 _atom_site_fract_x
 _atom_site_fract_y
 _atom_site_fract_z
 _atom_site_occupancy
 _atom_site_pbe_bader_charge
 _atom_site_pbe_bader_spin_density
 _atom_site_pbe_cm5_charge
 _atom_site_pbe_ddec_charge
 _atom_site_pbe_ddec_spin_density
 _atom_site_pbe_ddec_sum_bond_order
 _atom_site_pbe_magmom
H  H0  1  0.59363687  0.90907603  0.41149629  1  0.122544  0  0.107696  0.086908  0  1.030897  0
H  H1  1  0.18238915  0.59090394  0.58858493  1  0.118642  0  0.107292  0.086558  0  1.031208  0
H  H2  1  0.40639907  0.09097809  0.58854104  1  0.122279  0  0.107804  0.087008  0  1.030746  0
H  H3  1  0.81760528  0.40904362  0.41140982  1  0.118711  0  0.107327  0.086602  0  1.031133  0
H  H4  1  0.41258275  0.91085871  0.27271986  1  0.108188  0  0.108178  0.120674  0  1.004098  0
H  H5  1  0.14035305  0.58929103  0.72749445  1  0.10416  0  0.108386  0.121572  0  1.004289  0
H  H6  1  0.58739983  0.08913555  0.72732203  1  0.109072  0  0.108136  0.120724  0  1.003822  0
H  H7  1  0.85962601  0.41071546  0.27250987  1  0.104255  0  0.108431  0.12168  0  1.004181  0
H  H8  1  0.73430845  0.84313970  0.14357270  1  0.093209  0  0.110939  0.117907  0  0.997665  0
H  H9  1  0.59126308  0.65687880  0.85631341  1  0.108865  0  0.111403  0.118781  0  0.997311  0
H  H10  1  0.26562624  0.15688213  0.85643012  1  0.093101  0  0.110901  0.117843  0  0.997849  0
H  H11  1  0.40872335  0.34307756  0.14368909  1  0.10865  0  0.111453  0.118818  0  0.997503  0
H  H12  1  0.90305942  0.84242372  0.28972568  1  0.108132  0  0.119234  0.095735  0  0.981529  0
H  H13  1  0.61363476  0.65753753  0.71004750  1  0.109396  0  0.119263  0.095617  0  0.982616  0
H  H14  1  0.09693736  0.15766905  0.71027946  1  0.107685  0  0.1193  0.095833  0  0.981384  0
H  H15  1  0.38636822  0.34236596  0.28994313  1  0.109913  0  0.119262  0.095527  0  0.982286  0
H  H16  1  0.34523100  0.88407904  0.11183892  1  0.084295  0  0.119476  0.085438  0  0.966354  0
H  H17  1  0.23415657  0.61580998  0.88824041  1  0.094351  0  0.118454  0.083657  0  0.968173  0
H  H18  1  0.65469048  0.11583822  0.88816745  1  0.084868  0  0.119365  0.085192  0  0.96616  0
H  H19  1  0.76581306  0.38418395  0.11175826  1  0.094478  0  0.118468  0.083683  0  0.968101  0
H  H20  1  0.53512239  0.87929561  0.91263354  1  0.093036  0  0.117201  0.082883  0  0.974014  0
H  H21  1  0.62298090  0.62073304  0.08750497  1  0.089103  0  0.117015  0.081691  0  0.975251  0
H  H22  1  0.46483162  0.12064755  0.08738424  1  0.093411  0  0.117314  0.083003  0  0.973754  0
H  H23  1  0.37698865  0.37931197  0.91251752  1  0.089412  0  0.116961  0.081604  0  0.975163  0
H  H24  1  0.13881054  0.89447547  0.87191716  1  0.094049  0  0.109944  0.116363  0  0.996704  0
H  H25  1  0.26718181  0.60572500  0.12824186  1  0.085334  0  0.11027  0.116926  0  0.998053  0
H  H26  1  0.86114710  0.10557963  0.12808948  1  0.094444  0  0.10985  0.11641  0  0.996834  0
H  H27  1  0.73278344  0.39428353  0.87177406  1  0.083994  0  0.110289  0.116984  0  0.99806  0
H  H28  1  0.97313736  0.89692323  0.72590612  1  0.144017  0  0.112218  0.090669  0  1.026227  0
H  H29  1  0.24748668  0.60299801  0.27415251  1  0.144653  0  0.112409  0.090598  0  1.02639  0
H  H30  1  0.02687521  0.10317410  0.27409749  1  0.143728  0  0.112146  0.090665  0  1.026243  0
H  H31  1  0.75248598  0.39692898  0.72584739  1  0.144316  0  0.112361  0.09068  0  1.02658  0
H  H32  1  0.29860568  0.87451283  0.61664654  1  0.103301  0  0.115505  0.086051  0  1.006348  0
H  H33  1  0.68214421  0.62553750  0.38345934  1  0.120452  0  0.115435  0.086604  0  1.005473  0
H  H34  1  0.70144575  0.12548550  0.38338276  1  0.103196  0  0.115483  0.086039  0  1.006281  0
H  H35  1  0.31782746  0.37439609  0.61653305  1  0.119544  0  0.115496  0.086579  0  1.005531  0
H  H36  1  0.47635494  0.87173711  0.75601766  1  0.122004  0  0.109055  0.123412  0  1.005173  0
H  H37  1  0.72059835  0.62854426  0.24414235  1  0.110419  0  0.108906  0.122639  0  1.005647  0
H  H38  1  0.52364652  0.12819590  0.24401473  1  0.122297  0  0.108997  0.123265  0  1.005462  0
H  H39  1  0.27937069  0.37147573  0.75587141  1  0.109889  0  0.108888  0.122612  0  1.005676  0
Pb  Pb40  1  0.92585853  0.85613011  0.50743215  1  1.403701  0  0.619747  0.98768  0  1.937372  0
Pb  Pb41  1  0.41841534  0.64388192  0.49255384  1  1.403128  0  0.619744  0.98784  0  1.937547  0
Pb  Pb42  1  0.07421111  0.14392256  0.49253610  1  1.40362  0  0.61976  0.9877  0  1.937318  0
Pb  Pb43  1  0.58162177  0.35608287  0.50744779  1  1.402688  0  0.619763  0.987806  0  1.937465  0
C  C44  1  0.20133841  0.90289914  0.43974335  1  0.478284  0  0.151015  0.279222  0  4.333833  0
C  C45  1  0.76164795  0.59707779  0.56023218  1  0.486985  0  0.151054  0.279599  0  4.335072  0
C  C46  1  0.79877325  0.09714383  0.56023206  1  0.476928  0  0.150548  0.278571  0  4.333568  0
C  C47  1  0.23838391  0.40291701  0.43973335  1  0.487042  0  0.151108  0.279735  0  4.335062  0
C  C48  1  0.62063068  0.89399803  0.35060079  1  0.499706  0  0.050037  0.099092  0  3.947439  0
C  C49  1  0.27033902  0.60603755  0.64944892  1  0.494613  0  0.050115  0.098732  0  3.94654  0
C  C50  1  0.37938205  0.10604265  0.64942858  1  0.500403  0  0.049916  0.099025  0  3.947637  0
C  C51  1  0.72965149  0.39392322  0.35054875  1  0.494569  0  0.050065  0.09862  0  3.946491  0
C  C52  1  0.51967464  0.89477073  0.27267339  1  -0.012342  0  -0.07374  -0.154517  0  3.902457  0
C  C53  1  0.24744823  0.60538881  0.72744722  1  -0.007474  0  -0.074473  -0.156997  0  3.903187  0
C  C54  1  0.48030707  0.10523601  0.72735450  1  -0.013398  0  -0.073613  -0.154582  0  3.902022  0
C  C55  1  0.75253572  0.39459754  0.27255432  1  -0.007551  0  -0.074502  -0.15726  0  3.903023  0
C  C56  1  0.55951860  0.87651342  0.19620109  1  -0.021654  0  0.005159  0.095854  0  4.023439  0
C  C57  1  0.36392673  0.62356510  0.80384432  1  -0.04839  0  0.005771  0.098378  0  4.021767  0
C  C58  1  0.44043381  0.12349296  0.80381854  1  -0.020842  0  0.005055  0.096113  0  4.022541  0
C  C59  1  0.63605269  0.37642369  0.19616032  1  -0.047208  0  0.00585  0.098873  0  4.021715  0
C  C60  1  0.70010670  0.85723045  0.20176045  1  -0.066547  0  -0.077029  -0.159756  0  3.928372  0
C  C61  1  0.49884291  0.64285205  0.79816347  1  -0.001153  0  -0.077337  -0.161107  0  3.927981  0
C  C62  1  0.29984759  0.14279627  0.79824886  1  -0.065756  0  -0.077006  -0.159858  0  3.928116  0
C  C63  1  0.50113963  0.35712057  0.20184129  1  -0.00156  0  -0.077379  -0.161531  0  3.928024  0
C  C64  1  0.79310596  0.85703024  0.28213546  1  0.508343  0  0.050295  0.094045  0  3.967323  0
C  C65  1  0.51132792  0.64298817  0.71773092  1  0.462033  0  0.049962  0.09384  0  3.968961  0
C  C66  1  0.20688729  0.14304129  0.71787721  1  0.50821  0  0.049983  0.093728  0  3.967529  0
C  C67  1  0.48866731  0.35694252  0.28226574  1  0.461102  0  0.049904  0.094109  0  3.967969  0
C  C68  1  0.45644053  0.87929116  0.11444268  1  0.61503  0  0.079179  0.057929  0  3.902368  0
C  C69  1  0.34275861  0.62076052  0.88564098  1  0.623104  0  0.079032  0.057739  0  3.904261  0
C  C70  1  0.54349384  0.12068963  0.88557265  1  0.613968  0  0.079162  0.058026  0  3.901589  0
C  C71  1  0.65721160  0.37924609  0.11436605  1  0.623264  0  0.078881  0.057458  0  3.904543  0
C  C72  1  0.42310512  0.88116776  0.90843627  1  0.616615  0  0.080283  0.062612  0  3.921926  0
C  C73  1  0.51516268  0.61901796  0.09170213  1  0.635441  0  0.078905  0.06268  0  3.924844  0
C  C74  1  0.57684983  0.11880535  0.09157979  1  0.616546  0  0.08034  0.062637  0  3.922763  0
C  C75  1  0.48480501  0.38101217  0.90831463  1  0.635636  0  0.078868  0.062544  0  3.924743  0
C  C76  1  0.32126353  0.88316842  0.82598058  1  -0.036866  0  0.004593  0.09603  0  4.021684  0
C  C77  1  0.49559887  0.61703420  0.17413890  1  -0.021275  0  0.004364  0.094708  0  4.022913  0
C  C78  1  0.67871600  0.11682147  0.17403162  1  -0.037816  0  0.004638  0.096113  0  4.022155  0
C  C79  1  0.50437255  0.38298116  0.82587457  1  -0.022351  0  0.004641  0.095115  0  4.02253  0
C  C80  1  0.17716995  0.89036137  0.81659890  1  0.02728  0  -0.076708  -0.147231  0  3.915614  0
C  C81  1  0.36087942  0.60984108  0.18353450  1  -0.03698  0  -0.076789  -0.147441  0  3.915014  0
C  C82  1  0.82280724  0.10967614  0.18341044  1  0.027139  0  -0.07662  -0.147425  0  3.916367  0
C  C83  1  0.63908900  0.39014938  0.81647300  1  -0.034709  0  -0.076794  -0.147547  0  3.915386  0
C  C84  1  0.08591489  0.89187973  0.73622054  1  0.407417  0  0.042032  0.08003  0  3.983172  0
C  C85  1  0.34996606  0.60810639  0.26386054  1  0.464385  0  0.041724  0.079666  0  3.980634  0
C  C86  1  0.91409390  0.10817932  0.26378831  1  0.407875  0  0.04213  0.080051  0  3.983409  0
C  C87  1  0.65000092  0.39184121  0.73613515  1  0.464697  0  0.041583  0.079302  0  3.981691  0
C  C88  1  0.26685167  0.87908411  0.67461285  1  0.525207  0  0.053004  0.115174  0  3.938165  0
C  C89  1  0.59244646  0.62095005  0.32549301  1  0.481002  0  0.05173  0.110906  0  3.9408  0
C  C90  1  0.73318120  0.12091856  0.32541002  1  0.524819  0  0.053061  0.115121  0  3.937465  0
C  C91  1  0.40752185  0.37900075  0.67450542  1  0.481466  0  0.051712  0.110993  0  3.940728  0
C  C92  1  0.36608550  0.87754076  0.75298869  1  -0.053869  0  -0.079582  -0.169027  0  3.921613  0
C  C93  1  0.61336260  0.62267339  0.24716583  1  -0.011303  0  -0.077882  -0.164865  0  3.921691  0
C  C94  1  0.63391542  0.12242324  0.24703018  1  -0.053561  0  -0.079577  -0.168819  0  3.921395  0
C  C95  1  0.38660834  0.37732802  0.75284549  1  -0.01128  0  -0.07804  -0.165088  0  3.921737  0
S  S96  1  0.34042480  0.85526346  0.42170690  1  0.172162  0  -0.128362  -0.294619  0  2.430092  0
S  S97  1  0.91884330  0.64476279  0.57841200  1  0.163183  0  -0.127191  -0.293232  0  2.429066  0
S  S98  1  0.65963395  0.14469881  0.57825428  1  0.171949  0  -0.128276  -0.294639  0  2.429742  0
S  S99  1  0.08116890  0.35526726  0.42154972  1  0.162879  0  -0.12729  -0.293463  0  2.429243  0
N  N100  1  0.09785581  0.93948216  0.45385343  1  -1.348776  0  -0.376068  -0.5314  0  3.137533  0
N  N101  1  0.64400612  0.56046513  0.54602419  1  -1.348532  0  -0.376795  -0.532501  0  3.138958  0
N  N102  1  0.90228465  0.06060081  0.54613870  1  -1.347225  0  -0.375695  -0.530573  0  3.137401  0
N  N103  1  0.35603925  0.43950772  0.45395004  1  -1.348487  0  -0.376702  -0.532487  0  3.139221  0
N  N104  1  0.75427583  0.87494184  0.35536769  1  -1.221274  0  -0.296267  -0.247555  0  3.438194  0
N  N105  1  0.39918334  0.62490931  0.64453040  1  -1.224267  0  -0.295454  -0.246026  0  3.439163  0
N  N106  1  0.24574308  0.12512853  0.64465362  1  -1.222034  0  -0.295964  -0.24742  0  3.438584  0
N  N107  1  0.60081303  0.37502508  0.35546262  1  -1.223984  0  -0.295476  -0.245865  0  3.438956  0
N  N108  1  0.49520406  0.87739926  0.04674691  1  -0.740636  0  -0.209384  -0.16523  0  3.334673  0
N  N109  1  0.44920078  0.62288421  0.95340823  1  -0.762836  0  -0.208711  -0.163957  0  3.33324  0
N  N110  1  0.50473866  0.12262601  0.95328206  1  -0.741172  0  -0.209408  -0.165394  0  3.33441  0
N  N111  1  0.55076725  0.37714666  0.04660792  1  -0.763254  0  -0.208708  -0.164068  0  3.333355  0
N  N112  1  0.38300055  0.88058936  0.97516968  1  -0.762008  0  -0.216587  -0.184869  0  3.315681  0
N  N113  1  0.40843027  0.61972092  0.02496441  1  -0.763609  0  -0.215562  -0.184251  0  3.315985  0
N  N114  1  0.61694525  0.11942643  0.02485390  1  -0.761385  0  -0.216599  -0.184748  0  3.316715  0
N  N115  1  0.59153611  0.38030838  0.97505096  1  -0.764047  0  -0.215491  -0.183964  0  3.31587  0
N  N116  1  0.12967152  0.88669065  0.66624787  1  -1.218817  0  -0.299722  -0.254867  0  3.424911  0
N  N117  1  0.46362927  0.61304469  0.33378554  1  -1.231434  0  -0.299639  -0.253021  0  3.424659  0
N  N118  1  0.87036281  0.11335402  0.33376687  1  -1.218626  0  -0.299834  -0.25484  0  3.425003  0
N  N119  1  0.53634083  0.38687805  0.66620503  1  -1.230629  0  -0.29948  -0.252838  0  3.424604  0
N  N120  1  0.06982131  0.66076106  0.40824456  1  0.836334  0  0.104465  0.71704  0  4.418449  0
N  N121  1  0.66166071  0.83931163  0.59179054  1  0.822481  0  0.103765  0.71508  0  4.419015  0
N  N122  1  0.93023194  0.33931809  0.59174819  1  0.826367  0  0.103951  0.71685  0  4.418508  0
N  N123  1  0.33841438  0.16061689  0.40812013  1  0.820395  0  0.103686  0.715281  0  4.419778  0
O  O124  1  0.13310376  0.71051983  0.48976116  1  -0.585416  0  -0.176987  -0.484064  0  2.057982  0
O  O125  1  0.64361336  0.78956342  0.51028692  1  -0.586632  0  -0.176962  -0.483757  0  2.058034  0
O  O126  1  0.86691913  0.28953045  0.51024080  1  -0.585732  0  -0.176719  -0.484082  0  2.058384  0
O  O127  1  0.35643050  0.21036579  0.48962204  1  -0.586872  0  -0.176734  -0.483692  0  2.058353  0
O  O128  1  0.12798784  0.59010418  0.36626965  1  -0.533509  0  -0.176222  -0.440755  0  1.982649  0
O  O129  1  0.76175295  0.91003053  0.63381080  1  -0.522278  0  -0.174688  -0.438399  0  1.983278  0
O  O130  1  0.87201782  0.40991968  0.63374439  1  -0.534016  0  -0.176034  -0.440553  0  1.982473  0
O  O131  1  0.23827144  0.08994438  0.36606862  1  -0.522191  0  -0.174796  -0.438447  0  1.982393  0
O  O132  1  0.94889868  0.68426040  0.37116172  1  -0.559346  0  -0.182615  -0.457128  0  1.983693  0
O  O133  1  0.57770111  0.81574749  0.62879949  1  -0.557166  0  -0.183472  -0.458012  0  1.983146  0
O  O134  1  0.05122412  0.31589889  0.62879695  1  -0.548506  0  -0.182582  -0.457158  0  1.983312  0
O  O135  1  0.42246137  0.18413486  0.37114756  1  -0.55481  0  -0.183536  -0.458149  0  1.983839  0
