# generated using pymatgen
data_Cu3H10C12S2IO2
_symmetry_space_group_name_H-M   'P 1'
_cell_length_a   4.06304612
_cell_length_b   5.75303401
_cell_length_c   29.17014911
_cell_angle_alpha   89.99946521
_cell_angle_beta   89.99933385
_cell_angle_gamma   90.00107245
_symmetry_Int_Tables_number   1
_chemical_formula_structural   Cu3H10C12S2IO2
_chemical_formula_sum   'Cu6 H20 C24 S4 I2 O4'
_cell_volume   681.84764233
_cell_formula_units_Z   2
loop_
 _symmetry_equiv_pos_site_id
 _symmetry_equiv_pos_as_xyz
  1  'x, y, z'
loop_
 _atom_site_type_symbol
 _atom_site_label
 _atom_site_symmetry_multiplicity
 _atom_site_fract_x
 _atom_site_fract_y
 _atom_site_fract_z
 _atom_site_occupancy
 _atom_site_hle17_bader_spin_density
 _atom_site_hle17_ddec_charge
 _atom_site_hle17_ddec_spin_density
 _atom_site_hle17_ddec_sum_bond_order
 _atom_site_hle17_magmom
 _atom_site_hse06_10hf_bader_charge
 _atom_site_hse06_10hf_bader_spin_density
 _atom_site_hse06_10hf_ddec_charge
 _atom_site_hse06_10hf_ddec_spin_density
 _atom_site_hse06_10hf_ddec_sum_bond_order
 _atom_site_hse06_10hf_magmom
 _atom_site_hse06_bader_spin_density
 _atom_site_hse06_ddec_charge
 _atom_site_hse06_ddec_spin_density
 _atom_site_hse06_ddec_sum_bond_order
 _atom_site_hse06_magmom
 _atom_site_pbe_bader_spin_density
 _atom_site_pbe_cm5_charge
 _atom_site_pbe_ddec_charge
 _atom_site_pbe_ddec_spin_density
 _atom_site_pbe_ddec_sum_bond_order
 _atom_site_pbe_magmom
Cu  Cu0  1  0.21330935  0.48645669  0.99999838  1  0  0.224892  0  2.316781  0  0.397899  0  0.191812  0  2.760079  0  0  0.194826  0  2.709242  0  0  0.254007  0.190164  0  2.795594  0
Cu  Cu1  1  0.71330537  0.51356704  0.50000154  1  0  0.224969  0  2.316823  0  0.399381  0  0.191851  0  2.760187  0  0  0.194889  0  2.70932  0  0  0.254041  0.190232  0  2.795704  0
Cu  Cu2  1  0.77083907  0.77683753  0.04533062  1  0  0.278271  0  2.208585  0  0.380002  0  0.212119  0  2.694654  0  0  0.224652  0  2.634269  0  0  0.267338  0.204086  0  2.736082  0
Cu  Cu3  1  0.27084224  0.22316890  0.45466746  1  0  0.278337  0  2.208454  0  0.403116  0  0.21221  0  2.694492  0  0  0.224747  0  2.634112  0  0  0.267383  0.204129  0  2.73606  0
Cu  Cu4  1  0.27084335  0.22317197  0.54533138  1  0  0.278322  0  2.208537  0  0.379975  0  0.212157  0  2.694645  0  0  0.224738  0  2.634205  0  0  0.267374  0.204113  0  2.73616  0
Cu  Cu5  1  0.77083036  0.77683513  0.95466742  1  0  0.278291  0  2.208543  0  0.403086  0  0.212158  0  2.694609  0  0  0.22471  0  2.634218  0  0  0.267362  0.204078  0  2.736172  0
H  H6  1  0.60058267  0.74805954  0.15095349  1  0  0.092269  0  0.957729  0  0.074367  0  0.103092  0  1.021923  0  0  0.106082  0  1.019953  0  0  0.095391  0.100845  0  1.023549  0
H  H7  1  0.10057580  0.25195162  0.34904555  1  0  0.09229  0  0.957806  0  0.074452  0  0.103092  0  1.021998  0  0  0.106084  0  1.020024  0  0  0.095377  0.10085  0  1.023623  0
H  H8  1  0.10057787  0.25193927  0.65095728  1  0  0.092276  0  0.957798  0  0.074375  0  0.103112  0  1.021966  0  0  0.106102  0  1.019997  0  0  0.095368  0.100869  0  1.023596  0
H  H9  1  0.60056808  0.74806040  0.84904248  1  0  0.092314  0  0.957787  0  0.074173  0  0.103166  0  1.021923  0  0  0.106157  0  1.019951  0  0  0.095378  0.100912  0  1.023566  0
H  H10  1  0.00937365  0.20502363  0.09152350  1  0  0.085778  0  0.995113  0  0.089821  0  0.094237  0  1.067718  0  0  0.097237  0  1.065758  0  0  0.079221  0.091969  0  1.069272  0
H  H11  1  0.50940934  0.79498635  0.40847637  1  0  0.085757  0  0.995085  0  0.08995  0  0.094208  0  1.067694  0  0  0.097211  0  1.065724  0  0  0.079205  0.091936  0  1.069258  0
H  H12  1  0.50940164  0.79496811  0.59152069  1  0  0.085738  0  0.995072  0  0.089834  0  0.094175  0  1.067707  0  0  0.09716  0  1.065782  0  0  0.079167  0.09191  0  1.069271  0
H  H13  1  0.00938852  0.20502168  0.90847990  1  0  0.085601  0  0.995137  0  0.089887  0  0.094037  0  1.067781  0  0  0.097026  0  1.065847  0  0  0.079128  0.091775  0  1.069341  0
H  H14  1  0.63684250  0.52448211  0.22371709  1  0  0.111615  0  0.977381  0  0.122489  0  0.118243  0  1.045871  0  0  0.121709  0  1.044096  0  0  0.101355  0.115776  0  1.047192  0
H  H15  1  0.13680592  0.47551909  0.27627847  1  0  0.111618  0  0.977485  0  0.122537  0  0.11825  0  1.045939  0  0  0.121706  0  1.04419  0  0  0.101387  0.115786  0  1.047258  0
H  H16  1  0.13682402  0.47551546  0.72371944  1  0  0.111646  0  0.977364  0  0.122551  0  0.118289  0  1.045844  0  0  0.121761  0  1.04405  0  0  0.101375  0.115822  0  1.04717  0
H  H17  1  0.63681434  0.52447251  0.77628095  1  0  0.111618  0  0.977539  0  0.122605  0  0.118303  0  1.045939  0  0  0.12177  0  1.044162  0  0  0.101368  0.115837  0  1.047261  0
H  H18  1  0.04816720  0.98010710  0.16393274  1  0  0.107719  0  0.958681  0  0.05967  0  0.119026  0  1.020026  0  0  0.122159  0  1.018599  0  0  0.100843  0.116787  0  1.021161  0
H  H19  1  0.54817583  0.01989642  0.33606707  1  0  0.107766  0  0.958612  0  0.059624  0  0.119025  0  1.020006  0  0  0.122158  0  1.01858  0  0  0.100855  0.116795  0  1.021122  0
H  H20  1  0.54816942  0.01987997  0.66392998  1  0  0.107722  0  0.958691  0  0.059811  0  0.119014  0  1.020041  0  0  0.122147  0  1.018613  0  0  0.100866  0.116786  0  1.021151  0
H  H21  1  0.04817831  0.98009120  0.83607363  1  0  0.107699  0  0.958712  0  0.059665  0  0.119046  0  1.020007  0  0  0.122179  0  1.018579  0  0  0.100856  0.116812  0  1.021142  0
H  H22  1  0.16517880  0.01820827  0.24520326  1  0  0.384424  0  0.911353  0  0.671883  0  0.355964  0  0.982431  0  0  0.366722  0  0.970848  0  0  0.306954  0.348391  0  0.990525  0
H  H23  1  0.66517338  0.98179156  0.25479465  1  0  0.384452  0  0.911345  0  0.671881  0  0.355996  0  0.982418  0  0  0.366756  0  0.970831  0  0  0.306953  0.348432  0  0.990501  0
H  H24  1  0.66517244  0.98178865  0.74520387  1  0  0.384413  0  0.911277  0  0.671667  0  0.355949  0  0.982363  0  0  0.366705  0  0.970782  0  0  0.306933  0.34838  0  0.990456  0
H  H25  1  0.16518198  0.01819796  0.75479887  1  0  0.384438  0  0.911215  0  0.671894  0  0.355979  0  0.982292  0  0  0.366735  0  0.97071  0  0  0.306972  0.348414  0  0.990383  0
C  C26  1  0.29820900  0.49264705  0.11693220  1  0  0.087277  0  3.74778  0  -0.10103  0  0.10997  0  3.986499  0  0  0.108834  0  4.013455  0  0  -0.025162  0.110429  0  3.968421  0
C  C27  1  0.79821695  0.50736320  0.38306721  1  0  0.087368  0  3.747664  0  -0.100997  0  0.109992  0  3.986455  0  0  0.108848  0  4.013422  0  0  -0.025209  0.110458  0  3.968358  0
C  C28  1  0.79820711  0.50734203  0.61693266  1  0  0.087259  0  3.747751  0  -0.101394  0  0.110009  0  3.986385  0  0  0.108872  0  4.013341  0  0  -0.025147  0.110466  0  3.968325  0
C  C29  1  0.29820386  0.49265848  0.88306576  1  0  0.087261  0  3.747699  0  -0.10112  0  0.109951  0  3.986409  0  0  0.108816  0  4.013365  0  0  -0.025162  0.110415  0  3.968335  0
C  C30  1  0.47784724  0.58036454  0.15413165  1  0  -0.087493  0  3.760925  0  -0.043783  0  -0.10403  0  4.004803  0  0  -0.105211  0  4.026575  0  0  -0.095491  -0.102999  0  3.99005  0
C  C31  1  0.97784364  0.41963589  0.34586850  1  0  -0.087497  0  3.760758  0  -0.043623  0  -0.103989  0  4.004645  0  0  -0.105167  0  4.026413  0  0  -0.095437  -0.102961  0  3.989896  0
C  C32  1  0.97784053  0.41962860  0.65413227  1  0  -0.087499  0  3.760915  0  -0.043454  0  -0.104061  0  4.00478  0  0  -0.105242  0  4.026552  0  0  -0.095468  -0.103035  0  3.990039  0
C  C33  1  0.47781569  0.58037077  0.84586860  1  0  -0.087515  0  3.761093  0  -0.043433  0  -0.104084  0  4.004967  0  0  -0.105265  0  4.02674  0  0  -0.095455  -0.103044  0  3.990228  0
C  C34  1  0.14583011  0.27573956  0.12047622  1  0  -0.081007  0  3.757755  0  -0.053312  0  -0.096007  0  3.995228  0  0  -0.098119  0  4.019918  0  0  -0.097035  -0.094385  0  3.978575  0
C  C35  1  0.64585649  0.72427219  0.37952653  1  0  -0.080838  0  3.75751  0  -0.053552  0  -0.095791  0  3.994963  0  0  -0.097895  0  4.019647  0  0  -0.096934  -0.094163  0  3.978295  0
C  C36  1  0.64583898  0.72425084  0.62047559  1  0  -0.08088  0  3.75757  0  -0.053342  0  -0.095879  0  3.995044  0  0  -0.097991  0  4.019725  0  0  -0.096928  -0.094258  0  3.978405  0
C  C37  1  0.14583265  0.27572682  0.87952582  1  0  -0.080573  0  3.757368  0  -0.053489  0  -0.095544  0  3.994831  0  0  -0.097655  0  4.019513  0  0  -0.096854  -0.093915  0  3.97818  0
C  C38  1  0.49758028  0.45608319  0.19485934  1  0  -0.178653  0  3.753283  0  -0.008189  0  -0.201528  0  4.008863  0  0  -0.206124  0  4.028257  0  0  -0.107723  -0.198471  0  3.995851  0
C  C39  1  0.99757853  0.54392271  0.30513769  1  0  -0.17874  0  3.753111  0  -0.008363  0  -0.201613  0  4.008714  0  0  -0.206207  0  4.028101  0  0  -0.107752  -0.198559  0  3.995705  0
C  C40  1  0.99756460  0.54391523  0.69486076  1  0  -0.17879  0  3.753257  0  -0.008239  0  -0.201697  0  4.00887  0  0  -0.20629  0  4.028267  0  0  -0.107797  -0.198642  0  3.995862  0
C  C41  1  0.49755215  0.45607744  0.80513973  1  0  -0.178798  0  3.75335  0  -0.008259  0  -0.201717  0  4.008928  0  0  -0.206317  0  4.028313  0  0  -0.107758  -0.198656  0  3.995913  0
C  C42  1  0.16573049  0.14988687  0.16126939  1  0  -0.197264  0  3.765409  0  -0.018075  0  -0.215646  0  4.014697  0  0  -0.221489  0  4.036461  0  0  -0.10766  -0.211735  0  4.000053  0
C  C43  1  0.66575630  0.85011471  0.33872990  1  0  -0.19749  0  3.765399  0  -0.017961  0  -0.215836  0  4.014706  0  0  -0.22168  0  4.036471  0  0  -0.107699  -0.211924  0  4.000062  0
C  C44  1  0.66573536  0.85010013  0.66126784  1  0  -0.197317  0  3.765603  0  -0.018093  0  -0.215664  0  4.014847  0  0  -0.221505  0  4.036611  0  0  -0.10769  -0.211752  0  4.000221  0
C  C45  1  0.16573892  0.14986910  0.83873627  1  0  -0.197533  0  3.76554  0  -0.018253  0  -0.215958  0  4.014829  0  0  -0.221805  0  4.036589  0  0  -0.107814  -0.212049  0  4.000204  0
C  C46  1  0.33754460  0.24203674  0.19859465  1  0  0.311695  0  3.809765  0  0.408247  0  0.302959  0  4.070446  0  0  0.312887  0  4.086673  0  0  0.071036  0.296087  0  4.059459  0
C  C47  1  0.83756123  0.75797229  0.30140333  1  0  0.311787  0  3.809835  0  0.407875  0  0.303055  0  4.070508  0  0  0.312982  0  4.086739  0  0  0.071015  0.296183  0  4.059524  0
C  C48  1  0.83753961  0.75795246  0.69859430  1  0  0.311846  0  3.809846  0  0.408159  0  0.303105  0  4.070523  0  0  0.313026  0  4.086755  0  0  0.071098  0.296227  0  4.059542  0
C  C49  1  0.33754633  0.24202596  0.80140645  1  0  0.311897  0  3.80951  0  0.408422  0  0.303162  0  4.07018  0  0  0.313101  0  4.086392  0  0  0.071112  0.296286  0  4.059201  0
S  S50  1  0.26967089  0.67297202  0.06740574  1  0  -0.341028  0  3.208622  0  -0.38399  0  -0.299691  0  3.755492  0  0  -0.306949  0  3.716349  0  0  -0.299451  -0.295037  0  3.782803  0
S  S51  1  0.76968950  0.32704655  0.43259543  1  0  -0.34115  0  3.208611  0  -0.383965  0  -0.299792  0  3.755515  0  0  -0.307066  0  3.716401  0  0  -0.299506  -0.295143  0  3.782869  0
S  S52  1  0.76968629  0.32702598  0.56740619  1  0  -0.341073  0  3.208668  0  -0.384081  0  -0.299754  0  3.755527  0  0  -0.307037  0  3.716411  0  0  -0.299517  -0.295112  0  3.782926  0
S  S53  1  0.26966650  0.67297763  0.93259193  1  0  -0.341053  0  3.208766  0  -0.384049  0  -0.299736  0  3.75568  0  0  -0.307001  0  3.71654  0  0  -0.299458  -0.295085  0  3.783056  0
I  I54  1  0.71821931  0.16574225  0.99999896  1  0  -0.263567  0  2.136162  0  -0.353402  0  -0.20908  0  2.657645  0  0  -0.222025  0  2.601957  0  0  -0.118087  -0.200287  0  2.697788  0
I  I55  1  0.21823778  0.83425895  0.50000096  1  0  -0.263632  0  2.136241  0  -0.35497  0  -0.20912  0  2.657746  0  0  -0.222086  0  2.602056  0  0  -0.118096  -0.200331  0  2.697915  0
O  O56  1  0.35683473  0.12826287  0.24031033  1  0  -0.554274  0  2.193138  0  -1.231861  0  -0.490079  0  2.405406  0  0  -0.5088  0  2.395394  0  0  -0.357593  -0.476678  0  2.411986  0
O  O57  1  0.85682839  0.87173598  0.25968796  1  0  -0.554327  0  2.1931  0  -1.231554  0  -0.490162  0  2.405416  0  0  -0.508871  0  2.395367  0  0  -0.357597  -0.476763  0  2.411985  0
O  O58  1  0.85682787  0.87172635  0.74030909  1  0  -0.554349  0  2.192911  0  -1.231624  0  -0.490159  0  2.405208  0  0  -0.508885  0  2.395213  0  0  -0.357613  -0.476755  0  2.411787  0
O  O59  1  0.35683996  0.12825754  0.75969300  1  0  -0.554282  0  2.19299  0  -1.231846  0  -0.490097  0  2.405272  0  0  -0.508809  0  2.395236  0  0  -0.357625  -0.476696  0  2.411851  0
