# generated using pymatgen
data_Cd2H5C2BrN10O
_symmetry_space_group_name_H-M   'P 1'
_cell_length_a   7.06167988
_cell_length_b   11.27561905
_cell_length_c   13.55459722
_cell_angle_alpha   90.00002259
_cell_angle_beta   89.99993387
_cell_angle_gamma   105.28477143
_symmetry_Int_Tables_number   1
_chemical_formula_structural   Cd2H5C2BrN10O
_chemical_formula_sum   'Cd8 H20 C8 Br4 N40 O4'
_cell_volume   1041.10536610
_cell_formula_units_Z   4
loop_
 _symmetry_equiv_pos_site_id
 _symmetry_equiv_pos_as_xyz
  1  'x, y, z'
loop_
 _atom_site_type_symbol
 _atom_site_label
 _atom_site_symmetry_multiplicity
 _atom_site_fract_x
 _atom_site_fract_y
 _atom_site_fract_z
 _atom_site_occupancy
 _atom_site_hle17_bader_spin_density
 _atom_site_hle17_ddec_charge
 _atom_site_hle17_ddec_spin_density
 _atom_site_hle17_ddec_sum_bond_order
 _atom_site_hle17_magmom
 _atom_site_hse06_10hf_bader_spin_density
 _atom_site_hse06_10hf_ddec_charge
 _atom_site_hse06_10hf_ddec_spin_density
 _atom_site_hse06_10hf_ddec_sum_bond_order
 _atom_site_hse06_10hf_magmom
 _atom_site_hse06_bader_spin_density
 _atom_site_hse06_ddec_charge
 _atom_site_hse06_ddec_spin_density
 _atom_site_hse06_ddec_sum_bond_order
 _atom_site_hse06_magmom
 _atom_site_pbe_bader_spin_density
 _atom_site_pbe_cm5_charge
 _atom_site_pbe_ddec_charge
 _atom_site_pbe_ddec_spin_density
 _atom_site_pbe_ddec_sum_bond_order
 _atom_site_pbe_magmom
Cd  Cd0  1  0.41610062  0.32635228  0.98235962  1  0  0.974121  0  1.903707  0  0  0.791171  0  2.362824  0  0  0.840954  0  2.319876  0  0  0.647678  0.75624  0  2.39173  0
Cd  Cd1  1  0.08389832  0.67364760  0.48235968  1  0  0.974075  0  1.903744  0  0  0.791135  0  2.362846  0  0  0.840916  0  2.319904  0  0  0.647683  0.756207  0  2.39175  0
Cd  Cd2  1  0.58389887  0.67364753  0.01764044  1  0  0.974109  0  1.903702  0  0  0.791158  0  2.362827  0  0  0.840947  0  2.319871  0  0  0.647675  0.756231  0  2.391728  0
Cd  Cd3  1  0.91610258  0.32635222  0.51764113  1  0  0.974096  0  1.903745  0  0  0.791156  0  2.362858  0  0  0.84094  0  2.31991  0  0  0.647674  0.756229  0  2.391769  0
Cd  Cd4  1  0.60537702  0.17905164  0.74607366  1  0  1.033862  0  1.883898  0  0  0.825665  0  2.351955  0  0  0.876093  0  2.305657  0  0  0.766242  0.790057  0  2.38309  0
Cd  Cd5  1  0.89462252  0.82094814  0.24607284  1  0  1.033858  0  1.883884  0  0  0.825668  0  2.351953  0  0  0.876091  0  2.305661  0  0  0.766239  0.790051  0  2.383088  0
Cd  Cd6  1  0.39462247  0.82094817  0.25392641  1  0  1.033849  0  1.883896  0  0  0.825678  0  2.351928  0  0  0.876105  0  2.305633  0  0  0.766235  0.790064  0  2.38306  0
Cd  Cd7  1  0.10537696  0.17905168  0.75392723  1  0  1.033822  0  1.8839  0  0  0.82561  0  2.351966  0  0  0.876035  0  2.305671  0  0  0.766236  0.789998  0  2.383102  0
H  H8  1  0.33501045  0.10797519  0.88999759  1  0  0.386608  0  0.903513  0  0  0.352518  0  0.988855  0  0  0.362389  0  0.978379  0  0  0.272568  0.345589  0  0.995235  0
H  H9  1  0.16498829  0.89202376  0.38999767  1  0  0.386613  0  0.903513  0  0  0.352529  0  0.988846  0  0  0.362401  0  0.978364  0  0  0.272572  0.3456  0  0.99523  0
H  H10  1  0.66498864  0.89202371  0.11000174  1  0  0.386613  0  0.903515  0  0  0.352528  0  0.98885  0  0  0.3624  0  0.978367  0  0  0.272565  0.345598  0  0.995233  0
H  H11  1  0.83501222  0.10797513  0.61000240  1  0  0.3866  0  0.903521  0  0  0.352509  0  0.988865  0  0  0.362381  0  0.978392  0  0  0.272568  0.345581  0  0.995248  0
H  H12  1  0.71368894  0.08723240  0.16520648  1  0  0.325488  0  0.8883  0  0  0.311547  0  0.949639  0  0  0.317028  0  0.945489  0  0  0.307806  0.307619  0  0.952753  0
H  H13  1  0.78630937  0.91276738  0.66520670  1  0  0.325461  0  0.88831  0  0  0.311521  0  0.949649  0  0  0.317003  0  0.945498  0  0  0.307804  0.307593  0  0.95276  0
H  H14  1  0.28630954  0.91276834  0.83479285  1  0  0.325522  0  0.888259  0  0  0.311581  0  0.949592  0  0  0.317063  0  0.945441  0  0  0.307843  0.307652  0  0.952704  0
H  H15  1  0.21368870  0.08723244  0.33479337  1  0  0.325494  0  0.88829  0  0  0.311554  0  0.949628  0  0  0.317036  0  0.945478  0  0  0.307808  0.307627  0  0.952739  0
H  H16  1  0.69922279  0.15941794  0.05831730  1  0  0.315649  0  0.92323  0  0  0.30104  0  0.986956  0  0  0.306176  0  0.983667  0  0  0.29973  0.297437  0  0.989302  0
H  H17  1  0.80077575  0.84058182  0.55831822  1  0  0.315619  0  0.923241  0  0  0.301003  0  0.986986  0  0  0.306139  0  0.983698  0  0  0.299725  0.297402  0  0.989333  0
H  H18  1  0.30077529  0.84058188  0.94168129  1  0  0.315615  0  0.923257  0  0  0.300997  0  0.987006  0  0  0.306132  0  0.983718  0  0  0.299723  0.297394  0  0.989353  0
H  H19  1  0.19922232  0.15941800  0.44168259  1  0  0.315646  0  0.923192  0  0  0.301058  0  0.986894  0  0  0.306193  0  0.983607  0  0  0.29974  0.297457  0  0.989242  0
H  H20  1  0.08197584  0.40336523  0.14536474  1  0  0.33427  0  0.898066  0  0  0.314403  0  0.970635  0  0  0.321156  0  0.96493  0  0  0.288828  0.309399  0  0.975011  0
H  H21  1  0.41802422  0.59663553  0.64536404  1  0  0.334252  0  0.898085  0  0  0.314384  0  0.970655  0  0  0.321138  0  0.964946  0  0  0.288821  0.309381  0  0.975031  0
H  H22  1  0.91802404  0.59663551  0.85463532  1  0  0.334235  0  0.898092  0  0  0.314347  0  0.970678  0  0  0.321099  0  0.964974  0  0  0.288818  0.309345  0  0.975053  0
H  H23  1  0.58197747  0.40336612  0.35463603  1  0  0.334253  0  0.89809  0  0  0.31439  0  0.970654  0  0  0.321143  0  0.964948  0  0  0.288822  0.309386  0  0.975029  0
H  H24  1  0.83958673  0.41018802  0.14529000  1  0  0.331153  0  0.903455  0  0  0.310463  0  0.977966  0  0  0.317359  0  0.971995  0  0  0.286219  0.305334  0  0.982615  0
H  H25  1  0.66041485  0.58981266  0.64529019  1  0  0.331139  0  0.90348  0  0  0.310449  0  0.977986  0  0  0.317345  0  0.972014  0  0  0.286215  0.305321  0  0.982637  0
H  H26  1  0.16041418  0.58981179  0.85470933  1  0  0.33114  0  0.903455  0  0  0.310447  0  0.977969  0  0  0.317343  0  0.971998  0  0  0.286217  0.305319  0  0.982618  0
H  H27  1  0.33958606  0.41018715  0.35470988  1  0  0.331167  0  0.903442  0  0  0.310474  0  0.977958  0  0  0.31737  0  0.971986  0  0  0.286215  0.305346  0  0.982608  0
C  C28  1  0.43685989  0.07505685  0.11758434  1  0  0.547182  0  3.838091  0  0  0.499975  0  4.120374  0  0  0.520835  0  4.131279  0  0  0.31494  0.4859  0  4.112803  0
C  C29  1  0.06313882  0.92494392  0.61758469  1  0  0.547186  0  3.838143  0  0  0.500041  0  4.120353  0  0  0.520914  0  4.131237  0  0  0.314961  0.485964  0  4.112781  0
C  C30  1  0.56313818  0.92494298  0.88241499  1  0  0.547261  0  3.838058  0  0  0.500036  0  4.120366  0  0  0.520909  0  4.131253  0  0  0.314974  0.485961  0  4.112794  0
C  C31  1  0.93685965  0.07505683  0.38241537  1  0  0.547243  0  3.838019  0  0  0.50005  0  4.120282  0  0  0.520907  0  4.131191  0  0  0.314969  0.485974  0  4.112712  0
C  C32  1  0.93317079  0.34933777  0.01734740  1  0  0.555526  0  3.844866  0  0  0.508783  0  4.13116  0  0  0.530639  0  4.140653  0  0  0.323852  0.493989  0  4.124416  0
C  C33  1  0.56683004  0.65066382  0.51734692  1  0  0.555415  0  3.844869  0  0  0.508644  0  4.131214  0  0  0.530501  0  4.140708  0  0  0.32382  0.493849  0  4.124473  0
C  C34  1  0.06682988  0.65066481  0.98265120  1  0  0.555442  0  3.844942  0  0  0.508718  0  4.131199  0  0  0.530574  0  4.140692  0  0  0.323796  0.493923  0  4.124458  0
C  C35  1  0.43317267  0.34933690  0.48265315  1  0  0.555418  0  3.844877  0  0  0.508747  0  4.131086  0  0  0.530602  0  4.14058  0  0  0.323839  0.493953  0  4.124345  0
Br  Br36  1  0.51122608  0.52904408  0.85269882  1  0  -0.524918  0  1.012236  0  0  -0.46498  0  1.324293  0  0  -0.484918  0  1.300121  0  0  -0.25062  -0.450521  0  1.341102  0
Br  Br37  1  0.98878171  0.47095568  0.35270078  1  0  -0.524923  0  1.012255  0  0  -0.464982  0  1.324304  0  0  -0.484913  0  1.300118  0  0  -0.250622  -0.450521  0  1.341113  0
Br  Br38  1  0.48877663  0.47095664  0.14730051  1  0  -0.524913  0  1.012235  0  0  -0.464977  0  1.324297  0  0  -0.484907  0  1.30011  0  0  -0.250617  -0.450519  0  1.341104  0
Br  Br39  1  0.01122909  0.52904409  0.64730150  1  0  -0.524906  0  1.012235  0  0  -0.464975  0  1.324299  0  0  -0.484914  0  1.300127  0  0  -0.250613  -0.450514  0  1.34111  0
N  N40  1  0.32749208  0.14458654  0.07776173  1  0  -0.407838  0  3.106684  0  0  -0.339387  0  3.396163  0  0  -0.360187  0  3.40768  0  0  -0.253161  -0.325407  0  3.388036  0
N  N41  1  0.17250632  0.85541330  0.57776200  1  0  -0.407843  0  3.106795  0  0  -0.339413  0  3.396259  0  0  -0.360216  0  3.40777  0  0  -0.253162  -0.325433  0  3.388131  0
N  N42  1  0.67250458  0.85541329  0.92223760  1  0  -0.407917  0  3.106803  0  0  -0.339464  0  3.396295  0  0  -0.360267  0  3.407807  0  0  -0.253197  -0.325485  0  3.388167  0
N  N43  1  0.82749175  0.14458652  0.42223807  1  0  -0.407877  0  3.106699  0  0  -0.339436  0  3.39618  0  0  -0.360235  0  3.407698  0  0  -0.25317  -0.325458  0  3.388058  0
N  N44  1  0.13961544  0.09323557  0.10645094  1  0  -0.049221  0  2.928549  0  0  -0.057315  0  3.219694  0  0  -0.051084  0  3.229545  0  0  -0.106592  -0.061253  0  3.213091  0
N  N45  1  0.36038148  0.90676428  0.60645111  1  0  -0.04921  0  2.928716  0  0  -0.0573  0  3.219857  0  0  -0.051073  0  3.229715  0  0  -0.106597  -0.061239  0  3.213254  0
N  N46  1  0.86038082  0.90676334  0.89354839  1  0  -0.049208  0  2.928706  0  0  -0.057298  0  3.21984  0  0  -0.05107  0  3.229698  0  0  -0.106585  -0.061236  0  3.213236  0
N  N47  1  0.63961518  0.09323555  0.39354896  1  0  -0.049218  0  2.92857  0  0  -0.057308  0  3.219712  0  0  -0.051077  0  3.229564  0  0  -0.106597  -0.061245  0  3.213109  0
N  N48  1  0.13770542  0.99797507  0.16183230  1  0  -0.13061  0  3.165674  0  0  -0.092602  0  3.466668  0  0  -0.098044  0  3.480373  0  0  -0.11973  -0.088834  0  3.457384  0
N  N49  1  0.36229240  0.00202386  0.66183217  1  0  -0.130674  0  3.165686  0  0  -0.092681  0  3.466693  0  0  -0.098126  0  3.480398  0  0  -0.119749  -0.088914  0  3.45741  0
N  N50  1  0.86229368  0.00202383  0.83816703  1  0  -0.130617  0  3.165613  0  0  -0.092613  0  3.4666  0  0  -0.098055  0  3.480303  0  0  -0.119725  -0.088846  0  3.457317  0
N  N51  1  0.63770528  0.99797505  0.33816790  1  0  -0.130628  0  3.16568  0  0  -0.092624  0  3.466679  0  0  -0.098068  0  3.480382  0  0  -0.119736  -0.088853  0  3.457388  0
N  N52  1  0.32139096  0.98350749  0.17013791  1  0  -0.422336  0  3.168405  0  0  -0.359132  0  3.447676  0  0  -0.380028  0  3.463769  0  0  -0.26946  -0.344821  0  3.436446  0
N  N53  1  0.17860724  0.01649235  0.67013716  1  0  -0.422345  0  3.168419  0  0  -0.359142  0  3.447647  0  0  -0.380041  0  3.463734  0  0  -0.269488  -0.344831  0  3.436417  0
N  N54  1  0.67860711  0.01649233  0.82986216  1  0  -0.422365  0  3.168332  0  0  -0.359145  0  3.447596  0  0  -0.380044  0  3.463683  0  0  -0.269492  -0.344835  0  3.436369  0
N  N55  1  0.82139084  0.98350747  0.32986217  1  0  -0.422326  0  3.168389  0  0  -0.359124  0  3.44765  0  0  -0.380019  0  3.463745  0  0  -0.269454  -0.344811  0  3.436416  0
N  N56  1  0.63400270  0.08755204  0.10264618  1  0  -0.685397  0  3.034531  0  0  -0.652178  0  3.268348  0  0  -0.66872  0  3.263825  0  0  -0.588516  -0.640644  0  3.271416  0
N  N57  1  0.86599756  0.91244864  0.60264708  1  0  -0.685299  0  3.034563  0  0  -0.652095  0  3.26834  0  0  -0.668641  0  3.263814  0  0  -0.588481  -0.640562  0  3.271406  0
N  N58  1  0.36599577  0.91244870  0.89735241  1  0  -0.685381  0  3.034508  0  0  -0.652139  0  3.268313  0  0  -0.668684  0  3.263786  0  0  -0.588526  -0.640606  0  3.271379  0
N  N59  1  0.13400193  0.08755117  0.39735298  1  0  -0.685437  0  3.034463  0  0  -0.652237  0  3.268254  0  0  -0.668777  0  3.263732  0  0  -0.588541  -0.640702  0  3.271322  0
N  N60  1  0.76518966  0.32825043  0.96329883  1  0  -0.405406  0  3.043216  0  0  -0.34851  0  3.320839  0  0  -0.366922  0  3.333352  0  0  -0.24825  -0.336152  0  3.312261  0
N  N61  1  0.73480941  0.67174938  0.46329805  1  0  -0.405302  0  3.043188  0  0  -0.348391  0  3.320809  0  0  -0.366802  0  3.333324  0  0  -0.24822  -0.336036  0  3.312231  0
N  N62  1  0.23480841  0.67174939  0.03670124  1  0  -0.405357  0  3.043256  0  0  -0.34846  0  3.320868  0  0  -0.366871  0  3.333382  0  0  -0.248203  -0.336103  0  3.312288  0
N  N63  1  0.26519290  0.32825043  0.53670202  1  0  -0.40551  0  3.043383  0  0  -0.348663  0  3.321022  0  0  -0.367073  0  3.333534  0  0  -0.248342  -0.336305  0  3.312446  0
N  N64  1  0.81622618  0.30024212  0.87204711  1  0  -0.090948  0  3.187519  0  0  -0.05663  0  3.479418  0  0  -0.059097  0  3.493747  0  0  -0.116428  -0.054593  0  3.469356  0
N  N65  1  0.68377310  0.69975768  0.37204711  1  0  -0.09103  0  3.1876  0  0  -0.056714  0  3.479508  0  0  -0.059181  0  3.49384  0  0  -0.116488  -0.054673  0  3.469439  0
N  N66  1  0.18377331  0.69975770  0.12795296  1  0  -0.091035  0  3.187595  0  0  -0.05672  0  3.479505  0  0  -0.05919  0  3.493839  0  0  -0.116497  -0.054682  0  3.469439  0
N  N67  1  0.31622820  0.30024305  0.62795369  1  0  -0.090737  0  3.187419  0  0  -0.056388  0  3.47927  0  0  -0.058856  0  3.493602  0  0  -0.116318  -0.054348  0  3.469203  0
N  N68  1  0.00145811  0.30230309  0.87080350  1  0  -0.09857  0  3.222909  0  0  -0.055994  0  3.515427  0  0  -0.060576  0  3.530705  0  0  -0.121412  -0.05254  0  3.50477  0
N  N69  1  0.49854429  0.69769768  0.37080405  1  0  -0.098553  0  3.22299  0  0  -0.055993  0  3.515527  0  0  -0.060575  0  3.530808  0  0  -0.121371  -0.052538  0  3.504865  0
N  N70  1  0.99854358  0.69769856  0.12919583  1  0  -0.098535  0  3.222968  0  0  -0.055973  0  3.515503  0  0  -0.060554  0  3.530785  0  0  -0.121378  -0.052519  0  3.504843  0
N  N71  1  0.50145842  0.30230304  0.62919676  1  0  -0.098673  0  3.222965  0  0  -0.056111  0  3.515505  0  0  -0.060693  0  3.530784  0  0  -0.12144  -0.052655  0  3.504845  0
N  N72  1  0.08148437  0.33232969  0.96063794  1  0  -0.378075  0  3.052652  0  0  -0.324448  0  3.336174  0  0  -0.343667  0  3.350258  0  0  -0.246414  -0.311532  0  3.326511  0
N  N73  1  0.41851682  0.66767202  0.46063706  1  0  -0.377986  0  3.05259  0  0  -0.324348  0  3.336126  0  0  -0.343566  0  3.35021  0  0  -0.246399  -0.311433  0  3.326465  0
N  N74  1  0.91851631  0.66767288  0.03936286  1  0  -0.378032  0  3.052574  0  0  -0.324407  0  3.33609  0  0  -0.343628  0  3.350176  0  0  -0.246412  -0.311493  0  3.326428  0
N  N75  1  0.58148629  0.33232963  0.53936301  1  0  -0.377977  0  3.052563  0  0  -0.324372  0  3.336068  0  0  -0.343591  0  3.350154  0  0  -0.246401  -0.311455  0  3.326406  0
N  N76  1  0.94599854  0.37624309  0.11453435  1  0  -0.692451  0  3.09545  0  0  -0.659774  0  3.334456  0  0  -0.679196  0  3.330296  0  0  -0.587973  -0.64605  0  3.337542  0
N  N77  1  0.55400310  0.62375759  0.61453535  1  0  -0.692404  0  3.095427  0  0  -0.659721  0  3.334461  0  0  -0.679141  0  3.330297  0  0  -0.587959  -0.645995  0  3.337549  0
N  N78  1  0.05400276  0.62375764  0.88546572  1  0  -0.692356  0  3.095565  0  0  -0.65966  0  3.334603  0  0  -0.679079  0  3.330443  0  0  -0.587933  -0.645938  0  3.337692  0
N  N79  1  0.44599961  0.37624313  0.38546546  1  0  -0.692413  0  3.095392  0  0  -0.659759  0  3.334367  0  0  -0.67918  0  3.330206  0  0  -0.587945  -0.646032  0  3.337453  0
O  O80  1  0.36340392  0.18630574  0.85428056  1  0  -0.918074  0  1.892492  0  0  -0.804604  0  2.168771  0  0  -0.840183  0  2.142407  0  0  -0.599304  -0.779207  0  2.184981  0
O  O81  1  0.13659530  0.81369412  0.35428063  1  0  -0.918055  0  1.892447  0  0  -0.804603  0  2.168731  0  0  -0.84018  0  2.142361  0  0  -0.599313  -0.779206  0  2.184943  0
O  O82  1  0.63659597  0.81369499  0.14571951  1  0  -0.918073  0  1.892492  0  0  -0.804617  0  2.168776  0  0  -0.840195  0  2.142405  0  0  -0.599297  -0.77922  0  2.184987  0
O  O83  1  0.86340419  0.18630570  0.64571944  1  0  -0.918042  0  1.892478  0  0  -0.804573  0  2.168751  0  0  -0.840151  0  2.142388  0  0  -0.599295  -0.779176  0  2.184965  0
