# generated using pymatgen
data_CuH12C14(SN2)2
_symmetry_space_group_name_H-M   'P 1'
_cell_length_a   7.71045044
_cell_length_b   13.85583064
_cell_length_c   14.06057824
_cell_angle_alpha   104.64818554
_cell_angle_beta   89.99999812
_cell_angle_gamma   90.00010652
_symmetry_Int_Tables_number   1
_chemical_formula_structural   CuH12C14(SN2)2
_chemical_formula_sum   'Cu4 H48 C56 S8 N16'
_cell_volume   1453.33272339
_cell_formula_units_Z   4
loop_
 _symmetry_equiv_pos_site_id
 _symmetry_equiv_pos_as_xyz
  1  'x, y, z'
loop_
 _atom_site_type_symbol
 _atom_site_label
 _atom_site_symmetry_multiplicity
 _atom_site_fract_x
 _atom_site_fract_y
 _atom_site_fract_z
 _atom_site_occupancy
 _atom_site_hle17_bader_spin_density
 _atom_site_hle17_ddec_charge
 _atom_site_hle17_ddec_spin_density
 _atom_site_hle17_ddec_sum_bond_order
 _atom_site_hle17_magmom
 _atom_site_hse06_10hf_bader_spin_density
 _atom_site_hse06_10hf_ddec_charge
 _atom_site_hse06_10hf_ddec_spin_density
 _atom_site_hse06_10hf_ddec_sum_bond_order
 _atom_site_hse06_10hf_magmom
 _atom_site_hse06_bader_spin_density
 _atom_site_hse06_ddec_charge
 _atom_site_hse06_ddec_spin_density
 _atom_site_hse06_ddec_sum_bond_order
 _atom_site_hse06_magmom
 _atom_site_pbe_bader_spin_density
 _atom_site_pbe_cm5_charge
 _atom_site_pbe_ddec_charge
 _atom_site_pbe_ddec_spin_density
 _atom_site_pbe_ddec_sum_bond_order
 _atom_site_pbe_magmom
Cu  Cu0  1  0.08905773  0.40673542  0.75177662  1  0  0.413959  0  2.278598  0  0  0.32493  0  2.803141  0  0  0.313875  0  2.766646  0  0  0.473073  0.3375  0  2.823154  0
Cu  Cu1  1  0.58905781  0.09326696  0.74822210  1  0  0.414013  0  2.278485  0  0  0.325017  0  2.803026  0  0  0.313968  0  2.766541  0  0  0.473086  0.337559  0  2.82296  0
Cu  Cu2  1  0.91094132  0.59326616  0.24822573  1  0  0.413931  0  2.278633  0  0  0.324882  0  2.803185  0  0  0.313823  0  2.766689  0  0  0.473078  0.337446  0  2.823205  0
Cu  Cu3  1  0.41094385  0.90673303  0.25177634  1  0  0.413993  0  2.278608  0  0  0.32493  0  2.803164  0  0  0.313893  0  2.766663  0  0  0.473062  0.337514  0  2.82313  0
H  H4  1  0.03663175  0.55449665  0.62991631  1  0  0.07502  0  0.938112  0  0  0.085809  0  0.998695  0  0  0.088345  0  0.996602  0  0  0.109631  0.08384  0  1.000482  0
H  H5  1  0.53662915  0.94550553  0.87008431  1  0  0.07504  0  0.938151  0  0  0.085832  0  0.998719  0  0  0.088366  0  0.99663  0  0  0.109622  0.083855  0  1.000498  0
H  H6  1  0.96336990  0.44550886  0.37009403  1  0  0.07498  0  0.938258  0  0  0.085753  0  0.998858  0  0  0.088285  0  0.996773  0  0  0.109623  0.083766  0  1.000639  0
H  H7  1  0.46337380  0.05449601  0.12991660  1  0  0.075008  0  0.938109  0  0  0.085799  0  0.998679  0  0  0.088333  0  0.996588  0  0  0.10961  0.083828  0  1.000465  0
H  H8  1  0.22087411  0.67064391  0.56555170  1  0  0.105299  0  0.988512  0  0  0.109872  0  1.060695  0  0  0.113002  0  1.059601  0  0  0.100528  0.107661  0  1.06144  0
H  H9  1  0.72086980  0.82935699  0.93444936  1  0  0.105327  0  0.988501  0  0  0.109893  0  1.060711  0  0  0.113021  0  1.059619  0  0  0.10056  0.107691  0  1.061452  0
H  H10  1  0.77912754  0.32935698  0.43445263  1  0  0.105246  0  0.988572  0  0  0.109805  0  1.060769  0  0  0.112931  0  1.059683  0  0  0.100523  0.107607  0  1.0615  0
H  H11  1  0.27913315  0.17064455  0.06555156  1  0  0.105322  0  0.988481  0  0  0.109891  0  1.060673  0  0  0.113013  0  1.05958  0  0  0.100553  0.107691  0  1.061393  0
H  H12  1  0.66698658  0.53275443  0.66375702  1  0  0.102274  0  0.989066  0  0  0.109616  0  1.055747  0  0  0.112308  0  1.05538  0  0  0.099168  0.107553  0  1.056297  0
H  H13  1  0.16698542  0.96724335  0.83624048  1  0  0.102292  0  0.989099  0  0  0.109647  0  1.055756  0  0  0.112341  0  1.055384  0  0  0.099159  0.107587  0  1.056312  0
H  H14  1  0.33301507  0.46724102  0.33623826  1  0  0.102274  0  0.989111  0  0  0.109634  0  1.055746  0  0  0.112333  0  1.055367  0  0  0.099165  0.107571  0  1.056292  0
H  H15  1  0.83301494  0.03275584  0.16375564  1  0  0.102292  0  0.98907  0  0  0.10963  0  1.055734  0  0  0.112326  0  1.055361  0  0  0.099164  0.107573  0  1.056287  0
H  H16  1  0.46594236  0.42397411  0.72419616  1  0  0.08076  0  0.935194  0  0  0.089009  0  1.000169  0  0  0.091682  0  0.997914  0  0  0.113191  0.086837  0  1.002119  0
H  H17  1  0.96594237  0.07602493  0.77580181  1  0  0.080729  0  0.935218  0  0  0.088972  0  1.000202  0  0  0.091644  0  0.997948  0  0  0.11317  0.086784  0  1.002142  0
H  H18  1  0.53405929  0.57602368  0.27580320  1  0  0.080745  0  0.935216  0  0  0.088994  0  1.000194  0  0  0.091666  0  0.99794  0  0  0.113173  0.086806  0  1.002141  0
H  H19  1  0.03405798  0.92397429  0.22419574  1  0  0.080757  0  0.935189  0  0  0.089003  0  1.000168  0  0  0.091675  0  0.997915  0  0  0.113187  0.086821  0  1.002108  0
H  H20  1  0.97798314  0.79489925  0.61649273  1  0  0.115227  0  0.967483  0  0  0.120788  0  1.034217  0  0  0.124749  0  1.030247  0  0  0.12709  0.117878  0  1.037086  0
H  H21  1  0.47797716  0.70510041  0.88350734  1  0  0.115141  0  0.967617  0  0  0.120858  0  1.034186  0  0  0.124827  0  1.030207  0  0  0.127088  0.117939  0  1.037054  0
H  H22  1  0.02201851  0.20509935  0.38350895  1  0  0.115206  0  0.967539  0  0  0.120856  0  1.034157  0  0  0.124821  0  1.030203  0  0  0.127084  0.117938  0  1.037027  0
H  H23  1  0.52202060  0.29489815  0.11649291  1  0  0.115212  0  0.967532  0  0  0.120839  0  1.034195  0  0  0.124808  0  1.030222  0  0  0.127098  0.117921  0  1.037059  0
H  H24  1  0.77622042  0.68822062  0.68786798  1  0  0.12863  0  0.971836  0  0  0.134969  0  1.034138  0  0  0.13893  0  1.032711  0  0  0.112024  0.132104  0  1.035287  0
H  H25  1  0.27621482  0.81177731  0.81213098  1  0  0.128619  0  0.97184  0  0  0.134939  0  1.034142  0  0  0.138898  0  1.032721  0  0  0.112024  0.13207  0  1.03529  0
H  H26  1  0.22377864  0.31177644  0.31213193  1  0  0.12863  0  0.971847  0  0  0.134964  0  1.034149  0  0  0.138923  0  1.032724  0  0  0.112022  0.132091  0  1.035296  0
H  H27  1  0.72378553  0.18822121  0.18786783  1  0  0.128605  0  0.971851  0  0  0.13493  0  1.034161  0  0  0.13889  0  1.032736  0  0  0.11202  0.132062  0  1.035304  0
H  H28  1  0.40989296  0.70236788  0.45853807  1  0  0.108338  0  1.001071  0  0  0.116602  0  1.064943  0  0  0.118887  0  1.066132  0  0  0.101531  0.114793  0  1.064446  0
H  H29  1  0.90988728  0.79763347  0.04146163  1  0  0.108378  0  1.001057  0  0  0.116654  0  1.06491  0  0  0.118939  0  1.066098  0  0  0.101553  0.114844  0  1.064425  0
H  H30  1  0.59010999  0.29763290  0.54146196  1  0  0.108375  0  1.001062  0  0  0.116657  0  1.064902  0  0  0.118942  0  1.066089  0  0  0.101555  0.114845  0  1.064422  0
H  H31  1  0.09011048  0.20236648  0.95853537  1  0  0.108336  0  1.001061  0  0  0.116609  0  1.064929  0  0  0.118896  0  1.066114  0  0  0.10153  0.114795  0  1.064448  0
H  H32  1  0.62071222  0.81047221  0.39880462  1  0  0.107255  0  0.945917  0  0  0.11108  0  1.017421  0  0  0.114598  0  1.013449  0  0  0.126304  0.108107  0  1.02079  0
H  H33  1  0.12070751  0.68952813  0.10119628  1  0  0.107312  0  0.945891  0  0  0.111096  0  1.017426  0  0  0.114615  0  1.013455  0  0  0.126334  0.10813  0  1.020809  0
H  H34  1  0.37929203  0.18952937  0.60119773  1  0  0.107323  0  0.945909  0  0  0.111118  0  1.01744  0  0  0.114636  0  1.013468  0  0  0.126342  0.108143  0  1.020818  0
H  H35  1  0.87928766  0.31047186  0.89880215  1  0  0.107318  0  0.945943  0  0  0.111103  0  1.017454  0  0  0.114622  0  1.013483  0  0  0.126354  0.108135  0  1.02084  0
H  H36  1  0.89321000  0.85602143  0.38720115  1  0  0.08848  0  0.918918  0  0  0.104316  0  0.97961  0  0  0.104651  0  0.980321  0  0  0.114963  0.103743  0  0.979443  0
H  H37  1  0.39320642  0.64397771  0.11279948  1  0  0.088434  0  0.918862  0  0  0.104319  0  0.979539  0  0  0.104655  0  0.980249  0  0  0.114961  0.103742  0  0.979379  0
H  H38  1  0.10679295  0.14397864  0.61280014  1  0  0.088495  0  0.918841  0  0  0.104357  0  0.979518  0  0  0.104693  0  0.980227  0  0  0.114981  0.103782  0  0.979355  0
H  H39  1  0.60678874  0.35601930  0.88719829  1  0  0.088486  0  0.918862  0  0  0.104337  0  0.979542  0  0  0.104672  0  0.980252  0  0  0.114965  0.103761  0  0.979389  0
H  H40  1  0.05806808  0.82850543  0.46437763  1  0  0.08259  0  0.952604  0  0  0.09577  0  1.017486  0  0  0.095776  0  1.018919  0  0  0.107478  0.095469  0  1.016703  0
H  H41  1  0.55806714  0.67149406  0.03562165  1  0  0.082556  0  0.952623  0  0  0.095762  0  1.017507  0  0  0.095767  0  1.018942  0  0  0.1075  0.095472  0  1.016721  0
H  H42  1  0.94193487  0.17149463  0.53562367  1  0  0.082585  0  0.95266  0  0  0.095778  0  1.017549  0  0  0.095784  0  1.018982  0  0  0.107489  0.095474  0  1.016769  0
H  H43  1  0.44192802  0.32850301  0.96437826  1  0  0.082641  0  0.952509  0  0  0.095809  0  1.017402  0  0  0.095814  0  1.018837  0  0  0.107506  0.095522  0  1.016609  0
H  H44  1  0.96880371  0.97495749  0.59921549  1  0  0.074968  0  0.938766  0  0  0.092385  0  1.001931  0  0  0.092735  0  1.002915  0  0  0.092711  0.092053  0  1.001367  0
H  H45  1  0.46879580  0.52504135  0.90078226  1  0  0.074993  0  0.938753  0  0  0.092449  0  1.001847  0  0  0.092798  0  1.002833  0  0  0.092722  0.092114  0  1.001295  0
H  H46  1  0.03120184  0.02504181  0.40078492  1  0  0.074949  0  0.938747  0  0  0.092405  0  1.001875  0  0  0.092755  0  1.002859  0  0  0.09269  0.092064  0  1.001306  0
H  H47  1  0.53119547  0.47495862  0.09921546  1  0  0.074916  0  0.938777  0  0  0.092379  0  1.001889  0  0  0.092728  0  1.002873  0  0  0.0927  0.092045  0  1.001322  0
H  H48  1  0.80386612  0.00433213  0.52261613  1  0  0.080926  0  0.958885  0  0  0.095439  0  1.024628  0  0  0.096761  0  1.025098  0  0  0.084074  0.094314  0  1.024429  0
H  H49  1  0.30385986  0.49566757  0.97738483  1  0  0.080976  0  0.958807  0  0  0.09547  0  1.024556  0  0  0.096791  0  1.025026  0  0  0.084103  0.094339  0  1.024365  0
H  H50  1  0.19613683  0.99566723  0.47738643  1  0  0.080948  0  0.95882  0  0  0.095447  0  1.024592  0  0  0.096768  0  1.025062  0  0  0.084063  0.094316  0  1.02439  0
H  H51  1  0.69613401  0.50433317  0.02261377  1  0  0.080941  0  0.958812  0  0  0.09545  0  1.024578  0  0  0.09677  0  1.025051  0  0  0.084084  0.094324  0  1.024388  0
C  C52  1  0.76617099  0.26872835  0.68636735  1  0  0.271169  0  3.99725  0  0  0.265286  0  4.291426  0  0  0.281844  0  4.304749  0  0  0.135269  0.25438  0  4.281647  0
C  C53  1  0.26616640  0.23127200  0.81363162  1  0  0.271161  0  3.997122  0  0  0.265285  0  4.291294  0  0  0.281842  0  4.304618  0  0  0.135303  0.254398  0  4.281508  0
C  C54  1  0.23382937  0.73127321  0.31363428  1  0  0.271173  0  3.997115  0  0  0.265294  0  4.291286  0  0  0.28185  0  4.304611  0  0  0.13525  0.254383  0  4.281522  0
C  C55  1  0.73383265  0.76872801  0.18636753  1  0  0.271174  0  3.997185  0  0  0.265288  0  4.291363  0  0  0.281845  0  4.304689  0  0  0.135289  0.254397  0  4.281596  0
C  C56  1  0.83646316  0.59192711  0.85438909  1  0  0.25793  0  4.023527  0  0  0.252159  0  4.323311  0  0  0.269979  0  4.341265  0  0  0.119391  0.240047  0  4.309591  0
C  C57  1  0.33645791  0.90807161  0.64560934  1  0  0.257993  0  4.023499  0  0  0.252221  0  4.32326  0  0  0.270041  0  4.341209  0  0  0.119391  0.240109  0  4.309507  0
C  C58  1  0.16353849  0.40807513  0.14561056  1  0  0.258066  0  4.023288  0  0  0.25229  0  4.323071  0  0  0.270111  0  4.341024  0  0  0.119363  0.240185  0  4.309312  0
C  C59  1  0.66353596  0.09192765  0.35438964  1  0  0.257913  0  4.023669  0  0  0.252133  0  4.32345  0  0  0.269955  0  4.341401  0  0  0.119349  0.24001  0  4.309684  0
C  C60  1  0.17760665  0.55212279  0.63563328  1  0  0.108071  0  3.707452  0  0  0.083106  0  3.955244  0  0  0.088467  0  3.970515  0  0  0.032968  0.079517  0  3.945564  0
C  C61  1  0.67760536  0.94787954  0.86436738  1  0  0.107965  0  3.707687  0  0  0.083012  0  3.955489  0  0  0.088374  0  3.97076  0  0  0.032949  0.079419  0  3.945807  0
C  C62  1  0.82239241  0.44788112  0.36437315  1  0  0.107991  0  3.707699  0  0  0.082987  0  3.955518  0  0  0.088346  0  3.970784  0  0  0.03294  0.079397  0  3.945825  0
C  C63  1  0.32239759  0.05212126  0.13563337  1  0  0.108054  0  3.707576  0  0  0.083104  0  3.955342  0  0  0.088464  0  3.970612  0  0  0.032982  0.07951  0  3.945666  0
C  C64  1  0.28102873  0.61642320  0.59909297  1  0  -0.134056  0  3.703553  0  0  -0.153378  0  3.947148  0  0  -0.15919  0  3.968101  0  0  -0.079699  -0.149829  0  3.933377  0
C  C65  1  0.78102592  0.88357847  0.90090683  1  0  -0.134103  0  3.703607  0  0  -0.153415  0  3.9472  0  0  -0.159229  0  3.968153  0  0  -0.07974  -0.149879  0  3.93346  0
C  C66  1  0.71897162  0.38357768  0.40091064  1  0  -0.133964  0  3.703613  0  0  -0.153243  0  3.947169  0  0  -0.159055  0  3.96812  0  0  -0.079707  -0.149716  0  3.93343  0
C  C67  1  0.21897703  0.11642305  0.09909337  1  0  -0.13418  0  3.703651  0  0  -0.153482  0  3.9473  0  0  -0.159285  0  3.968245  0  0  -0.079776  -0.149944  0  3.933557  0
C  C68  1  0.46200908  0.61357285  0.61006599  1  0  0.081726  0  3.730674  0  0  0.097605  0  3.955718  0  0  0.099965  0  3.976093  0  0  0.008683  0.096148  0  3.942127  0
C  C69  1  0.96200757  0.88642903  0.88993458  1  0  0.081803  0  3.730642  0  0  0.097656  0  3.955738  0  0  0.100022  0  3.97611  0  0  0.008692  0.096193  0  3.942179  0
C  C70  1  0.53798998  0.38642642  0.38993300  1  0  0.081637  0  3.730742  0  0  0.0975  0  3.955826  0  0  0.099867  0  3.976197  0  0  0.008646  0.096034  0  3.942264  0
C  C71  1  0.03799538  0.11357172  0.11006474  1  0  0.08186  0  3.730602  0  0  0.097648  0  3.955762  0  0  0.10001  0  3.976136  0  0  0.008685  0.096188  0  3.942191  0
C  C72  1  0.52850053  0.54204465  0.65517745  1  0  -0.132359  0  3.710609  0  0  -0.153837  0  3.957198  0  0  -0.15939  0  3.978313  0  0  -0.078987  -0.150551  0  3.943515  0
C  C73  1  0.02849933  0.95795524  0.84482124  1  0  -0.132558  0  3.710793  0  0  -0.154041  0  3.957407  0  0  -0.159598  0  3.978525  0  0  -0.079057  -0.150767  0  3.943723  0
C  C74  1  0.47149983  0.45795460  0.34482081  1  0  -0.132398  0  3.710775  0  0  -0.153875  0  3.957378  0  0  -0.159432  0  3.978498  0  0  -0.078996  -0.150603  0  3.943689  0
C  C75  1  0.97150232  0.04204402  0.15517775  1  0  -0.132538  0  3.710747  0  0  -0.153973  0  3.957379  0  0  -0.159527  0  3.978496  0  0  -0.078987  -0.150698  0  3.94369  0
C  C76  1  0.41596484  0.48005183  0.68911774  1  0  0.11385  0  3.703413  0  0  0.084936  0  3.963227  0  0  0.090324  0  3.978159  0  0  0.036705  0.081323  0  3.953974  0
C  C77  1  0.91596335  0.01994868  0.81088127  1  0  0.11399  0  3.703432  0  0  0.085104  0  3.963232  0  0  0.090493  0  3.978166  0  0  0.036772  0.08151  0  3.953934  0
C  C78  1  0.58403552  0.51994822  0.31088284  1  0  0.113842  0  3.703465  0  0  0.084916  0  3.963259  0  0  0.090299  0  3.978191  0  0  0.036714  0.081301  0  3.953985  0
C  C79  1  0.08403701  0.98005131  0.18911716  1  0  0.11397  0  3.703502  0  0  0.085061  0  3.963299  0  0  0.090447  0  3.978233  0  0  0.036745  0.081458  0  3.954011  0
C  C80  1  0.85098274  0.77035388  0.58437929  1  0  0.095026  0  3.577681  0  0  0.053685  0  3.828  0  0  0.062699  0  3.841464  0  0  0.063702  0.046837  0  3.820879  0
C  C81  1  0.35097684  0.72964413  0.91561970  1  0  0.095026  0  3.577652  0  0  0.053483  0  3.828015  0  0  0.062508  0  3.841455  0  0  0.063648  0.046643  0  3.820874  0
C  C82  1  0.14901892  0.22964393  0.41562079  1  0  0.095019  0  3.577646  0  0  0.053577  0  3.827991  0  0  0.062592  0  3.841433  0  0  0.06366  0.046727  0  3.82085  0
C  C83  1  0.64902092  0.27035443  0.08438055  1  0  0.095011  0  3.577675  0  0  0.053574  0  3.828028  0  0  0.062587  0  3.84148  0  0  0.063651  0.046732  0  3.820878  0
C  C84  1  0.73991000  0.71056857  0.62140864  1  0  -0.144643  0  3.657012  0  0  -0.160816  0  3.903806  0  0  -0.168591  0  3.921347  0  0  -0.071353  -0.156123  0  3.89295  0
C  C85  1  0.23990691  0.78942933  0.87859032  1  0  -0.144601  0  3.656989  0  0  -0.160677  0  3.903775  0  0  -0.168455  0  3.921327  0  0  -0.071332  -0.155982  0  3.892911  0
C  C86  1  0.26009035  0.28942846  0.37858984  1  0  -0.144662  0  3.656998  0  0  -0.160812  0  3.903829  0  0  -0.168588  0  3.921376  0  0  -0.071375  -0.156117  0  3.892953  0
C  C87  1  0.76009344  0.21056998  0.12141009  1  0  -0.144543  0  3.657001  0  0  -0.16067  0  3.903784  0  0  -0.168446  0  3.921336  0  0  -0.07132  -0.155979  0  3.892909  0
C  C88  1  0.57858864  0.68181818  0.57561283  1  0  0.128421  0  3.696519  0  0  0.135293  0  3.928086  0  0  0.143474  0  3.944981  0  0  0.028796  0.129438  0  3.917262  0
C  C89  1  0.07858565  0.81818029  0.92438626  1  0  0.128446  0  3.696487  0  0  0.135287  0  3.92809  0  0  0.143464  0  3.944987  0  0  0.028759  0.129425  0  3.917281  0
C  C90  1  0.42141172  0.31817961  0.42438654  1  0  0.128551  0  3.696481  0  0  0.13539  0  3.928118  0  0  0.143565  0  3.945013  0  0  0.028803  0.12953  0  3.917295  0
C  C91  1  0.92141341  0.18182046  0.07561306  1  0  0.128424  0  3.696425  0  0  0.135312  0  3.928031  0  0  0.143491  0  3.94493  0  0  0.028801  0.129449  0  3.917215  0
C  C92  1  0.53386888  0.72041363  0.49586360  1  0  -0.127939  0  3.681495  0  0  -0.147159  0  3.929946  0  0  -0.155386  0  3.948839  0  0  -0.068654  -0.142483  0  3.918739  0
C  C93  1  0.03386839  0.77958732  0.00413601  1  0  -0.128065  0  3.681493  0  0  -0.147276  0  3.929909  0  0  -0.155503  0  3.948801  0  0  -0.068666  -0.142602  0  3.918721  0
C  C94  1  0.46613407  0.27958565  0.50413610  1  0  -0.128068  0  3.681561  0  0  -0.147263  0  3.929987  0  0  -0.155486  0  3.948878  0  0  -0.068678  -0.142592  0  3.918795  0
C  C95  1  0.96613197  0.22041339  0.99586187  1  0  -0.127963  0  3.681487  0  0  -0.147184  0  3.929898  0  0  -0.155412  0  3.948791  0  0  -0.068667  -0.14251  0  3.918708  0
C  C96  1  0.64884152  0.78026315  0.46146466  1  0  0.110545  0  3.594933  0  0  0.065959  0  3.85289  0  0  0.077242  0  3.864419  0  0  0.069689  0.05795  0  3.84634  0
C  C97  1  0.14883951  0.71973648  0.03853608  1  0  0.110571  0  3.59488  0  0  0.066025  0  3.852822  0  0  0.077307  0  3.864348  0  0  0.069689  0.058005  0  3.846291  0
C  C98  1  0.35116013  0.21973692  0.53853664  1  0  0.110544  0  3.594929  0  0  0.065958  0  3.85292  0  0  0.077241  0  3.864443  0  0  0.069649  0.057939  0  3.846371  0
C  C99  1  0.85115825  0.28026353  0.96146307  1  0  0.110466  0  3.594911  0  0  0.065939  0  3.852865  0  0  0.07722  0  3.864395  0  0  0.069649  0.057913  0  3.846332  0
C  C100  1  0.93024546  0.86292428  0.46396326  1  0  -0.015608  0  3.604156  0  0  -0.078242  0  3.86188  0  0  -0.07442  0  3.873559  0  0  -0.053345  -0.080483  0  3.854107  0
C  C101  1  0.43023927  0.63707709  0.03603645  1  0  -0.015454  0  3.60407  0  0  -0.078214  0  3.861956  0  0  -0.074394  0  3.873639  0  0  -0.053406  -0.080466  0  3.854184  0
C  C102  1  0.06975619  0.13707506  0.53603858  1  0  -0.01564  0  3.604205  0  0  -0.078335  0  3.862018  0  0  -0.074515  0  3.873698  0  0  -0.053399  -0.080579  0  3.85425  0
C  C103  1  0.56975460  0.36292294  0.96396342  1  0  -0.015619  0  3.603937  0  0  -0.078267  0  3.86171  0  0  -0.074445  0  3.87339  0  0  -0.053355  -0.080529  0  3.85395  0
C  C104  1  0.93359694  0.97138216  0.52255228  1  0  -0.123933  0  3.66271  0  0  -0.161973  0  3.917622  0  0  -0.163961  0  3.93096  0  0  -0.16487  -0.1605  0  3.908517  0
C  C105  1  0.43358904  0.52861672  0.97744833  1  0  -0.12408  0  3.662682  0  0  -0.162108  0  3.917614  0  0  -0.164096  0  3.93095  0  0  -0.164899  -0.160638  0  3.908518  0
C  C106  1  0.06640860  0.02861793  0.47744974  1  0  -0.123906  0  3.662684  0  0  -0.161951  0  3.917586  0  0  -0.163939  0  3.930921  0  0  -0.164838  -0.16048  0  3.908468  0
C  C107  1  0.56640353  0.47138329  0.02255082  1  0  -0.12389  0  3.662576  0  0  -0.161947  0  3.917443  0  0  -0.163937  0  3.930781  0  0  -0.164881  -0.160476  0  3.90834  0
S  S108  1  0.97295829  0.51653212  0.88879321  1  0  -0.364036  0  2.507138  0  0  -0.339411  0  2.906683  0  0  -0.353118  0  2.897347  0  0  -0.188938  -0.329069  0  2.910987  0
S  S109  1  0.47295720  0.98347189  0.61120356  1  0  -0.364082  0  2.506923  0  0  -0.33946  0  2.906476  0  0  -0.353171  0  2.897143  0  0  -0.188957  -0.329119  0  2.910732  0
S  S110  1  0.02703817  0.48347236  0.11120694  1  0  -0.364065  0  2.50695  0  0  -0.339451  0  2.906526  0  0  -0.353161  0  2.89719  0  0  -0.188966  -0.329119  0  2.910799  0
S  S111  1  0.52704575  0.01653105  0.38879411  1  0  -0.36405  0  2.507127  0  0  -0.339417  0  2.906676  0  0  -0.353127  0  2.89734  0  0  -0.188965  -0.329105  0  2.910946  0
S  S112  1  0.85467311  0.35829841  0.64639449  1  0  -0.353958  0  2.444937  0  0  -0.335738  0  2.834798  0  0  -0.343632  0  2.820268  0  0  -0.167863  -0.329241  0  2.842849  0
S  S113  1  0.35466951  0.14170119  0.85360076  1  0  -0.353937  0  2.445013  0  0  -0.335738  0  2.834899  0  0  -0.343634  0  2.820375  0  0  -0.167878  -0.329245  0  2.842923  0
S  S114  1  0.14532984  0.64170310  0.35360499  1  0  -0.353922  0  2.445048  0  0  -0.335717  0  2.834937  0  0  -0.343612  0  2.82041  0  0  -0.167872  -0.329225  0  2.84299  0
S  S115  1  0.64532955  0.85829656  0.14639717  1  0  -0.35392  0  2.445054  0  0  -0.335696  0  2.834916  0  0  -0.343594  0  2.82039  0  0  -0.167854  -0.329219  0  2.842975  0
N  N116  1  0.73561442  0.64930084  0.83579966  1  0  -0.537316  0  2.706663  0  0  -0.502464  0  2.94366  0  0  -0.52084  0  2.956583  0  0  -0.376139  -0.488391  0  2.933721  0
N  N117  1  0.23561286  0.85069776  0.66419803  1  0  -0.53735  0  2.706857  0  0  -0.502449  0  2.943802  0  0  -0.52082  0  2.956721  0  0  -0.376116  -0.488389  0  2.933858  0
N  N118  1  0.26438335  0.35070063  0.16419839  1  0  -0.537441  0  2.706651  0  0  -0.502542  0  2.943594  0  0  -0.520918  0  2.956516  0  0  -0.376084  -0.488472  0  2.933631  0
N  N119  1  0.76438231  0.14930295  0.33579986  1  0  -0.537308  0  2.706842  0  0  -0.502421  0  2.943804  0  0  -0.520801  0  2.956732  0  0  -0.376101  -0.488355  0  2.933841  0
N  N120  1  0.70073371  0.20224187  0.71235601  1  0  -0.50531  0  3.115532  0  0  -0.461002  0  3.445769  0  0  -0.468561  0  3.443541  0  0  -0.440482  -0.456504  0  3.446043  0
N  N121  1  0.20072676  0.29775990  0.78764328  1  0  -0.505358  0  3.115403  0  0  -0.461032  0  3.445615  0  0  -0.46859  0  3.443376  0  0  -0.440535  -0.456557  0  3.445938  0
N  N122  1  0.29926665  0.79776189  0.28764469  1  0  -0.505374  0  3.115371  0  0  -0.461039  0  3.445575  0  0  -0.468599  0  3.443339  0  0  -0.440484  -0.456554  0  3.445878  0
N  N123  1  0.79927100  0.70224091  0.21235818  1  0  -0.505338  0  3.115431  0  0  -0.461008  0  3.445651  0  0  -0.468568  0  3.443416  0  0  -0.440515  -0.456531  0  3.445989  0
N  N124  1  0.24193740  0.48482403  0.68124940  1  0  -0.283649  0  3.369283  0  0  -0.221248  0  3.669692  0  0  -0.227387  0  3.676131  0  0  -0.357642  -0.218373  0  3.665559  0
N  N125  1  0.74193589  0.01517557  0.81875012  1  0  -0.283578  0  3.369452  0  0  -0.221221  0  3.669901  0  0  -0.227361  0  3.676345  0  0  -0.357615  -0.218342  0  3.665723  0
N  N126  1  0.75806296  0.51517910  0.31875543  1  0  -0.283464  0  3.369267  0  0  -0.220992  0  3.669574  0  0  -0.227118  0  3.676  0  0  -0.357613  -0.218119  0  3.665419  0
N  N127  1  0.25806446  0.98482446  0.18124975  1  0  -0.283597  0  3.369421  0  0  -0.221198  0  3.669818  0  0  -0.227339  0  3.67626  0  0  -0.357615  -0.218327  0  3.66566  0
N  N128  1  0.80634727  0.80196583  0.50385561  1  0  -0.007641  0  3.554254  0  0  0.086606  0  3.765881  0  0  0.074135  0  3.789851  0  0  -0.20892  0.094111  0  3.750328  0
N  N129  1  0.30634256  0.69803367  0.99614513  1  0  -0.007639  0  3.55414  0  0  0.086647  0  3.765821  0  0  0.074173  0  3.789801  0  0  -0.208869  0.094155  0  3.75026  0
N  N130  1  0.19365438  0.19803124  0.49614430  1  0  -0.007648  0  3.554147  0  0  0.086642  0  3.76578  0  0  0.07417  0  3.789758  0  0  -0.208882  0.094146  0  3.750208  0
N  N131  1  0.69365391  0.30196640  0.00385617  1  0  -0.007686  0  3.554202  0  0  0.086559  0  3.765839  0  0  0.074089  0  3.789814  0  0  -0.208958  0.09406  0  3.750274  0
