# generated using pymatgen
data_GdCdH7C5SN2O11
_symmetry_space_group_name_H-M   'P 1'
_cell_length_a   8.57789176
_cell_length_b   10.54440478
_cell_length_c   13.83764133
_cell_angle_alpha   89.99994806
_cell_angle_beta   101.88323226
_cell_angle_gamma   89.99996188
_symmetry_Int_Tables_number   1
_chemical_formula_structural   GdCdH7C5SN2O11
_chemical_formula_sum   'Gd4 Cd4 H28 C20 S4 N8 O44'
_cell_volume   1224.77491382
_cell_formula_units_Z   4
loop_
 _symmetry_equiv_pos_site_id
 _symmetry_equiv_pos_as_xyz
  1  'x, y, z'
loop_
 _atom_site_type_symbol
 _atom_site_label
 _atom_site_symmetry_multiplicity
 _atom_site_fract_x
 _atom_site_fract_y
 _atom_site_fract_z
 _atom_site_occupancy
 _atom_site_hle17_bader_spin_density
 _atom_site_hle17_ddec_charge
 _atom_site_hle17_ddec_spin_density
 _atom_site_hle17_ddec_sum_bond_order
 _atom_site_hle17_magmom
 _atom_site_hse06_10hf_bader_spin_density
 _atom_site_hse06_10hf_ddec_charge
 _atom_site_hse06_10hf_ddec_spin_density
 _atom_site_hse06_10hf_ddec_sum_bond_order
 _atom_site_hse06_10hf_magmom
 _atom_site_hse06_bader_spin_density
 _atom_site_hse06_ddec_charge
 _atom_site_hse06_ddec_spin_density
 _atom_site_hse06_ddec_sum_bond_order
 _atom_site_hse06_magmom
 _atom_site_pbe_bader_spin_density
 _atom_site_pbe_cm5_charge
 _atom_site_pbe_ddec_charge
 _atom_site_pbe_ddec_spin_density
 _atom_site_pbe_ddec_sum_bond_order
 _atom_site_pbe_magmom
Gd  Gd0  1  0.93344167  0.89501274  0.10942400  1  0  2.273488  0  1.73337  0  0  2.195003  0  2.065691  0  0  2.238397  0  2.024813  0  0  1.488676  2.158582  0  2.102956  0
Gd  Gd1  1  0.06655649  0.39501304  0.39057715  1  0  2.273516  0  1.733335  0  0  2.195017  0  2.065674  0  0  2.238432  0  2.02476  0  0  1.488683  2.158583  0  2.102961  0
Gd  Gd2  1  0.06655910  0.10498878  0.89057800  1  0  2.273538  0  1.73334  0  0  2.194955  0  2.065815  0  0  2.238396  0  2.02486  0  0  1.488669  2.158543  0  2.103056  0
Gd  Gd3  1  0.93344071  0.60498754  0.60942368  1  0  2.273508  0  1.73335  0  0  2.195011  0  2.065695  0  0  2.238408  0  2.02481  0  0  1.488671  2.158586  0  2.102965  0
Cd  Cd4  1  0.62243730  0.48482844  0.13413607  1  0  1.206016  0  1.654995  0  0  1.010411  0  2.104811  0  0  1.065022  0  2.052284  0  0  0.815308  0.97078  0  2.141152  0
Cd  Cd5  1  0.37756194  0.98483004  0.36586370  1  0  1.206053  0  1.654976  0  0  1.010454  0  2.104779  0  0  1.065058  0  2.052262  0  0  0.815308  0.970823  0  2.141119  0
Cd  Cd6  1  0.37756345  0.51517308  0.86586303  1  0  1.206057  0  1.654894  0  0  1.010451  0  2.104701  0  0  1.065063  0  2.052169  0  0  0.81532  0.97082  0  2.141042  0
Cd  Cd7  1  0.62243760  0.01517148  0.63413380  1  0  1.206028  0  1.654937  0  0  1.010419  0  2.104748  0  0  1.065032  0  2.052216  0  0  0.815314  0.970788  0  2.141087  0
H  H8  1  0.62789249  0.26126805  0.33756151  1  0  0.095809  0  0.954615  0  0  0.102513  0  1.020477  0  0  0.10515  0  1.017164  0  0  0.131538  0.100552  0  1.02292  0
H  H9  1  0.37210819  0.76126705  0.16243859  1  0  0.095819  0  0.954614  0  0  0.102529  0  1.020468  0  0  0.105165  0  1.017154  0  0  0.131564  0.100568  0  1.022912  0
H  H10  1  0.37211064  0.73873537  0.66243716  1  0  0.095799  0  0.954648  0  0  0.102509  0  1.020495  0  0  0.105146  0  1.017179  0  0  0.131538  0.100553  0  1.02294  0
H  H11  1  0.62789139  0.23873258  0.83756181  1  0  0.095809  0  0.954635  0  0  0.102516  0  1.02049  0  0  0.105155  0  1.017171  0  0  0.131539  0.100557  0  1.022934  0
H  H12  1  0.99952736  0.89808246  0.33563968  1  0  0.443241  0  0.847499  0  0  0.413862  0  0.907378  0  0  0.424275  0  0.892166  0  0  0.305779  0.406449  0  0.918211  0
H  H13  1  0.00047197  0.39808117  0.16436017  1  0  0.44325  0  0.847482  0  0  0.413875  0  0.907352  0  0  0.424289  0  0.89214  0  0  0.305792  0.406462  0  0.918186  0
H  H14  1  0.00047102  0.10191811  0.66436057  1  0  0.44321  0  0.847528  0  0  0.413834  0  0.907402  0  0  0.424248  0  0.892188  0  0  0.305769  0.406421  0  0.918235  0
H  H15  1  0.99952759  0.60191846  0.83563951  1  0  0.443237  0  0.847504  0  0  0.41386  0  0.907378  0  0  0.424274  0  0.892165  0  0  0.305779  0.406447  0  0.918211  0
H  H16  1  0.81126999  0.91099459  0.30441990  1  0  0.428905  0  0.83177  0  0  0.405102  0  0.898348  0  0  0.41277  0  0.887332  0  0  0.319988  0.399678  0  0.905311  0
H  H17  1  0.18872694  0.41099411  0.19557892  1  0  0.428918  0  0.83176  0  0  0.405118  0  0.89833  0  0  0.412786  0  0.887314  0  0  0.320006  0.399693  0  0.905298  0
H  H18  1  0.18872839  0.08900408  0.69557963  1  0  0.428911  0  0.831792  0  0  0.405112  0  0.898341  0  0  0.412779  0  0.887327  0  0  0.320004  0.399688  0  0.905325  0
H  H19  1  0.81127143  0.58900457  0.80442061  1  0  0.428919  0  0.831749  0  0  0.40512  0  0.898323  0  0  0.412787  0  0.887309  0  0  0.319995  0.399695  0  0.905283  0
H  H20  1  0.01654881  0.63297635  0.16851358  1  0  0.450725  0  0.807396  0  0  0.429395  0  0.866963  0  0  0.438943  0  0.852716  0  0  0.322975  0.422333  0  0.875748  0
H  H21  1  0.98344842  0.13297527  0.33148547  1  0  0.450707  0  0.80739  0  0  0.429366  0  0.867005  0  0  0.438916  0  0.852755  0  0  0.322949  0.422303  0  0.875778  0
H  H22  1  0.98345076  0.36702422  0.83148610  1  0  0.450701  0  0.807434  0  0  0.429367  0  0.867007  0  0  0.438915  0  0.852759  0  0  0.322956  0.422303  0  0.875798  0
H  H23  1  0.01654995  0.86702341  0.66851406  1  0  0.450717  0  0.807414  0  0  0.429385  0  0.866982  0  0  0.438933  0  0.852734  0  0  0.32297  0.422323  0  0.875774  0
H  H24  1  0.05287972  0.68818091  0.27475614  1  0  0.450185  0  0.850461  0  0  0.417741  0  0.916014  0  0  0.428373  0  0.90054  0  0  0.304254  0.410161  0  0.927006  0
H  H25  1  0.94711865  0.18817998  0.22524373  1  0  0.450176  0  0.850479  0  0  0.417734  0  0.916029  0  0  0.428366  0  0.900554  0  0  0.304248  0.410154  0  0.92702  0
H  H26  1  0.94711986  0.31181871  0.72524498  1  0  0.450211  0  0.850429  0  0  0.417767  0  0.915981  0  0  0.428399  0  0.900506  0  0  0.304267  0.410186  0  0.926974  0
H  H27  1  0.05287972  0.81181870  0.77475580  1  0  0.450191  0  0.850454  0  0  0.417745  0  0.916009  0  0  0.428376  0  0.900535  0  0  0.304254  0.410162  0  0.927004  0
H  H28  1  0.55855245  0.88636088  0.07115603  1  0  0.450932  0  0.831196  0  0  0.423862  0  0.88797  0  0  0.432701  0  0.875124  0  0  0.309777  0.417554  0  0.897108  0
H  H29  1  0.44144571  0.38636093  0.42884367  1  0  0.45096  0  0.831157  0  0  0.423887  0  0.887933  0  0  0.432725  0  0.875088  0  0  0.309788  0.41758  0  0.897071  0
H  H30  1  0.44144713  0.11363874  0.92884437  1  0  0.45112  0  0.830942  0  0  0.424008  0  0.887805  0  0  0.432848  0  0.874956  0  0  0.309808  0.417694  0  0.896956  0
H  H31  1  0.55855267  0.61363870  0.57115658  1  0  0.450948  0  0.831177  0  0  0.423876  0  0.887953  0  0  0.432716  0  0.875107  0  0  0.309767  0.417569  0  0.897091  0
H  H32  1  0.62460281  0.02652380  0.08291996  1  0  0.435335  0  0.854279  0  0  0.404985  0  0.920013  0  0  0.414907  0  0.905417  0  0  0.304953  0.397897  0  0.930432  0
H  H33  1  0.37539572  0.52652154  0.41707933  1  0  0.435332  0  0.854308  0  0  0.404979  0  0.920027  0  0  0.414901  0  0.905432  0  0  0.30495  0.397893  0  0.930445  0
H  H34  1  0.37539675  0.97347582  0.91707972  1  0  0.435292  0  0.854352  0  0  0.404946  0  0.92007  0  0  0.414867  0  0.905476  0  0  0.304933  0.397858  0  0.93049  0
H  H35  1  0.62460384  0.47347523  0.58292035  1  0  0.435349  0  0.854312  0  0  0.404992  0  0.920016  0  0  0.414914  0  0.905421  0  0  0.304957  0.397906  0  0.930433  0
C  C36  1  0.53188105  0.24385509  0.27446739  1  0  0.266668  0  3.676833  0  0  0.210843  0  3.953966  0  0  0.224856  0  3.966765  0  0  0.143422  0.201451  0  3.944988  0
C  C37  1  0.46811727  0.74385396  0.22553388  1  0  0.266702  0  3.676742  0  0  0.210874  0  3.953874  0  0  0.224888  0  3.966673  0  0  0.143423  0.201483  0  3.944898  0
C  C38  1  0.46811734  0.75614643  0.72553358  1  0  0.266684  0  3.676889  0  0  0.210863  0  3.954009  0  0  0.224876  0  3.966812  0  0  0.143462  0.201464  0  3.945039  0
C  C39  1  0.53188467  0.25614567  0.77446537  1  0  0.2666  0  3.67668  0  0  0.210776  0  3.953812  0  0  0.224791  0  3.966608  0  0  0.143353  0.201381  0  3.944836  0
C  C40  1  0.33299687  0.15385865  0.17587719  1  0  0.000972  0  3.756125  0  0  -0.004485  0  4.007596  0  0  -0.007459  0  4.02833  0  0  0.076391  -0.002705  0  3.993782  0
C  C41  1  0.66700154  0.65385825  0.32412343  1  0  0.000981  0  3.756055  0  0  -0.004504  0  4.007599  0  0  -0.007477  0  4.02833  0  0  0.076384  -0.002724  0  3.993789  0
C  C42  1  0.66700746  0.84614287  0.82412308  1  0  0.000936  0  3.756047  0  0  -0.004511  0  4.007526  0  0  -0.007484  0  4.028261  0  0  0.076347  -0.002733  0  3.993714  0
C  C43  1  0.33299566  0.34614043  0.67587739  1  0  0.001039  0  3.756012  0  0  -0.00445  0  4.007485  0  0  -0.007424  0  4.02822  0  0  0.076397  -0.002671  0  3.993671  0
C  C44  1  0.37643263  0.26303790  0.12957623  1  0  -0.018156  0  3.767988  0  0  -0.024386  0  4.024161  0  0  -0.02573  0  4.043798  0  0  0.072857  -0.023681  0  4.011035  0
C  C45  1  0.62356447  0.76303557  0.37042343  1  0  -0.018165  0  3.767854  0  0  -0.024436  0  4.024161  0  0  -0.025773  0  4.043805  0  0  0.072843  -0.023734  0  4.01104  0
C  C46  1  0.62357051  0.73696362  0.87042389  1  0  -0.018101  0  3.767918  0  0  -0.024401  0  4.024245  0  0  -0.025742  0  4.04389  0  0  0.072867  -0.023694  0  4.011118  0
C  C47  1  0.37643272  0.23696216  0.62957595  1  0  -0.018202  0  3.767992  0  0  -0.024446  0  4.024193  0  0  -0.025787  0  4.043835  0  0  0.07283  -0.023741  0  4.011067  0
C  C48  1  0.21336255  0.05574790  0.14552083  1  0  0.689829  0  3.886472  0  0  0.640439  0  4.182375  0  0  0.67715  0  4.169383  0  0  0.218367  0.615466  0  4.19012  0
C  C49  1  0.78663597  0.55574645  0.35448060  1  0  0.689894  0  3.886286  0  0  0.640523  0  4.182205  0  0  0.677234  0  4.169211  0  0  0.218379  0.61555  0  4.18995  0
C  C50  1  0.78663822  0.94425551  0.85448044  1  0  0.689833  0  3.886417  0  0  0.64049  0  4.182257  0  0  0.677198  0  4.169271  0  0  0.218377  0.615517  0  4.190005  0
C  C51  1  0.21336122  0.44425318  0.64551950  1  0  0.689766  0  3.88643  0  0  0.640451  0  4.182241  0  0  0.677159  0  4.169251  0  0  0.218367  0.615478  0  4.189986  0
C  C52  1  0.31664103  0.32399542  0.03270922  1  0  0.690073  0  3.905675  0  0  0.638599  0  4.201179  0  0  0.675221  0  4.189078  0  0  0.223231  0.613543  0  4.20857  0
C  C53  1  0.68335838  0.82399199  0.46728996  1  0  0.690157  0  3.905459  0  0  0.638624  0  4.201119  0  0  0.675214  0  4.189064  0  0  0.223221  0.613569  0  4.208512  0
C  C54  1  0.68336092  0.67600799  0.96729003  1  0  0.689934  0  3.905455  0  0  0.638391  0  4.201153  0  0  0.674993  0  4.189084  0  0  0.223133  0.613335  0  4.208544  0
C  C55  1  0.31663880  0.17600574  0.53270942  1  0  0.690065  0  3.905643  0  0  0.638602  0  4.201147  0  0  0.675209  0  4.189066  0  0  0.223229  0.613546  0  4.208539  0
S  S56  1  0.79616288  0.21930374  0.04370384  1  0  1.64454  0  5.742662  0  0  1.516949  0  6.28973  0  0  1.574032  0  6.250906  0  0  0.593867  1.477355  0  6.314973  0
S  S57  1  0.20383785  0.71930438  0.45629775  1  0  1.644626  0  5.742588  0  0  1.517028  0  6.289663  0  0  1.574107  0  6.250835  0  0  0.593951  1.477435  0  6.314908  0
S  S58  1  0.20383669  0.78069588  0.95629656  1  0  1.644521  0  5.742787  0  0  1.516926  0  6.289846  0  0  1.573999  0  6.251034  0  0  0.59389  1.477327  0  6.315092  0
S  S59  1  0.79616172  0.28069619  0.54370265  1  0  1.644563  0  5.742636  0  0  1.51695  0  6.289719  0  0  1.574023  0  6.250903  0  0  0.593891  1.477354  0  6.314961  0
N  N60  1  0.50197743  0.31764973  0.19358644  1  0  -0.427135  0  3.237272  0  0  -0.359912  0  3.522947  0  0  -0.381359  0  3.539841  0  0  -0.36125  -0.344537  0  3.510821  0
N  N61  1  0.49801963  0.81764944  0.30641535  1  0  -0.427179  0  3.237175  0  0  -0.359928  0  3.522864  0  0  -0.381374  0  3.539755  0  0  -0.361263  -0.344552  0  3.51074  0
N  N62  1  0.49802572  0.68235274  0.80641441  1  0  -0.427155  0  3.237362  0  0  -0.359902  0  3.52306  0  0  -0.38135  0  3.539957  0  0  -0.361278  -0.344527  0  3.510934  0
N  N63  1  0.50197755  0.18234829  0.69358403  1  0  -0.427055  0  3.23705  0  0  -0.359826  0  3.522718  0  0  -0.381272  0  3.539614  0  0  -0.361186  -0.344451  0  3.510594  0
N  N64  1  0.43081134  0.14522840  0.26789775  1  0  -0.430262  0  3.206196  0  0  -0.357668  0  3.490324  0  0  -0.379362  0  3.5065  0  0  -0.355808  -0.342123  0  3.478588  0
N  N65  1  0.56918828  0.64522816  0.23210303  1  0  -0.430305  0  3.20616  0  0  -0.357686  0  3.490292  0  0  -0.379381  0  3.506471  0  0  -0.355803  -0.342141  0  3.478557  0
N  N66  1  0.56919062  0.85477027  0.73210294  1  0  -0.43025  0  3.206132  0  0  -0.357659  0  3.490258  0  0  -0.379354  0  3.506437  0  0  -0.355781  -0.342114  0  3.478526  0
N  N67  1  0.43081129  0.35476957  0.76789665  1  0  -0.430246  0  3.206041  0  0  -0.35765  0  3.490169  0  0  -0.379344  0  3.50635  0  0  -0.355775  -0.342105  0  3.478436  0
O  O68  1  0.18118878  0.97939508  0.21102760  1  0  -0.691904  0  2.040978  0  0  -0.63123  0  2.295487  0  0  -0.65841  0  2.283388  0  0  -0.362165  -0.612001  0  2.303278  0
O  O69  1  0.81881047  0.47939508  0.28897218  1  0  -0.69191  0  2.040878  0  0  -0.63124  0  2.295384  0  0  -0.658426  0  2.283287  0  0  -0.362165  -0.612008  0  2.303172  0
O  O70  1  0.81881437  0.02060644  0.78897325  1  0  -0.691849  0  2.040968  0  0  -0.631166  0  2.295425  0  0  -0.658349  0  2.283328  0  0  -0.362144  -0.611937  0  2.30321  0
O  O71  1  0.18118552  0.52060549  0.71102705  1  0  -0.69191  0  2.041002  0  0  -0.631242  0  2.295435  0  0  -0.65842  0  2.283336  0  0  -0.36219  -0.612011  0  2.303219  0
O  O72  1  0.13878342  0.04310620  0.05615966  1  0  -0.803388  0  2.261175  0  0  -0.763941  0  2.523895  0  0  -0.789749  0  2.514092  0  0  -0.430823  -0.744869  0  2.529614  0
O  O73  1  0.86121512  0.54310649  0.44384106  1  0  -0.803426  0  2.261157  0  0  -0.763998  0  2.523882  0  0  -0.789803  0  2.514085  0  0  -0.430823  -0.74492  0  2.529595  0
O  O74  1  0.86121616  0.95689437  0.94384147  1  0  -0.80344  0  2.261175  0  0  -0.764002  0  2.523841  0  0  -0.789807  0  2.514044  0  0  -0.430818  -0.744923  0  2.529546  0
O  O75  1  0.13878327  0.45689313  0.55615919  1  0  -0.803374  0  2.261171  0  0  -0.763963  0  2.523849  0  0  -0.789765  0  2.514047  0  0  -0.430816  -0.744885  0  2.529562  0
O  O76  1  0.20993640  0.27415709  0.96751248  1  0  -0.714557  0  2.107962  0  0  -0.670395  0  2.364298  0  0  -0.694894  0  2.351026  0  0  -0.408473  -0.65254  0  2.372536  0
O  O77  1  0.79005968  0.77415696  0.53249005  1  0  -0.714615  0  2.107918  0  0  -0.670437  0  2.364293  0  0  -0.694918  0  2.35104  0  0  -0.408458  -0.652579  0  2.372531  0
O  O78  1  0.79006676  0.72584064  0.03248908  1  0  -0.714505  0  2.107832  0  0  -0.670319  0  2.364203  0  0  -0.694803  0  2.350946  0  0  -0.408422  -0.652461  0  2.372436  0
O  O79  1  0.20993396  0.22583982  0.46751178  1  0  -0.714566  0  2.107973  0  0  -0.67042  0  2.364308  0  0  -0.694907  0  2.351043  0  0  -0.408467  -0.65256  0  2.372544  0
O  O80  1  0.37988689  0.43119824  0.01912941  1  0  -0.656279  0  2.095866  0  0  -0.573713  0  2.360809  0  0  -0.605092  0  2.345289  0  0  -0.32451  -0.551843  0  2.370963  0
O  O81  1  0.62011954  0.93119767  0.48086985  1  0  -0.656296  0  2.095759  0  0  -0.573705  0  2.360723  0  0  -0.605076  0  2.345226  0  0  -0.324511  -0.551832  0  2.37087  0
O  O82  1  0.62011745  0.56880328  0.98087158  1  0  -0.656221  0  2.095778  0  0  -0.573639  0  2.360778  0  0  -0.605013  0  2.345268  0  0  -0.324487  -0.551766  0  2.370926  0
O  O83  1  0.37988596  0.06880290  0.51912839  1  0  -0.656276  0  2.095842  0  0  -0.573729  0  2.360799  0  0  -0.605104  0  2.345292  0  0  -0.324513  -0.551859  0  2.370955  0
O  O84  1  0.62567638  0.18560442  0.01409371  1  0  -0.743087  0  1.938216  0  0  -0.683305  0  2.179773  0  0  -0.706098  0  2.163937  0  0  -0.343268  -0.667358  0  2.19034  0
O  O85  1  0.37432556  0.68560398  0.48590660  1  0  -0.74306  0  1.938135  0  0  -0.6833  0  2.17971  0  0  -0.706087  0  2.163871  0  0  -0.343306  -0.667358  0  2.190279  0
O  O86  1  0.37432199  0.81439616  0.98590509  1  0  -0.743033  0  1.938243  0  0  -0.683287  0  2.179838  0  0  -0.70607  0  2.163997  0  0  -0.343306  -0.667346  0  2.190408  0
O  O87  1  0.62567521  0.31439565  0.51409467  1  0  -0.743062  0  1.938185  0  0  -0.683285  0  2.179744  0  0  -0.706067  0  2.163907  0  0  -0.343283  -0.667345  0  2.190311  0
O  O88  1  0.81885986  0.34577078  0.09376333  1  0  -0.746078  0  1.985561  0  0  -0.66981  0  2.243615  0  0  -0.694757  0  2.222363  0  0  -0.350848  -0.652289  0  2.258012  0
O  O89  1  0.18114073  0.84576959  0.40623743  1  0  -0.746116  0  1.985652  0  0  -0.669834  0  2.243691  0  0  -0.694782  0  2.222446  0  0  -0.350851  -0.652313  0  2.258087  0
O  O90  1  0.18114089  0.65422979  0.90623577  1  0  -0.746108  0  1.985601  0  0  -0.669835  0  2.243646  0  0  -0.694779  0  2.222393  0  0  -0.350881  -0.652317  0  2.258046  0
O  O91  1  0.81886124  0.15423003  0.59376472  1  0  -0.746094  0  1.985574  0  0  -0.669816  0  2.243624  0  0  -0.694763  0  2.222381  0  0  -0.350859  -0.652296  0  2.258021  0
O  O92  1  0.87631499  0.12284588  0.11831750  1  0  -0.834106  0  2.084886  0  0  -0.769572  0  2.336941  0  0  -0.793111  0  2.320789  0  0  -0.404543  -0.752337  0  2.347302  0
O  O93  1  0.12368347  0.62284571  0.38168460  1  0  -0.834177  0  2.084871  0  0  -0.769606  0  2.33688  0  0  -0.793152  0  2.320734  0  0  -0.404589  -0.752373  0  2.347244  0
O  O94  1  0.12368458  0.87715469  0.88168290  1  0  -0.834081  0  2.084884  0  0  -0.769511  0  2.336911  0  0  -0.793058  0  2.320767  0  0  -0.404485  -0.752261  0  2.347259  0
O  O95  1  0.87631374  0.37715392  0.61831695  1  0  -0.834105  0  2.084891  0  0  -0.769555  0  2.336927  0  0  -0.793099  0  2.320785  0  0  -0.404536  -0.752313  0  2.347282  0
O  O96  1  0.87325305  0.22181446  0.95725063  1  0  -0.797935  0  2.037665  0  0  -0.754194  0  2.309951  0  0  -0.775656  0  2.290756  0  0  -0.413402  -0.738266  0  2.322425  0
O  O97  1  0.12674902  0.72181469  0.54275124  1  0  -0.797961  0  2.03764  0  0  -0.754244  0  2.309946  0  0  -0.775696  0  2.290751  0  0  -0.413411  -0.738314  0  2.322423  0
O  O98  1  0.12674652  0.77818611  0.04274977  1  0  -0.797917  0  2.037658  0  0  -0.754201  0  2.309967  0  0  -0.775655  0  2.290778  0  0  -0.413408  -0.73827  0  2.322443  0
O  O99  1  0.87325055  0.27818399  0.45724843  1  0  -0.797961  0  2.037641  0  0  -0.754217  0  2.309938  0  0  -0.775673  0  2.290747  0  0  -0.413404  -0.738285  0  2.322413  0
O  O100  1  0.91072895  0.93770448  0.28686318  1  0  -0.857173  0  1.844394  0  0  -0.810776  0  2.022737  0  0  -0.828795  0  1.994002  0  0  -0.596155  -0.79744  0  2.042265  0
O  O101  1  0.08927035  0.43770402  0.21313735  1  0  -0.857199  0  1.844369  0  0  -0.81081  0  2.022708  0  0  -0.82883  0  1.993972  0  0  -0.59619  -0.797475  0  2.042245  0
O  O102  1  0.08927062  0.06229515  0.71313722  1  0  -0.857178  0  1.844445  0  0  -0.810783  0  2.022783  0  0  -0.828806  0  1.994046  0  0  -0.596173  -0.797449  0  2.042331  0
O  O103  1  0.91072922  0.56229560  0.78686305  1  0  -0.857193  0  1.844377  0  0  -0.8108  0  2.022716  0  0  -0.82882  0  1.993983  0  0  -0.596168  -0.797464  0  2.042242  0
O  O104  1  0.00209996  0.70972794  0.20512248  1  0  -0.9191  0  1.892654  0  0  -0.886225  0  2.104322  0  0  -0.903424  0  2.071779  0  0  -0.65625  -0.873004  0  2.125471  0
O  O105  1  0.99790077  0.20972784  0.29487767  1  0  -0.919102  0  1.89265  0  0  -0.88622  0  2.104336  0  0  -0.903422  0  2.071792  0  0  -0.65623  -0.872998  0  2.125472  0
O  O106  1  0.99790081  0.29027168  0.79487807  1  0  -0.919103  0  1.892644  0  0  -0.886216  0  2.104321  0  0  -0.903421  0  2.071775  0  0  -0.656246  -0.872997  0  2.125477  0
O  O107  1  0.00209880  0.79027178  0.70512273  1  0  -0.919092  0  1.892638  0  0  -0.886211  0  2.104303  0  0  -0.903411  0  2.071763  0  0  -0.656248  -0.872991  0  2.125464  0
O  O108  1  0.64835048  0.93839412  0.10525467  1  0  -0.887587  0  1.840062  0  0  -0.850065  0  2.017342  0  0  -0.867888  0  1.989701  0  0  -0.623885  -0.836785  0  2.036749  0
O  O109  1  0.35164762  0.43839331  0.39474427  1  0  -0.887602  0  1.840054  0  0  -0.850077  0  2.017321  0  0  -0.867907  0  1.989689  0  0  -0.623894  -0.836796  0  2.036729  0
O  O110  1  0.35164910  0.06160550  0.89474573  1  0  -0.887744  0  1.83991  0  0  -0.850203  0  2.017168  0  0  -0.868034  0  1.989529  0  0  -0.623898  -0.836919  0  2.036581  0
O  O111  1  0.64835075  0.56160442  0.60525454  1  0  -0.887612  0  1.840092  0  0  -0.850091  0  2.01735  0  0  -0.867914  0  1.989703  0  0  -0.623877  -0.836811  0  2.036757  0
