# generated using pymatgen
data_DyH11C16N2O5
_symmetry_space_group_name_H-M   'P 1'
_cell_length_a   8.29995873
_cell_length_b   14.01844786
_cell_length_c   13.95146897
_cell_angle_alpha   84.94781749
_cell_angle_beta   72.69503164
_cell_angle_gamma   72.77920005
_symmetry_Int_Tables_number   1
_chemical_formula_structural   DyH11C16N2O5
_chemical_formula_sum   'Dy4 H44 C64 N8 O20'
_cell_volume   1480.33413634
_cell_formula_units_Z   4
loop_
 _symmetry_equiv_pos_site_id
 _symmetry_equiv_pos_as_xyz
  1  'x, y, z'
loop_
 _atom_site_type_symbol
 _atom_site_label
 _atom_site_symmetry_multiplicity
 _atom_site_fract_x
 _atom_site_fract_y
 _atom_site_fract_z
 _atom_site_occupancy
 _atom_site_hle17_bader_spin_density
 _atom_site_hle17_ddec_charge
 _atom_site_hle17_ddec_spin_density
 _atom_site_hle17_ddec_sum_bond_order
 _atom_site_hle17_magmom
 _atom_site_hse06_10hf_bader_spin_density
 _atom_site_hse06_10hf_ddec_charge
 _atom_site_hse06_10hf_ddec_spin_density
 _atom_site_hse06_10hf_ddec_sum_bond_order
 _atom_site_hse06_10hf_magmom
 _atom_site_hse06_bader_spin_density
 _atom_site_hse06_ddec_charge
 _atom_site_hse06_ddec_spin_density
 _atom_site_hse06_ddec_sum_bond_order
 _atom_site_hse06_magmom
 _atom_site_pbe_bader_charge
 _atom_site_pbe_bader_spin_density
 _atom_site_pbe_cm5_charge
 _atom_site_pbe_ddec_charge
 _atom_site_pbe_ddec_spin_density
 _atom_site_pbe_ddec_sum_bond_order
 _atom_site_pbe_magmom
Dy  Dy0  1  0.91878559  0.86175136  0.97672996  1  0  2.270625  0  1.695223  0  0  2.127762  0  2.156031  0  0  2.177116  0  2.110936  0  2.148836  0  1.503802  2.090492  0  2.190792  0
Dy  Dy1  1  0.75698525  0.13830047  0.02321104  1  0  2.270435  0  1.698622  0  0  2.127457  0  2.160132  0  0  2.176949  0  2.114769  0  2.145977  0  1.503091  2.089949  0  2.195345  0
Dy  Dy2  1  0.21943335  0.02341543  0.86122583  1  0  2.270403  0  1.694995  0  0  2.127013  0  2.156368  0  0  2.176567  0  2.110943  0  2.149009  0  1.503259  2.089733  0  2.191133  0
Dy  Dy3  1  0.10416654  0.97665333  0.13874220  1  0  2.271077  0  1.694587  0  0  2.128063  0  2.155485  0  0  2.177567  0  2.110097  0  2.148344  0  1.503586  2.090698  0  2.190418  0
H  H4  1  0.74763624  0.97064974  0.15347799  1  0  0.433931  0  0.858937  0  0  0.409402  0  0.913681  0  0  0.418332  0  0.900493  0  0.600985  0  0.309192  0.403175  0  0.922874  0
H  H5  1  0.87178727  0.02946008  0.84634440  1  0  0.434475  0  0.85843  0  0  0.409702  0  0.913395  0  0  0.418622  0  0.900242  0  0.587738  0  0.308967  0.403484  0  0.922549  0
H  H6  1  0.28127616  0.84747981  0.96990487  1  0  0.433321  0  0.860101  0  0  0.408705  0  0.914692  0  0  0.417651  0  0.901521  0  0.60721  0  0.308955  0.402434  0  0.923929  0
H  H7  1  0.09855659  0.15245887  0.03005791  1  0  0.434408  0  0.858576  0  0  0.409875  0  0.913037  0  0  0.418795  0  0.89991  0  0.608864  0  0.309162  0.403623  0  0.92224  0
H  H8  1  0.38582119  0.71673160  0.13854851  1  0  0.098049  0  0.977816  0  0  0.107503  0  1.041158  0  0  0.110509  0  1.040532  0  0.085619  0  0.10183  0.105366  0  1.041631  0
H  H9  1  0.24013829  0.28306781  0.86149009  1  0  0.098091  0  0.978901  0  0  0.107557  0  1.042118  0  0  0.110537  0  1.041545  0  0.080857  0  0.101929  0.105428  0  1.042565  0
H  H10  1  0.89897050  0.86195026  0.71672460  1  0  0.097919  0  0.979368  0  0  0.107921  0  1.042043  0  0  0.110929  0  1.04144  0  0.084279  0  0.101838  0.105772  0  1.042524  0
H  H11  1  0.47720713  0.13818204  0.28306400  1  0  0.098  0  0.97965  0  0  0.10753  0  1.042853  0  0  0.11056  0  1.042198  0  0.112371  0  0.10182  0.105377  0  1.043352  0
H  H12  1  0.68748200  0.63403251  0.14774373  1  0  0.089146  0  0.967752  0  0  0.100156  0  1.028429  0  0  0.102625  0  1.028121  0  0.076401  0  0.099481  0.09838  0  1.028744  0
H  H13  1  0.46844290  0.36556411  0.85224982  1  0  0.087956  0  0.967173  0  0  0.099213  0  1.027627  0  0  0.1017  0  1.027276  0  0.068199  0  0.09883  0.097417  0  1.02799  0
H  H14  1  0.67972913  0.85288054  0.63404790  1  0  0.089319  0  0.966822  0  0  0.100198  0  1.027491  0  0  0.102662  0  1.027196  0  0.072288  0  0.099403  0.098431  0  1.027771  0
H  H15  1  0.16603304  0.14741679  0.36567914  1  0  0.089862  0  0.966764  0  0  0.100687  0  1.027655  0  0  0.103132  0  1.02736  0  0.068697  0  0.099658  0.098934  0  1.027935  0
H  H16  1  0.75628646  0.46876924  0.23267419  1  0  0.088004  0  0.961238  0  0  0.098441  0  1.024347  0  0  0.10107  0  1.023444  0  0.055486  0  0.098243  0.096556  0  1.025033  0
H  H17  1  0.45701934  0.53090340  0.76748678  1  0  0.088382  0  0.961672  0  0  0.098817  0  1.024611  0  0  0.101457  0  1.023712  0  0.047476  0  0.097986  0.096881  0  1.025363  0
H  H18  1  0.77551022  0.76727143  0.46860441  1  0  0.088597  0  0.962262  0  0  0.099019  0  1.025185  0  0  0.101639  0  1.024336  0  0.07633  0  0.098214  0.097145  0  1.025833  0
H  H19  1  0.01088988  0.23285136  0.53124726  1  0  0.087307  0  0.962604  0  0  0.097973  0  1.025231  0  0  0.100611  0  1.02434  0  0.035947  0  0.097834  0.096096  0  1.025911  0
H  H20  1  0.51681738  0.39241363  0.31808514  1  0  0.087609  0  1.01303  0  0  0.095671  0  1.079355  0  0  0.097032  0  1.08125  0  0.084872  0  0.095163  0.094667  0  1.07814  0
H  H21  1  0.22666923  0.60738025  0.68198199  1  0  0.087277  0  1.012588  0  0  0.095287  0  1.078971  0  0  0.096673  0  1.080859  0  0.083977  0  0.09459  0.094262  0  1.077775  0
H  H22  1  0.09093332  0.68124388  0.39215671  1  0  0.086446  0  1.015434  0  0  0.094525  0  1.081821  0  0  0.095922  0  1.083729  0  0.074185  0  0.094392  0.09349  0  1.080614  0
H  H23  1  0.16405786  0.31858026  0.60785337  1  0  0.086141  0  1.015085  0  0  0.094432  0  1.081406  0  0  0.095774  0  1.083355  0  0.073452  0  0.094341  0.093421  0  1.080179  0
H  H24  1  0.20097552  0.40031964  0.37114913  1  0  0.092313  0  0.98365  0  0  0.101966  0  1.048196  0  0  0.103751  0  1.049348  0  0.095043  0  0.096758  0.100678  0  1.047465  0
H  H25  1  0.97194701  0.59948805  0.62865524  1  0  0.093432  0  0.982626  0  0  0.103098  0  1.047073  0  0  0.104892  0  1.048229  0  0.050712  0  0.096971  0.101801  0  1.04634  0
H  H26  1  0.39919973  0.62830227  0.39979412  1  0  0.091784  0  0.986046  0  0  0.101397  0  1.050729  0  0  0.103088  0  1.052003  0  0.099794  0  0.096102  0.100175  0  1.049912  0
H  H27  1  0.42671435  0.37145490  0.60026776  1  0  0.092051  0  0.985899  0  0  0.101433  0  1.050972  0  0  0.103161  0  1.052205  0  0.119467  0  0.096156  0.100174  0  1.050185  0
H  H28  1  0.89606168  0.48425969  0.36424670  1  0  0.081544  0  0.955969  0  0  0.095402  0  1.013325  0  0  0.097936  0  1.012652  0  0.054022  0  0.097977  0.093595  0  1.013856  0
H  H29  1  0.74394083  0.51567878  0.63560571  1  0  0.080618  0  0.955762  0  0  0.094802  0  1.012801  0  0  0.09735  0  1.012107  0  0.045257  0  0.097319  0.093007  0  1.013331  0
H  H30  1  0.62034861  0.63532593  0.48370656  1  0  0.082541  0  0.955166  0  0  0.096597  0  1.012298  0  0  0.099179  0  1.011574  0  0.036738  0  0.098285  0.094728  0  1.012911  0
H  H31  1  0.73882820  0.36459886  0.51627048  1  0  0.081359  0  0.957508  0  0  0.095478  0  1.014571  0  0  0.09805  0  1.013863  0  0.045503  0  0.097957  0.093647  0  1.015135  0
H  H32  1  0.83315276  0.64008514  0.26398136  1  0  0.090651  0  0.955266  0  0  0.103512  0  1.015269  0  0  0.106169  0  1.014376  0  0.074038  0  0.10171  0.101582  0  1.01601  0
H  H33  1  0.73619561  0.35995307  0.73604073  1  0  0.091223  0  0.952327  0  0  0.103936  0  1.012441  0  0  0.106592  0  1.011533  0  0.056248  0  0.101952  0.102022  0  1.013166  0
H  H34  1  0.52804283  0.73593685  0.63980693  1  0  0.094169  0  0.951595  0  0  0.106362  0  1.012022  0  0  0.109099  0  1.011025  0  0.063442  0  0.102852  0.104391  0  1.012814  0
H  H35  1  0.90319079  0.26408921  0.36012056  1  0  0.092625  0  0.953077  0  0  0.10479  0  1.013761  0  0  0.107439  0  1.012882  0  0.067076  0  0.102001  0.102881  0  1.01447  0
H  H36  1  0.98981251  0.59410917  0.98426753  1  0  0.097906  0  0.934176  0  0  0.101124  0  1.003642  0  0  0.104797  0  1.000372  0  0.132375  0  0.127218  0.098474  0  1.00603  0
H  H37  1  0.56753396  0.40610465  0.01583489  1  0  0.098649  0  0.933665  0  0  0.101701  0  1.003235  0  0  0.105375  0  0.999973  0  0.136868  0  0.126906  0.099055  0  1.005588  0
H  H38  1  0.41718972  0.01546609  0.59280227  1  0  0.099002  0  0.934961  0  0  0.101953  0  1.005027  0  0  0.105646  0  1.001731  0  0.134435  0  0.126672  0.099268  0  1.007482  0
H  H39  1  0.02565316  0.98443192  0.40742552  1  0  0.098758  0  0.935012  0  0  0.101666  0  1.004802  0  0  0.105379  0  1.001456  0  0.121  0  0.127028  0.099  0  1.007219  0
H  H40  1  0.83169113  0.47248783  0.96434554  1  0  0.090865  0  0.926918  0  0  0.095932  0  0.991696  0  0  0.099251  0  0.989302  0  0.124222  0  0.120224  0.09348  0  0.993573  0
H  H41  1  0.26776875  0.52781565  0.03569306  1  0  0.090919  0  0.926657  0  0  0.095886  0  0.992027  0  0  0.099195  0  0.989659  0  0.120102  0  0.120201  0.093452  0  0.993885  0
H  H42  1  0.69752285  0.03516033  0.47061267  1  0  0.090178  0  0.928492  0  0  0.095486  0  0.993431  0  0  0.098784  0  0.991042  0  0.107141  0  0.120457  0.093025  0  0.995331  0
H  H43  1  0.20362660  0.96458366  0.52960085  1  0  0.090484  0  0.92734  0  0  0.095468  0  0.992682  0  0  0.098796  0  0.990262  0  0.107906  0  0.119974  0.093017  0  0.994586  0
H  H44  1  0.47469069  0.70175202  0.86054264  1  0  0.098957  0  0.922599  0  0  0.106688  0  0.982016  0  0  0.11032  0  0.97946  0  0.082263  0  0.124494  0.103988  0  0.984072  0
H  H45  1  0.03606971  0.29864290  0.13962284  1  0  0.098517  0  0.919923  0  0  0.105951  0  0.979942  0  0  0.109646  0  0.977304  0  0.110132  0  0.124201  0.103206  0  0.982047  0
H  H46  1  0.82376072  0.13951158  0.70093175  1  0  0.099053  0  0.921307  0  0  0.106838  0  0.980854  0  0  0.110457  0  0.978289  0  0.107218  0  0.124805  0.104114  0  0.982934  0
H  H47  1  0.66443129  0.86041552  0.29913463  1  0  0.098718  0  0.922124  0  0  0.10662  0  0.981388  0  0  0.110229  0  0.978847  0  0.086729  0  0.124764  0.103931  0  0.983448  0
C  C48  1  0.09928581  0.64779525  0.21961034  1  0  -0.096795  0  3.712936  0  0  -0.077374  0  3.943909  0  0  -0.082776  0  3.962515  0  -0.063303  0  -0.010677  -0.073979  0  3.931484  0
C  C49  1  0.96566694  0.35219070  0.78043802  1  0  -0.098714  0  3.719109  0  0  -0.078403  0  3.950186  0  0  -0.083883  0  3.968784  0  -0.012767  0  -0.011603  -0.075005  0  3.937875  0
C  C50  1  0.25435956  0.78034017  0.64746161  1  0  -0.098836  0  3.724698  0  0  -0.07901  0  3.955505  0  0  -0.084471  0  3.974234  0  0.012532  0  -0.011994  -0.075556  0  3.943028  0
C  C51  1  0.68172328  0.21958005  0.35243210  1  0  -0.095999  0  3.719914  0  0  -0.07609  0  3.950911  0  0  -0.081553  0  3.969524  0  -0.064745  0  -0.010293  -0.072655  0  3.93849  0
C  C52  1  0.27498854  0.60280412  0.22444219  1  0  0.028173  0  3.778467  0  0  0.038848  0  4.001126  0  0  0.039122  0  4.024778  0  -0.017544  0  -0.007598  0.03871  0  3.985192  0
C  C53  1  0.10128595  0.39711064  0.77559867  1  0  0.027659  0  3.780581  0  0  0.037912  0  4.00455  0  0  0.038162  0  4.028273  0  -0.038661  0  -0.007824  0.037819  0  3.988567  0
C  C54  1  0.12342122  0.77549611  0.60255155  1  0  0.02934  0  3.781659  0  0  0.039968  0  4.004896  0  0  0.040191  0  4.028657  0  -0.04021  0  -0.006843  0.03987  0  3.988883  0
C  C55  1  0.50104268  0.22442748  0.39734891  1  0  0.028266  0  3.782765  0  0  0.038685  0  4.005592  0  0  0.038879  0  4.029402  0  0.005507  0  -0.00726  0.038611  0  3.98954  0
C  C56  1  0.41415317  0.64571092  0.17764173  1  0  -0.116901  0  3.731378  0  0  -0.137836  0  3.982301  0  0  -0.141229  0  4.003965  0  -0.070402  0  -0.097184  -0.135541  0  3.967645  0
C  C57  1  0.23655620  0.35408168  0.82237360  1  0  -0.117063  0  3.734385  0  0  -0.137892  0  3.985538  0  0  -0.141257  0  4.00722  0  -0.063302  0  -0.096033  -0.1356  0  3.970857  0
C  C58  1  0.94156166  0.82264237  0.64559148  1  0  -0.119802  0  3.731031  0  0  -0.141354  0  3.982456  0  0  -0.144793  0  4.004172  0  -0.083941  0  -0.097342  -0.139033  0  3.967771  0
C  C59  1  0.40929125  0.17743080  0.35422039  1  0  -0.117698  0  3.732694  0  0  -0.138758  0  3.983851  0  0  -0.142166  0  4.005574  0  -0.083996  0  -0.096616  -0.136459  0  3.96916  0
C  C60  1  0.58302410  0.59908316  0.18249310  1  0  -0.079651  0  3.797966  0  0  -0.093237  0  4.049619  0  0  -0.094926  0  4.071895  0  -0.091358  0  -0.098463  -0.091948  0  4.034385  0
C  C61  1  0.36377473  0.40059517  0.81750196  1  0  -0.076593  0  3.796998  0  0  -0.090183  0  4.048272  0  0  -0.091874  0  4.070587  0  -0.054112  0  -0.097522  -0.088895  0  4.03301  0
C  C62  1  0.81905350  0.81787970  0.59897871  1  0  -0.077628  0  3.795324  0  0  -0.090789  0  4.046773  0  0  -0.09245  0  4.06906  0  -0.074653  0  -0.098563  -0.08952  0  4.031543  0
C  C63  1  0.23536649  0.18232380  0.40077160  1  0  -0.081655  0  3.797627  0  0  -0.095129  0  4.049495  0  0  -0.096789  0  4.071771  0  -0.06993  0  -0.100756  -0.093868  0  4.034291  0
C  C64  1  0.62112111  0.50623960  0.23216518  1  0  -0.076197  0  3.783174  0  0  -0.088796  0  4.030451  0  0  -0.091281  0  4.051408  0  -0.072938  0  -0.095279  -0.087044  0  4.0161  0
C  C65  1  0.35877494  0.49348699  0.76792672  1  0  -0.079225  0  3.780979  0  0  -0.091668  0  4.028234  0  0  -0.094173  0  4.049232  0  -0.051034  0  -0.096123  -0.089879  0  4.013872  0
C  C66  1  0.87337898  0.76783360  0.50604747  1  0  -0.078904  0  3.78428  0  0  -0.091319  0  4.031467  0  0  -0.093846  0  4.052486  0  -0.097253  0  -0.095802  -0.089546  0  4.017075  0
C  C67  1  0.14678214  0.23223238  0.49378692  1  0  -0.076944  0  3.783893  0  0  -0.089416  0  4.031152  0  0  -0.091926  0  4.052137  0  -0.024239  0  -0.09536  -0.087663  0  4.016788  0
C  C68  1  0.48821342  0.46342362  0.27930498  1  0  -0.109632  0  3.740036  0  0  -0.127433  0  3.982061  0  0  -0.128829  0  4.002933  0  -0.07924  0  -0.091103  -0.126387  0  3.967876  0
C  C69  1  0.23023173  0.53636368  0.72076215  1  0  -0.108701  0  3.73538  0  0  -0.12605  0  3.977688  0  0  -0.127469  0  3.998606  0  -0.076978  0  -0.089946  -0.124977  0  3.963455  0
C  C70  1  0.04890157  0.72030496  0.46320199  1  0  -0.107502  0  3.735726  0  0  -0.125198  0  3.977928  0  0  -0.126653  0  3.998785  0  -0.012557  0  -0.089801  -0.124112  0  3.963755  0
C  C71  1  0.23198714  0.27959642  0.53674577  1  0  -0.106589  0  3.73837  0  0  -0.124888  0  3.980269  0  0  -0.126279  0  4.001147  0  -0.016891  0  -0.089756  -0.123829  0  3.966087  0
C  C72  1  0.31204853  0.51058661  0.27817284  1  0  0.046813  0  3.798873  0  0  0.065875  0  4.022123  0  0  0.065133  0  4.045313  0  0.000353  0  -0.009974  0.066323  0  4.006425  0
C  C73  1  0.10008211  0.48926203  0.72180945  1  0  0.051355  0  3.793508  0  0  0.069212  0  4.018598  0  0  0.068438  0  4.041906  0  0.005477  0  -0.008728  0.069665  0  4.00284  0
C  C74  1  0.17816626  0.72150807  0.51026746  1  0  0.049046  0  3.794643  0  0  0.067185  0  4.019134  0  0  0.066472  0  4.04229  0  -0.006509  0  -0.010173  0.067615  0  4.003453  0
C  C75  1  0.40951196  0.27833503  0.48967430  1  0  0.047598  0  3.800188  0  0  0.06693  0  4.022787  0  0  0.066213  0  4.045971  0  -0.099922  0  -0.009977  0.067363  0  4.007085  0
C  C76  1  0.17220943  0.46943548  0.32893352  1  0  -0.104584  0  3.727279  0  0  -0.126303  0  3.973684  0  0  -0.126941  0  3.994026  0  -0.031381  0  -0.08985  -0.125768  0  3.959831  0
C  C77  1  0.96996628  0.53042207  0.67095267  1  0  -0.107375  0  3.722446  0  0  -0.12861  0  3.969201  0  0  -0.129256  0  3.989568  0  -0.022145  0  -0.090012  -0.128051  0  3.955332  0
C  C78  1  0.35900449  0.67063809  0.46902258  1  0  -0.104746  0  3.725857  0  0  -0.126113  0  3.97262  0  0  -0.126712  0  3.993071  0  -0.068195  0  -0.08937  -0.125585  0  3.958649  0
C  C79  1  0.49815544  0.32917268  0.53100626  1  0  -0.105907  0  3.729322  0  0  -0.127374  0  3.975637  0  0  -0.127989  0  3.996046  0  -0.060462  0  -0.090292  -0.126833  0  3.961742  0
C  C80  1  0.00296525  0.51622916  0.32490048  1  0  -0.074466  0  3.801178  0  0  -0.089532  0  4.059833  0  0  -0.092293  0  4.080936  0  -0.041641  0  -0.095943  -0.087624  0  4.045361  0
C  C81  1  0.84337718  0.48368677  0.67500149  1  0  -0.074214  0  3.79851  0  0  -0.089542  0  4.057147  0  0  -0.092324  0  4.078288  0  -0.010785  0  -0.096178  -0.087637  0  4.042662  0
C  C82  1  0.48162202  0.67474505  0.51581477  1  0  -0.077372  0  3.801111  0  0  -0.092615  0  4.059755  0  0  -0.095452  0  4.080912  0  -0.02148  0  -0.097193  -0.090639  0  4.045265  0
C  C83  1  0.67163165  0.32515161  0.48418854  1  0  -0.075223  0  3.804539  0  0  -0.09062  0  4.063212  0  0  -0.093443  0  4.084319  0  -0.008335  0  -0.096309  -0.088683  0  4.048766  0
C  C84  1  0.96679922  0.60479063  0.26843633  1  0  -0.080314  0  3.746407  0  0  -0.107861  0  4.001357  0  0  -0.108035  0  4.020666  0  -0.007756  0  -0.088542  -0.107559  0  3.98821  0
C  C85  1  0.83904022  0.39521115  0.73160753  1  0  -0.079795  0  3.746802  0  0  -0.107429  0  4.002027  0  0  -0.107542  0  4.021284  0  -0.053632  0  -0.088175  -0.107162  0  3.988942  0
C  C86  1  0.42964134  0.73138318  0.60448999  1  0  -0.083387  0  3.749609  0  0  -0.110526  0  4.004591  0  0  -0.110701  0  4.023824  0  -0.061459  0  -0.089626  -0.110231  0  3.991498  0
C  C87  1  0.76495138  0.26859491  0.39545026  1  0  -0.08223  0  3.74987  0  0  -0.109305  0  4.004875  0  0  -0.10948  0  4.024202  0  -0.072003  0  -0.088859  -0.109014  0  3.991736  0
C  C88  1  0.06170805  0.74200217  0.15976029  1  0  0.731588  0  3.848945  0  0  0.685419  0  4.142223  0  0  0.721148  0  4.12861  0  1.580817  0  0.23608  0.661139  0  4.150545  0
C  C89  1  0.96273193  0.25802165  0.84030158  1  0  0.73191  0  3.84946  0  0  0.684159  0  4.145156  0  0  0.720114  0  4.131239  0  1.587971  0  0.236431  0.659719  0  4.153704  0
C  C90  1  0.19749963  0.84039251  0.74167288  1  0  0.733609  0  3.850737  0  0  0.686709  0  4.144878  0  0  0.722474  0  4.131248  0  1.57944  0  0.236934  0.662326  0  4.153336  0
C  C91  1  0.77927995  0.15947905  0.25823434  1  0  0.73513  0  3.847834  0  0  0.687425  0  4.143302  0  0  0.72337  0  4.129317  0  1.607625  0  0.237135  0.662983  0  4.151903  0
C  C92  1  0.67804260  0.74453265  0.89867115  1  0  0.052058  0  3.727728  0  0  0.05881  0  3.970128  0  0  0.055774  0  3.98896  0  0.519553  0  0.120921  0.060426  0  3.957702  0
C  C93  1  0.32045272  0.25576826  0.10137346  1  0  0.052295  0  3.724226  0  0  0.059943  0  3.966159  0  0  0.056905  0  3.985009  0  0.516371  0  0.121763  0.061553  0  3.953728  0
C  C94  1  0.57782403  0.10113549  0.74390412  1  0  0.055066  0  3.727185  0  0  0.062134  0  3.969422  0  0  0.059139  0  3.988218  0  0.469691  0  0.121138  0.063727  0  3.957042  0
C  C95  1  0.42299885  0.89893142  0.25622683  1  0  0.048155  0  3.731545  0  0  0.056522  0  3.972106  0  0  0.053502  0  3.990902  0  0.521899  0  0.118667  0.058122  0  3.959711  0
C  C96  1  0.87595882  0.61809446  0.95511578  1  0  0.110418  0  3.659218  0  0  0.083464  0  3.920135  0  0  0.086216  0  3.93501  0  0.522039  0  0.072182  0.081506  0  3.910039  0
C  C97  1  0.44842711  0.38219043  0.04495360  1  0  0.107841  0  3.660502  0  0  0.081839  0  3.921173  0  0  0.084577  0  3.936047  0  0.531759  0  0.072321  0.079905  0  3.911066  0
C  C98  1  0.50695475  0.04457082  0.61688793  1  0  0.106922  0  3.661129  0  0  0.079934  0  3.922471  0  0  0.08269  0  3.937326  0  0.544672  0  0.071261  0.077976  0  3.91239  0
C  C99  1  0.16861866  0.95534579  0.38332559  1  0  0.105943  0  3.658203  0  0  0.07959  0  3.91884  0  0  0.082334  0  3.933708  0  0.500988  0  0.071195  0.077636  0  3.908764  0
C  C100  1  0.78651084  0.55095713  0.94448061  1  0  0.084676  0  3.677763  0  0  0.058318  0  3.945058  0  0  0.060552  0  3.962008  0  0.513956  0  0.063821  0.056866  0  3.933614  0
C  C101  1  0.28121009  0.44934211  0.05556024  1  0  0.08672  0  3.678261  0  0  0.059424  0  3.946315  0  0  0.061632  0  3.963316  0  0.502926  0  0.064519  0.057968  0  3.934865  0
C  C102  1  0.66383183  0.05511721  0.54945377  1  0  0.086903  0  3.678226  0  0  0.059899  0  3.945933  0  0  0.062156  0  3.962861  0  0.499638  0  0.064614  0.058437  0  3.934524  0
C  C103  1  0.26868310  0.94468317  0.45074173  1  0  0.087467  0  3.675474  0  0  0.060456  0  3.942899  0  0  0.062708  0  3.959801  0  0.54948  0  0.064695  0.058965  0  3.931516  0
C  C104  1  0.59077216  0.67651742  0.88798718  1  0  0.072094  0  3.665855  0  0  0.043215  0  3.9206  0  0  0.04595  0  3.936672  0  0.53386  0  0.060799  0.041269  0  3.910152  0
C  C105  1  0.15444266  0.32380814  0.11212124  1  0  0.071042  0  3.663278  0  0  0.041846  0  3.918486  0  0  0.044611  0  3.934379  0  0.503331  0  0.059799  0.03994  0  3.908065  0
C  C106  1  0.73325051  0.11186592  0.67559233  1  0  0.07159  0  3.664755  0  0  0.042395  0  3.919705  0  0  0.045187  0  3.935663  0  0.562582  0  0.061536  0.040474  0  3.909269  0
C  C107  1  0.52094569  0.88805468  0.32451984  1  0  0.073198  0  3.66463  0  0  0.043505  0  3.919105  0  0  0.046282  0  3.935113  0  0.557462  0  0.061374  0.041541  0  3.908686  0
C  C108  1  0.61703058  0.85445856  0.87576041  1  0  0.67753  0  3.901917  0  0  0.626171  0  4.203323  0  0  0.661747  0  4.191105  0  1.63321  0  0.231309  0.602109  0  4.210748  0
C  C109  1  0.34676588  0.14580343  0.12416558  1  0  0.68558  0  3.892799  0  0  0.633564  0  4.194819  0  0  0.669098  0  4.182572  0  1.61916  0  0.235204  0.609528  0  4.20227  0
C  C110  1  0.52843406  0.12398370  0.85434442  1  0  0.682545  0  3.899194  0  0  0.630638  0  4.201123  0  0  0.666176  0  4.188931  0  1.614451  0  0.233761  0.60655  0  4.20862  0
C  C111  1  0.50682973  0.87622688  0.14576250  1  0  0.682505  0  3.899244  0  0  0.630615  0  4.200545  0  0  0.666199  0  4.188233  0  1.586238  0  0.233024  0.606538  0  4.208045  0
N  N112  1  0.82022620  0.71491223  0.93361421  1  0  -0.356434  0  3.221323  0  0  -0.313307  0  3.482258  0  0  -0.321714  0  3.498581  0  -1.241594  0  -0.342387  -0.30716  0  3.471136  0
N  N113  1  0.46796218  0.28537358  0.06643641  1  0  -0.357702  0  3.220302  0  0  -0.315175  0  3.481142  0  0  -0.323579  0  3.49744  0  -1.226048  0  -0.34295  -0.309017  0  3.470037  0
N  N114  1  0.46548192  0.06614203  0.71416903  1  0  -0.360343  0  3.225596  0  0  -0.317118  0  3.486713  0  0  -0.325586  0  3.503016  0  -1.223171  0  -0.34412  -0.31094  0  3.475612  0
N  N115  1  0.24593132  0.93390500  0.28600395  1  0  -0.354989  0  3.223756  0  0  -0.312334  0  3.483912  0  0  -0.320792  0  3.500237  0  -1.253687  0  -0.342215  -0.306147  0  3.472791  0
N  N116  1  0.64306353  0.57964213  0.91192269  1  0  -0.256355  0  3.037327  0  0  -0.226158  0  3.310081  0  0  -0.234133  0  3.3264  0  -1.164045  0  -0.298078  -0.220566  0  3.298903  0
N  N117  1  0.13387761  0.42066763  0.08815044  1  0  -0.255219  0  3.038946  0  0  -0.224319  0  3.3117  0  0  -0.232355  0  3.328121  0  -1.169502  0  -0.296664  -0.218702  0  3.30047  0
N  N118  1  0.77832363  0.08776078  0.57827744  1  0  -0.254537  0  3.038599  0  0  -0.223882  0  3.311573  0  0  -0.231888  0  3.327926  0  -1.175523  0  -0.297332  -0.218276  0  3.300364  0
N  N119  1  0.44466239  0.91203297  0.42187227  1  0  -0.254795  0  3.037861  0  0  -0.224066  0  3.310706  0  0  -0.232087  0  3.327072  0  -1.167473  0  -0.296245  -0.218444  0  3.299503  0
O  O120  1  0.03856241  0.73376432  0.07492292  1  0  -0.718265  0  1.977551  0  0  -0.669564  0  2.226402  0  0  -0.694749  0  2.214342  0  -1.190267  0  -0.390028  -0.651604  0  2.233989  0
O  O121  1  0.84686484  0.26623636  0.92525532  1  0  -0.719859  0  1.977997  0  0  -0.670863  0  2.227874  0  0  -0.696113  0  2.215649  0  -1.195618  0  -0.391932  -0.652824  0  2.235575  0
O  O122  1  0.22814152  0.92505549  0.73304447  1  0  -0.719909  0  1.97893  0  0  -0.671017  0  2.228445  0  0  -0.696186  0  2.216223  0  -1.187554  0  -0.391265  -0.653027  0  2.236132  0
O  O123  1  0.88607988  0.07488010  0.26693557  1  0  -0.721018  0  1.976955  0  0  -0.672003  0  2.226868  0  0  -0.697194  0  2.214473  0  -1.194547  0  -0.391512  -0.654031  0  2.234689  0
O  O124  1  0.05870820  0.82246278  0.19677468  1  0  -0.738284  0  1.999936  0  0  -0.693258  0  2.251107  0  0  -0.717946  0  2.238951  0  -1.19187  0  -0.390635  -0.675543  0  2.258709  0
O  O125  1  0.07732241  0.17760859  0.80320386  1  0  -0.73654  0  1.998338  0  0  -0.69073  0  2.249959  0  0  -0.715576  0  2.237889  0  -1.197402  0  -0.38975  -0.67291  0  2.257513  0
O  O126  1  0.11997291  0.80360769  0.82264162  1  0  -0.737765  0  2.001545  0  0  -0.692395  0  2.253268  0  0  -0.717099  0  2.241125  0  -1.196626  0  -0.391308  -0.67463  0  2.260872  0
O  O127  1  0.74604482  0.19619911  0.17722506  1  0  -0.737814  0  2.003306  0  0  -0.691995  0  2.255237  0  0  -0.716802  0  2.24306  0  -1.192366  0  -0.391539  -0.674194  0  2.262901  0
O  O128  1  0.70810150  0.90851623  0.88835279  1  0  -0.705741  0  2.051142  0  0  -0.660643  0  2.312424  0  0  -0.685065  0  2.300735  0  -1.193192  0  -0.379725  -0.643367  0  2.319688  0
O  O129  1  0.50450630  0.09183157  0.11158896  1  0  -0.70865  0  2.049482  0  0  -0.663443  0  2.311209  0  0  -0.687875  0  2.29945  0  -1.191245  0  -0.380929  -0.646138  0  2.3185  0
O  O130  1  0.38349656  0.11104902  0.90866743  1  0  -0.705485  0  2.052003  0  0  -0.660233  0  2.313833  0  0  -0.684648  0  2.302152  0  -1.191572  0  -0.378534  -0.64301  0  2.321225  0
O  O131  1  0.40329999  0.88914045  0.09142598  1  0  -0.705979  0  2.051114  0  0  -0.660709  0  2.312637  0  0  -0.685146  0  2.300883  0  -1.17314  0  -0.379164  -0.643473  0  2.320057  0
O  O132  1  0.48190335  0.88473369  0.84491346  1  0  -0.70062  0  2.052808  0  0  -0.650701  0  2.307374  0  0  -0.67654  0  2.298081  0  -1.205289  0  -0.36236  -0.632492  0  2.313178  0
O  O133  1  0.21118037  0.11539574  0.15493220  1  0  -0.70546  0  2.051989  0  0  -0.655551  0  2.307397  0  0  -0.681363  0  2.298044  0  -1.195893  0  -0.365329  -0.637344  0  2.313245  0
O  O134  1  0.63295841  0.15505425  0.88471765  1  0  -0.70613  0  2.054439  0  0  -0.65621  0  2.309902  0  0  -0.682062  0  2.300575  0  -1.189349  0  -0.366818  -0.637944  0  2.315757  0
O  O135  1  0.67280212  0.84517870  0.11534498  1  0  -0.705021  0  2.054291  0  0  -0.655525  0  2.310095  0  0  -0.681356  0  2.30073  0  -1.179804  0  -0.365713  -0.637309  0  2.315947  0
O  O136  1  0.84389024  0.98357116  0.09931039  1  0  -1.207624  0  1.922252  0  0  -1.13998  0  2.152538  0  0  -1.166447  0  2.128255  0  -1.256258  0  -0.810505  -1.120417  0  2.168666  0
O  O137  1  0.92670268  0.01649878  0.90055253  1  0  -1.207815  0  1.920957  0  0  -1.139944  0  2.15232  0  0  -1.166385  0  2.127959  0  -1.243057  0  -0.80964  -1.120469  0  2.168654  0
O  O138  1  0.17200573  0.90125927  0.98344695  1  0  -1.206859  0  1.927159  0  0  -1.139444  0  2.159654  0  0  -1.165798  0  2.134997  0  -1.263159  0  -0.811686  -1.119995  0  2.176147  0
O  O139  1  0.05656986  0.09872665  0.01645951  1  0  -1.208283  0  1.926506  0  0  -1.140384  0  2.158107  0  0  -1.166889  0  2.133704  0  -1.263111  0  -0.811724  -1.120831  0  2.174454  0
