# generated using pymatgen
data_CuH28C20S4(N5O2)2
_symmetry_space_group_name_H-M   'P 1'
_cell_length_a   8.69404222
_cell_length_b   9.70085117
_cell_length_c   9.83194102
_cell_angle_alpha   63.12833959
_cell_angle_beta   73.48162170
_cell_angle_gamma   64.29060194
_symmetry_Int_Tables_number   1
_chemical_formula_structural   CuH28C20S4(N5O2)2
_chemical_formula_sum   'Cu1 H28 C20 S4 N10 O4'
_cell_volume   662.43000213
_cell_formula_units_Z   1
loop_
 _symmetry_equiv_pos_site_id
 _symmetry_equiv_pos_as_xyz
  1  'x, y, z'
loop_
 _atom_site_type_symbol
 _atom_site_label
 _atom_site_symmetry_multiplicity
 _atom_site_fract_x
 _atom_site_fract_y
 _atom_site_fract_z
 _atom_site_occupancy
 _atom_site_hle17_ddec_charge
 _atom_site_hle17_ddec_spin_density
 _atom_site_hle17_ddec_sum_bond_order
 _atom_site_hle17_magmom
 _atom_site_hse06_10hf_ddec_charge
 _atom_site_hse06_10hf_ddec_spin_density
 _atom_site_hse06_10hf_ddec_sum_bond_order
 _atom_site_hse06_10hf_magmom
 _atom_site_hse06_ddec_charge
 _atom_site_hse06_ddec_spin_density
 _atom_site_hse06_ddec_sum_bond_order
 _atom_site_hse06_magmom
 _atom_site_pbe_cm5_charge
 _atom_site_pbe_ddec_charge
 _atom_site_pbe_ddec_spin_density
 _atom_site_pbe_ddec_sum_bond_order
 _atom_site_pbe_magmom
Cu  Cu0  1  0.99999925  0.00000094  0.99999874  1  0.78345  -0.679078  1.902235  -0.51  0.753233  -0.767684  2.290027  -0.618  0.826048  -0.826903  2.241134  -0.695  0.758707  0.710644  -0.727626  2.322907  -0.569
H  H1  1  0.21718954  0.75327262  0.86905545  1  0.315013  8.6e-05  0.900188  0.0  0.299653  7e-06  0.966457  0.0  0.306232  2e-06  0.961527  0.0  0.300972  0.295676  -8e-06  0.968818  0.0
H  H2  1  0.78281361  0.24673050  0.13093934  1  0.315013  8.3e-05  0.900187  0.0  0.299643  7e-06  0.966483  0.0  0.306225  2e-06  0.961547  0.0  0.300967  0.295667  -8e-06  0.968848  0.0
H  H3  1  0.11862984  0.67212990  0.04939445  1  0.320403  0.000157  0.928736  0.0  0.302905  0.0001  0.993946  0.0  0.31002  0.0001  0.989127  0.0  0.292921  0.297989  9.1e-05  0.997255  0.0
H  H4  1  0.88137058  0.32787084  0.95059999  1  0.320431  0.000154  0.928719  0.0  0.302953  9.9e-05  0.993906  0.0  0.310067  0.0001  0.989088  0.0  0.29292  0.298035  9.1e-05  0.997216  0.0
H  H5  1  0.08741313  0.04359260  0.19760873  1  0.345172  0.001722  0.882122  0.002  0.333372  0.000113  0.942467  0.0  0.339925  0.000373  0.938192  0.001  0.300279  0.329171  -6.1e-05  0.944849  0.0
H  H6  1  0.91258816  0.95640559  0.80238963  1  0.345132  0.001718  0.88215  0.002  0.333327  0.000112  0.942514  0.0  0.33988  0.000373  0.938237  0.001  0.300271  0.329126  -6.2e-05  0.944894  0.0
H  H7  1  0.17165155  0.14377227  0.02431226  1  0.339057  0.001265  0.901257  0.002  0.326489  -0.000256  0.96258  0.0  0.332738  3.7e-05  0.959201  0.0  0.290506  0.322009  -0.000506  0.965422  0.0
H  H8  1  0.82834600  0.85622966  0.97568541  1  0.339079  0.001263  0.901239  0.002  0.326512  -0.000256  0.962558  0.0  0.332763  3.7e-05  0.959175  0.0  0.290519  0.322031  -0.000506  0.9654  0.0
H  H9  1  0.26682074  0.93863817  0.11520964  1  0.330505  0.001142  0.891866  0.001  0.324882  -0.000355  0.944003  0.0  0.329819  -4.5e-05  0.942632  0.0  0.29335  0.321353  -0.000644  0.945485  0.0
H  H10  1  0.73317924  0.06136377  0.88478540  1  0.330482  0.00114  0.891823  0.001  0.324854  -0.000354  0.943975  0.0  0.32979  -4.5e-05  0.942606  0.0  0.293343  0.321324  -0.000643  0.945456  0.0
H  H11  1  0.40998212  0.05735315  0.37817846  1  0.074001  -0.000175  0.940184  0.0  0.091757  -0.000111  1.00114  0.0  0.092264  -5.7e-05  1.001784  0.0  0.090877  0.091099  -0.000118  1.001106  0.0
H  H12  1  0.59002444  0.94264375  0.62181919  1  0.074037  -0.000179  0.940103  0.0  0.091763  -0.000112  1.001086  0.0  0.092271  -5.7e-05  1.001726  0.0  0.090865  0.091104  -0.000118  1.001053  0.0
H  H13  1  0.19893053  0.14630793  0.32881920  1  0.095068  -0.000154  0.944046  0.0  0.11258  -0.000321  1.003327  0.0  0.11449  -0.000239  1.002547  0.0  0.097427  0.111032  -0.0003  1.004294  0.0
H  H14  1  0.80107628  0.85368156  0.67118257  1  0.095001  -0.000158  0.94411  0.0  0.112541  -0.000321  1.003363  0.0  0.114452  -0.000239  1.002579  0.0  0.097415  0.11099  -0.0003  1.004324  0.0
H  H15  1  0.33498935  0.84041617  0.37335995  1  0.088108  -0.000175  0.967394  0.0  0.110744  -0.00025  1.029407  0.0  0.111709  -0.00018  1.030151  0.0  0.080429  0.110007  -0.000306  1.029057  0.0
H  H16  1  0.66502182  0.15957440  0.62664437  1  0.088115  -0.00018  0.967422  0.0  0.110778  -0.00025  1.029392  0.0  0.111753  -0.000179  1.030127  0.0  0.080438  0.110039  -0.000306  1.029041  0.0
H  H17  1  0.14892539  0.87883327  0.50460268  1  0.10721  0.0  0.952079  0.0  0.125596  1.4e-05  1.016456  0.0  0.127396  1.3e-05  1.016073  0.0  0.086549  0.124608  1.6e-05  1.016142  0.0
H  H18  1  0.85108368  0.12115974  0.49540314  1  0.107265  -2e-06  0.952093  0.0  0.125652  1.4e-05  1.016452  0.0  0.127449  1.3e-05  1.016072  0.0  0.086566  0.124665  1.6e-05  1.016137  0.0
H  H19  1  0.35536000  0.79215561  0.56480368  1  0.086236  -3.1e-05  0.969373  0.0  0.103029  -3.9e-05  1.043116  0.0  0.103437  -2.6e-05  1.044287  0.0  0.078783  0.10274  -3.8e-05  1.042225  0.0
H  H20  1  0.64465028  0.20783745  0.43519877  1  0.086283  -3.5e-05  0.969367  0.0  0.103056  -3.9e-05  1.043132  0.0  0.103465  -2.7e-05  1.044303  0.0  0.078764  0.102763  -3.8e-05  1.042246  0.0
H  H21  1  0.22677227  0.34960250  0.05966281  1  0.110696  -8e-05  0.973316  0.0  0.119123  -0.000154  1.037551  0.0  0.123034  -0.000116  1.033752  0.0  0.103528  0.116151  -0.000169  1.040639  0.0
H  H22  1  0.77322614  0.65039679  0.94034393  1  0.110706  -8.1e-05  0.973364  0.0  0.119162  -0.000154  1.037548  0.0  0.123067  -0.000116  1.033773  0.0  0.103534  0.116181  -0.000169  1.040653  0.0
H  H23  1  0.49352340  0.25371996  0.17364112  1  0.098203  5.2e-05  0.957634  0.0  0.109383  -8e-06  1.01803  0.0  0.112434  -1.1e-05  1.017576  0.0  0.098194  0.107346  -2.8e-05  1.018233  0.0
H  H24  1  0.50647598  0.74628674  0.82636017  1  0.098252  3.3e-05  0.957567  0.0  0.109427  -8e-06  1.017969  0.0  0.112479  -1.1e-05  1.017513  0.0  0.098219  0.107389  -2.8e-05  1.018168  0.0
H  H25  1  0.23446771  0.60654776  0.28001342  1  0.116651  0.000159  0.961737  0.0  0.123014  2e-05  1.02749  0.0  0.126554  2.2e-05  1.026438  0.0  0.099196  0.120566  2e-06  1.028069  0.0
H  H26  1  0.76552414  0.39345676  0.71998249  1  0.116651  0.000144  0.961741  0.0  0.123004  2e-05  1.027487  0.0  0.126544  2.3e-05  1.026436  0.0  0.09917  0.120556  2e-06  1.028064  0.0
H  H27  1  0.50210757  0.48518270  0.60665376  1  0.102886  1e-05  0.974554  0.0  0.111219  2e-06  1.040297  0.0  0.114352  -1e-06  1.037553  0.0  0.10386  0.108796  2e-06  1.042541  0.0
H  H28  1  0.49788166  0.51481563  0.39334849  1  0.102925  2e-06  0.974474  0.0  0.111274  2e-06  1.040176  0.0  0.11438  -0.0  1.037504  0.0  0.103864  0.108854  2e-06  1.042408  0.0
C  C29  1  0.34803282  0.42248058  0.82533836  1  -0.17738  -0.001282  3.802109  -0.001  -0.155893  0.000618  4.061052  0.0  -0.165399  0.000574  4.083073  0.0  -0.049029  -0.149425  0.000497  4.046208  0.0
C  C30  1  0.65196484  0.57751753  0.17466703  1  -0.177363  -0.001306  3.801937  -0.001  -0.155871  0.000616  4.060891  0.0  -0.165384  0.000573  4.082935  0.0  -0.048987  -0.14937  0.000498  4.046009  0.0
C  C31  1  0.13183357  0.25715500  0.72600690  1  0.342383  0.004554  3.854304  0.001  0.31571  0.000592  4.151087  -0.001  0.339341  0.002471  4.162293  0.0  0.226483  0.299971  -0.000792  4.142853  -0.003
C  C32  1  0.86816443  0.74284573  0.27399017  1  0.342257  0.004556  3.854479  0.001  0.315595  0.000593  4.151252  -0.001  0.339226  0.002469  4.162456  0.0  0.226463  0.299854  -0.000791  4.143021  -0.003
C  C33  1  0.27924609  0.05491241  0.42285015  1  -0.133333  -0.000511  3.754368  0.0  -0.169976  -0.000569  4.009642  0.0  -0.172188  -0.000408  4.022219  0.0  -0.161924  -0.168513  -0.000837  4.001981  -0.001
C  C34  1  0.72076255  0.94508195  0.57715011  1  -0.133312  -0.0005  3.754499  0.0  -0.169938  -0.000569  4.009722  0.0  -0.172148  -0.000408  4.022298  0.0  -0.161893  -0.168473  -0.000836  4.002053  -0.001
C  C35  1  0.27885599  0.88267524  0.46889075  1  -0.273151  -0.000236  3.728751  0.0  -0.351482  -0.000405  3.982766  0.0  -0.352865  -0.000278  3.992919  0.0  -0.252414  -0.350398  -0.000443  3.97571  0.0
C  C36  1  0.72115353  0.11731658  0.53111343  1  -0.273295  -0.000216  3.72897  0.0  -0.351632  -0.000404  3.982958  0.0  -0.353021  -0.000278  3.993101  0.0  -0.252438  -0.350542  -0.000443  3.975903  0.0
C  C37  1  0.21567626  0.11365372  0.55230714  1  0.163017  -0.001538  3.718929  -0.003  0.156193  -0.001315  4.011716  -0.002  0.165439  -0.000743  4.025975  -0.002  0.117809  0.149577  -0.001787  4.002702  -0.003
C  C38  1  0.78433073  0.88634189  0.44769298  1  0.162951  -0.00156  3.719022  -0.003  0.156154  -0.001314  4.011752  -0.002  0.165404  -0.000743  4.026007  -0.002  0.11776  0.149541  -0.001787  4.002738  -0.003
C  C39  1  0.34630398  0.35459566  0.98570557  1  -0.056291  0.000829  3.7812  0.001  -0.080171  -0.000175  4.031095  0.0  -0.07441  -0.00014  4.0466  0.0  -0.095134  -0.084108  -0.000206  4.021085  0.0
C  C40  1  0.65368697  0.64541120  0.01429567  1  -0.056277  0.000895  3.781217  0.001  -0.080157  -0.000177  4.031099  0.0  -0.074396  -0.000139  4.046596  0.0  -0.095129  -0.084104  -0.000206  4.021075  0.0
C  C41  1  0.49504661  0.30187810  0.04946258  1  -0.188672  -0.001104  3.719196  -0.001  -0.200633  -0.000163  3.963862  0.0  -0.208901  -5.7e-05  3.984188  0.0  -0.107072  -0.194911  -0.000169  3.950108  0.0
C  C42  1  0.50495275  0.69812854  0.95054179  1  -0.188732  -0.001111  3.719291  -0.001  -0.200697  -0.000162  3.964  0.0  -0.208969  -5.7e-05  3.984319  0.0  -0.107125  -0.194971  -0.000169  3.95024  0.0
C  C43  1  0.35277790  0.68023129  0.04478659  1  0.320796  0.001245  3.855935  0.001  0.315535  0.000884  4.101914  0.0  0.32799  0.000739  4.121946  0.0  0.09855  0.307141  0.001009  4.089  0.001
C  C44  1  0.64721712  0.31977437  0.95521010  1  0.3208  0.001186  3.856057  0.001  0.315583  0.000887  4.101969  0.0  0.328024  0.000739  4.122021  0.0  0.098502  0.307191  0.001009  4.089052  0.001
C  C45  1  0.35167447  0.61737368  0.20535370  1  -0.204139  -0.002242  3.716272  -0.002  -0.219771  0.000159  3.971092  0.0  -0.227841  0.000267  3.9904  0.0  -0.111533  -0.214056  -4e-06  3.95729  0.0
C  C46  1  0.64832382  0.38262935  0.79464943  1  -0.204093  -0.002174  3.716135  -0.002  -0.219711  0.000157  3.970935  0.0  -0.227783  0.000266  3.990258  0.0  -0.11145  -0.213996  -4e-06  3.957127  0.0
C  C47  1  0.49992932  0.43395939  0.73066984  1  -0.054863  0.001394  3.809647  0.001  -0.081261  7e-06  4.065108  0.0  -0.076268  2e-06  4.082494  0.0  -0.093512  -0.084451  7.8e-05  4.052861  0.0
C  C48  1  0.50006132  0.56604508  0.26932945  1  -0.054913  0.001503  3.809751  0.001  -0.08131  3e-06  4.065208  0.0  -0.076322  3e-06  4.082584  0.0  -0.093525  -0.084504  7.8e-05  4.05295  0.0
S  S49  1  0.22873813  0.29463548  0.53498029  1  0.052693  -0.007321  2.443777  -0.009  0.052948  -0.005517  2.771124  -0.007  0.051555  -0.00383  2.769161  -0.005  0.103702  0.054292  -0.007136  2.771982  -0.008
S  S50  1  0.77126557  0.70536266  0.46501853  1  0.05278  -0.007315  2.443783  -0.009  0.053029  -0.005518  2.771109  -0.007  0.05164  -0.003828  2.769135  -0.005  0.103731  0.054374  -0.007136  2.771972  -0.008
S  S51  1  0.15559983  0.50417946  0.74331294  1  1.218431  0.000675  5.471224  0.0  1.124865  0.000545  5.989822  0.0  1.169071  0.000573  5.975388  0.0  0.541862  1.093899  0.000548  5.999322  0.0
S  S52  1  0.84440357  0.49581635  0.25668085  1  1.218362  0.000676  5.471275  0.0  1.124762  0.000538  5.989933  0.0  1.168969  0.000579  5.975493  0.0  0.541799  1.093793  0.000548  5.999431  0.0
N  N53  1  0.20615568  0.72804646  0.98288079  1  -0.668941  -0.002673  3.197229  -0.006  -0.638767  0.000981  3.447692  -0.001  -0.660349  0.001556  3.444846  0.0  -0.602731  -0.625061  0.000711  3.450037  -0.001
N  N54  1  0.79384175  0.27195913  0.01711739  1  -0.669011  -0.002666  3.197282  -0.006  -0.638885  0.000982  3.447727  -0.001  -0.660465  0.001557  3.444883  0.0  -0.602721  -0.62518  0.000711  3.450073  -0.001
N  N55  1  0.08904414  0.35142123  0.80676614  1  -0.654442  0.003404  3.05897  0.002  -0.607359  0.00251  3.353657  0.001  -0.632108  0.00283  3.357653  0.001  -0.38452  -0.589375  0.002321  3.349878  0.001
N  N56  1  0.91095310  0.64857827  0.19323163  1  -0.654377  0.003368  3.058962  0.002  -0.607289  0.002525  3.353645  0.001  -0.632056  0.002813  3.357679  0.001  -0.38448  -0.589305  0.002321  3.349868  0.001
N  N57  1  0.09925009  0.11645360  0.78461332  1  -0.319562  -0.06819  3.256324  -0.089  -0.278945  -0.051157  3.564561  -0.071  -0.309054  -0.041815  3.58589  -0.062  -0.279249  -0.260481  -0.057657  3.551564  -0.076
N  N58  1  0.90074671  0.88354712  0.21538507  1  -0.319473  -0.06818  3.256243  -0.089  -0.27888  -0.051164  3.564494  -0.071  -0.308988  -0.041811  3.585824  -0.062  -0.279264  -0.260413  -0.057659  3.551496  -0.076
N  N59  1  0.14531656  0.03744382  0.68592140  1  -0.23605  -0.002169  3.08254  -0.003  -0.209494  -0.00185  3.361276  -0.002  -0.216335  -0.000686  3.379152  -0.001  -0.227331  -0.205107  -0.002767  3.348945  -0.003
N  N60  1  0.85468549  0.96255558  0.31407728  1  -0.236035  -0.002154  3.082516  -0.003  -0.209483  -0.001849  3.361239  -0.002  -0.216328  -0.000686  3.379113  -0.001  -0.2273  -0.205097  -0.002768  3.348909  -0.003
N  N61  1  0.15205506  0.03502024  0.09526509  1  -0.822589  -0.08959  2.950426  -0.112  -0.820178  -0.060295  3.185097  -0.077  -0.851134  -0.047663  3.176439  -0.066  -0.781002  -0.801115  -0.067591  3.192495  -0.082
N  N62  1  0.84794536  0.96498045  0.90473140  1  -0.822538  -0.089585  2.950437  -0.112  -0.820142  -0.060297  3.185136  -0.077  -0.851096  -0.047666  3.176475  -0.066  -0.780982  -0.801079  -0.067594  3.192532  -0.082
O  O63  1  0.03062178  0.62402246  0.80829745  1  -0.611884  -4.7e-05  1.938674  0.0  -0.559384  4.8e-05  2.183472  0.0  -0.579365  4.9e-05  2.171613  0.0  -0.324173  -0.545373  3.7e-05  2.190533  0.0
O  O64  1  0.96936656  0.37597828  0.19170704  1  -0.611914  -6.5e-05  1.93903  0.0  -0.559326  5.4e-05  2.183752  0.0  -0.579286  4.6e-05  2.171875  0.0  -0.324153  -0.545325  3.7e-05  2.190828  0.0
O  O65  1  0.19708168  0.56382649  0.57695842  1  -0.616973  0.000328  1.98499  0.0  -0.562351  0.00018  2.240556  0.0  -0.584635  0.000147  2.232471  0.0  -0.315022  -0.546427  6.9e-05  2.245645  0.0
O  O66  1  0.80291629  0.43617406  0.42304687  1  -0.616898  0.000319  1.984637  0.0  -0.56231  0.000181  2.240223  0.0  -0.584603  0.000144  2.232144  0.0  -0.315001  -0.546385  6.9e-05  2.245315  0.0
