# generated using pymatgen
data_ZnH3C18SNCl8O5
_symmetry_space_group_name_H-M   'P 1'
_cell_length_a   12.59641911
_cell_length_b   16.86905382
_cell_length_c   17.66089112
_cell_angle_alpha   95.02805006
_cell_angle_beta   90.16407505
_cell_angle_gamma   92.07030464
_symmetry_Int_Tables_number   1
_chemical_formula_structural   ZnH3C18SNCl8O5
_chemical_formula_sum   'Zn2 H6 C36 S2 N2 Cl16 O10'
_cell_volume   3735.80730168
_cell_formula_units_Z   2
loop_
 _symmetry_equiv_pos_site_id
 _symmetry_equiv_pos_as_xyz
  1  'x, y, z'
loop_
 _atom_site_type_symbol
 _atom_site_label
 _atom_site_symmetry_multiplicity
 _atom_site_fract_x
 _atom_site_fract_y
 _atom_site_fract_z
 _atom_site_occupancy
 _atom_site_pbe_bader_charge
 _atom_site_pbe_bader_spin_density
 _atom_site_pbe_cm5_charge
 _atom_site_pbe_ddec_charge
 _atom_site_pbe_ddec_spin_density
 _atom_site_pbe_ddec_sum_bond_order
 _atom_site_pbe_magmom
Zn  Zn0  1  0.49850460  0.41041125  0.49057724  1  1.320006  0  0.672803  0.898679  0  2.303603  0
Zn  Zn1  1  0.50196572  0.58915105  0.50669047  1  1.335655  0  0.670828  0.901132  0  2.279521  0
H  H2  1  0.51253920  0.00409272  0.59186818  1  0.093872  0  0.101035  0.113093  0  1.013393  0
H  H3  1  0.48037782  0.99538873  0.41830244  1  0.087081  0  0.10033  0.111501  0  1.013665  0
H  H4  1  0.40939948  0.55890679  0.01076545  1  0.09578  0  0.089816  0.099247  0  1.038449  0
H  H5  1  0.59545695  0.44709519  0.98481870  1  0.110367  0  0.08945  0.100003  0  1.038409  0
H  H6  1  0.06789533  0.30787042  0.51134560  1  0.603306  0  0.337671  0.364777  0  0.871178  0
H  H7  1  0.93273843  0.66380905  0.48682506  1  0.610344  0  0.337642  0.365296  0  0.87101  0
C  C8  1  0.49099561  0.51241417  0.35442029  1  1.654403  0  0.206894  0.614556  0  4.2155  0
C  C9  1  0.29821748  0.48011108  0.50681091  1  1.622772  0  0.199036  0.616075  0  4.217269  0
C  C10  1  0.50903138  0.51626601  0.64524252  1  1.648375  0  0.206476  0.613782  0  4.216572  0
C  C11  1  0.70233299  0.49115388  0.48953675  1  1.545139  0  0.199503  0.616066  0  4.218589  0
C  C12  1  0.42433509  0.75875801  0.47835046  1  0.713762  0  0.144638  0.231732  0  4.045415  0
C  C13  1  0.41981431  0.84240298  0.48216844  1  0.079241  0  0.012744  0.00224  0  3.996611  0
C  C14  1  0.49616861  0.88979474  0.52566919  1  0.098958  0  0.004214  0.068825  0  3.972472  0
C  C15  1  0.57259715  0.84937893  0.56448718  1  0.094881  0  0.012806  -0.000169  0  4.004277  0
C  C16  1  0.57288851  0.76569803  0.55681803  1  0.700034  0  0.145192  0.230026  0  4.058965  0
C  C17  1  0.49967787  0.97723558  0.53399550  1  -0.079323  0  -0.086285  -0.098936  0  3.9574  0
C  C18  1  0.49336274  0.02327606  0.47582559  1  0.097037  0  -0.086742  -0.101899  0  3.963189  0
C  C19  1  0.43240164  0.15023121  0.43369909  1  0.081316  0  0.012675  -0.001868  0  4.001804  0
C  C20  1  0.49818846  0.11053726  0.48188976  1  0.079813  0  0.005166  0.07047  0  3.971133  0
C  C21  1  0.56692435  0.15895562  0.53110890  1  0.117017  0  0.012666  0.001703  0  3.993216  0
C  C22  1  0.56362407  0.24247391  0.53238305  1  0.685821  0  0.145032  0.231756  0  4.050645  0
C  C23  1  0.43670540  0.23381217  0.43643002  1  0.71453  0  0.146052  0.231472  0  4.061762  0
C  C24  1  0.48767116  0.51217320  0.26891736  1  0.080566  0  -0.018501  -0.105746  0  3.959673  0
C  C25  1  0.58194007  0.51078152  0.22738196  1  0.108545  0  0.00839  0.064835  0  4.043742  0
C  C26  1  0.58015580  0.51213145  0.14793159  1  0.093605  0  0.009375  0.046184  0  3.995837  0
C  C27  1  0.48270174  0.51456195  0.10812957  1  0.06206  0  -0.016462  0.024263  0  3.976952  0
C  C28  1  0.38817551  0.51531706  0.15159920  1  0.123741  0  0.006902  0.040584  0  4.004042  0
C  C29  1  0.39061695  0.51430963  0.23084677  1  0.100207  0  0.005932  0.064891  0  4.049809  0
C  C30  1  0.47312309  0.52119124  0.02617155  1  -0.045276  0  -0.100736  -0.110329  0  3.996703  0
C  C31  1  0.53150903  0.48502568  0.97038709  1  -0.028932  0  -0.101246  -0.111522  0  3.992871  0
C  C32  1  0.61474541  0.49994616  0.84539913  1  0.080118  0  0.007992  0.043037  0  4.006379  0
C  C33  1  0.52078701  0.49456908  0.88889900  1  0.072724  0  -0.016739  0.022928  0  3.979294  0
C  C34  1  0.42254664  0.49631406  0.85000012  1  0.086614  0  0.009212  0.04693  0  3.996477  0
C  C35  1  0.41947388  0.50489295  0.77157875  1  0.15895  0  0.007944  0.064963  0  4.041428  0
C  C36  1  0.51331170  0.51108050  0.73013111  1  0.074522  0  -0.018778  -0.105298  0  3.957804  0
C  C37  1  0.61107113  0.50795508  0.76710784  1  0.115992  0  0.004793  0.061029  0  4.052335  0
C  C38  1  0.10714824  0.41762334  0.50577190  1  0.521844  0  0.078942  0.27355  0  4.087832  0
C  C39  1  0.89353998  0.55399956  0.49255776  1  0.529448  0  0.078267  0.272848  0  4.087517  0
C  C40  1  0.18186713  0.48052216  0.50593106  1  -0.140278  0  -0.041893  -0.225107  0  3.913172  0
C  C41  1  0.81877606  0.49107690  0.49162758  1  -0.060331  0  -0.041795  -0.223957  0  3.913618  0
C  C42  1  0.99870710  0.52698999  0.49728421  1  -0.120728  0  -0.043809  -0.136587  0  4.15021  0
C  C43  1  0.00194653  0.44451261  0.50035245  1  -0.108017  0  -0.043726  -0.137398  0  4.15125  0
S  S44  1  0.12365985  0.57234976  0.50043715  1  0.230895  0  0.04213  0.093222  0  2.867269  0
S  S45  1  0.87703604  0.39909745  0.49607043  1  0.216756  0  0.042599  0.090896  0  2.851383  0
N  N46  1  0.49961923  0.72161354  0.51453650  1  -1.17732  0  -0.297461  -0.277973  0  3.410734  0
N  N47  1  0.50017734  0.27864185  0.48580817  1  -1.160636  0  -0.298479  -0.278878  0  3.421978  0
Cl  Cl48  1  0.66923607  0.71795058  0.60017602  1  -0.079328  0  0.065397  0.017519  0  1.662076  0
Cl  Cl49  1  0.66789665  0.90276293  0.61902046  1  -0.156231  0  0.01813  -0.036654  0  1.575551  0
Cl  Cl50  1  0.33148880  0.70175216  0.42641774  1  -0.09864  0  0.052953  -0.005973  0  1.715189  0
Cl  Cl51  1  0.31862194  0.88436145  0.43630715  1  -0.157428  0  0.01331  -0.043199  0  1.601  0
Cl  Cl52  1  0.65810115  0.11893749  0.58770193  1  -0.159019  0  0.017524  -0.041326  0  1.62209  0
Cl  Cl53  1  0.64197761  0.30040821  0.59517682  1  -0.104094  0  0.055943  0.001505  0  1.68828  0
Cl  Cl54  1  0.34550684  0.09639180  0.37238467  1  -0.161123  0  0.020358  -0.034912  0  1.571338  0
Cl  Cl55  1  0.36081806  0.28078036  0.37576061  1  -0.091655  0  0.064758  0.016589  0  1.625905  0
Cl  Cl56  1  0.27509835  0.51582171  0.28311518  1  -0.179186  0  -0.00381  -0.047292  0  1.552916  0
Cl  Cl57  1  0.26703228  0.51604565  0.10601767  1  -0.179909  0  -0.00316  -0.060403  0  1.569988  0
Cl  Cl58  1  0.70038628  0.50861979  0.27606191  1  -0.17097  0  0.002262  -0.035589  0  1.542083  0
Cl  Cl59  1  0.69984007  0.51525067  0.10124083  1  -0.179857  0  -0.000413  -0.062268  0  1.610458  0
Cl  Cl60  1  0.30380688  0.48366013  0.89632831  1  -0.181853  0  -0.002978  -0.065231  0  1.60865  0
Cl  Cl61  1  0.30013902  0.50579629  0.72382060  1  -0.1689  0  0.001724  -0.03715  0  1.542229  0
Cl  Cl62  1  0.73656599  0.49855430  0.88995819  1  -0.18949  0  -0.004321  -0.062162  0  1.565509  0
Cl  Cl63  1  0.72602214  0.51371254  0.71470792  1  -0.182434  0  -0.002231  -0.043255  0  1.545996  0
O  O64  1  0.48203081  0.44515394  0.38039573  1  -1.157671  0  -0.313504  -0.556146  0  2.36677  0
O  O65  1  0.50199277  0.58058224  0.39047740  1  -1.170364  0  -0.31588  -0.544588  0  2.35413  0
O  O66  1  0.34603193  0.54826218  0.50704204  1  -1.175015  0  -0.330142  -0.576973  0  2.388884  0
O  O67  1  0.34117435  0.41273363  0.50595023  1  -1.146642  0  -0.320827  -0.532241  0  2.349791  0
O  O68  1  0.50285455  0.58513328  0.62240889  1  -1.149797  0  -0.317801  -0.546642  0  2.337944  0
O  O69  1  0.51284554  0.45021439  0.60603981  1  -1.168282  0  -0.312609  -0.557825  0  2.388246  0
O  O70  1  0.65592704  0.42213578  0.47795714  1  -1.154844  0  -0.333264  -0.563914  0  2.376657  0
O  O71  1  0.65809810  0.55757316  0.50054532  1  -1.158446  0  -0.317358  -0.544235  0  2.363891  0
O  O72  1  0.13310227  0.34057898  0.51001677  1  -1.097614  0  -0.337942  -0.405932  0  2.279902  0
O  O73  1  0.86758456  0.63114338  0.48883420  1  -1.106462  0  -0.338614  -0.408624  0  2.293395  0
