# generated using pymatgen
data_Cu3H24C20S4I3
_symmetry_space_group_name_H-M   'P 1'
_cell_length_a   8.55169322
_cell_length_b   9.79325699
_cell_length_c   16.03554486
_cell_angle_alpha   76.38022662
_cell_angle_beta   78.82164817
_cell_angle_gamma   87.41435186
_symmetry_Int_Tables_number   1
_chemical_formula_structural   Cu3H24C20S4I3
_chemical_formula_sum   'Cu6 H48 C40 S8 I6'
_cell_volume   1280.43365486
_cell_formula_units_Z   2
loop_
 _symmetry_equiv_pos_site_id
 _symmetry_equiv_pos_as_xyz
  1  'x, y, z'
loop_
 _atom_site_type_symbol
 _atom_site_label
 _atom_site_symmetry_multiplicity
 _atom_site_fract_x
 _atom_site_fract_y
 _atom_site_fract_z
 _atom_site_occupancy
 _atom_site_pbe_bader_spin_density
 _atom_site_pbe_cm5_charge
 _atom_site_pbe_ddec_charge
 _atom_site_pbe_ddec_spin_density
 _atom_site_pbe_ddec_sum_bond_order
 _atom_site_pbe_magmom
Cu  Cu0  1  0.00905408  0.06034232  0.25092435  1  0  0.252436  0.084381  0  2.790351  0
Cu  Cu1  1  0.99094690  0.93965868  0.74907490  1  0  0.252456  0.084419  0  2.79032  0
Cu  Cu2  1  0.04169776  0.38979590  0.24241772  1  0  0.256013  0.098593  0  2.82256  0
Cu  Cu3  1  0.95830322  0.61020406  0.75758293  1  0  0.256013  0.098597  0  2.8226  0
Cu  Cu4  1  0.28790229  0.20431388  0.20712796  1  0  0.180613  0.079424  0  2.77867  0
Cu  Cu5  1  0.71209869  0.79568607  0.79287269  1  0  0.180599  0.079394  0  2.778726  0
H  H6  1  0.07628823  0.74216366  0.22165907  1  0  0.094105  0.093907  0  1.02855  0
H  H7  1  0.92370680  0.25783312  0.77834140  1  0  0.094099  0.093876  0  1.028546  0
H  H8  1  0.17096968  0.44249649  0.40577820  1  0  0.08713  0.108181  0  1.044251  0
H  H9  1  0.82903249  0.55750557  0.59422265  1  0  0.087137  0.108181  0  1.044258  0
H  H10  1  0.24463644  0.58164716  0.31599104  1  0  0.094722  0.109975  0  0.995962  0
H  H11  1  0.75536334  0.41835489  0.68400881  1  0  0.094735  0.109981  0  0.995956  0
H  H12  1  0.23255638  0.64077974  0.46554359  1  0  0.092959  0.098427  0  1.010494  0
H  H13  1  0.76744459  0.35922336  0.53445723  1  0  0.092941  0.098368  0  1.010592  0
H  H14  1  0.02392281  0.62304304  0.48518011  1  0  0.085197  0.092754  0  1.024161  0
H  H15  1  0.97607697  0.37696006  0.51481958  1  0  0.085202  0.092759  0  1.024143  0
H  H16  1  0.22220352  0.83604644  0.33335020  1  0  0.089377  0.101059  0  1.009189  0
H  H17  1  0.77779745  0.16395561  0.66665015  1  0  0.089384  0.10104  0  1.009203  0
H  H18  1  0.10990155  0.87285226  0.43091263  1  0  0.085647  0.115202  0  1.027306  0
H  H19  1  0.89009942  0.12715084  0.56908569  1  0  0.085653  0.115197  0  1.027304  0
H  H20  1  0.65741873  0.82209647  0.30972387  1  0  0.089668  0.089353  0  1.064544  0
H  H21  1  0.34257511  0.17789821  0.69027827  1  0  0.089678  0.089372  0  1.064514  0
H  H22  1  0.43617824  0.83158027  0.22832294  1  0  0.081317  0.078304  0  1.066935  0
H  H23  1  0.56381203  0.16841334  0.77168035  1  0  0.081301  0.07827  0  1.067025  0
H  H24  1  0.47745003  0.74618538  0.09245544  1  0  0.085233  0.093009  0  1.045452  0
H  H25  1  0.52254738  0.25381141  0.90754540  1  0  0.085214  0.09292  0  1.045514  0
H  H26  1  0.74150662  0.65327136  0.03528240  1  0  0.079919  0.079994  0  1.073323  0
H  H27  1  0.25849079  0.34672753  0.96471690  1  0  0.079944  0.08004  0  1.073229  0
H  H28  1  0.96550200  0.64504594  0.11619780  1  0  0.085204  0.090026  0  1.058666  0
H  H29  1  0.03449778  0.35495506  0.88380095  1  0  0.085216  0.090033  0  1.058783  0
H  H30  1  0.63256670  0.38471280  0.18676199  1  0  0.104967  0.109825  0  0.989637  0
H  H31  1  0.36743428  0.61528715  0.81323866  1  0  0.104963  0.109815  0  0.98966  0
H  H32  1  0.57003586  0.10676820  0.05912814  1  0  0.090394  0.116238  0  1.005974  0
H  H33  1  0.42996630  0.89323385  0.94087146  1  0  0.090389  0.116251  0  1.00594  0
H  H34  1  0.58452705  0.28954232  0.05373148  1  0  0.080666  0.100369  0  1.024727  0
H  H35  1  0.41547392  0.71046078  0.94626872  1  0  0.08069  0.100398  0  1.024724  0
H  H36  1  0.85240737  0.07007956  0.08352516  1  0  0.084468  0.095305  0  1.00203  0
H  H37  1  0.14759479  0.92992354  0.91647429  1  0  0.084461  0.095346  0  1.002021  0
H  H38  1  0.83918259  0.19144586  0.98464962  1  0  0.0851  0.099084  0  1.007658  0
H  H39  1  0.16081957  0.80855725  0.01534983  1  0  0.08511  0.099109  0  1.007661  0
H  H40  1  0.85759708  0.39316510  0.05630286  1  0  0.09124  0.111973  0  0.997072  0
H  H41  1  0.14240508  0.60683696  0.94369799  1  0  0.091251  0.111971  0  0.997078  0
H  H42  1  0.02763808  0.28005876  0.05863795  1  0  0.090141  0.111834  0  1.035138  0
H  H43  1  0.97236408  0.71994330  0.94136228  1  0  0.090148  0.111852  0  1.035141  0
H  H44  1  0.50809464  0.48533197  0.29784715  1  0  0.096351  0.100081  0  1.031797  0
H  H45  1  0.49190753  0.51466904  0.70215198  1  0  0.096342  0.100074  0  1.031844  0
H  H46  1  0.41511211  0.47861222  0.45612038  1  0  0.097212  0.092314  0  1.043583  0
H  H47  1  0.58488887  0.52138668  0.54388041  1  0  0.097207  0.092309  0  1.04356  0
H  H48  1  0.46876899  0.27067766  0.56829824  1  0  0.095022  0.09262  0  1.031722  0
H  H49  1  0.53123080  0.72932229  0.43170191  1  0  0.09501  0.092598  0  1.031742  0
H  H50  1  0.61728040  0.06553187  0.52327780  1  0  0.094259  0.098162  0  1.019269  0
H  H51  1  0.38271820  0.93446598  0.47672277  1  0  0.094278  0.098192  0  1.01924  0
H  H52  1  0.70370397  0.06983756  0.36591259  1  0  0.085183  0.082902  0  1.067038  0
H  H53  1  0.29629344  0.93016028  0.63408811  1  0  0.085185  0.082906  0  1.067048  0
C  C54  1  0.96114935  0.72092309  0.26721021  1  0  -0.064024  -0.080025  0  3.807733  0
C  C55  1  0.03884687  0.27907579  0.73279109  1  0  -0.063985  -0.079879  0  3.807697  0
C  C56  1  0.14716515  0.55065611  0.37265055  1  0  -0.162339  -0.194195  0  3.900828  0
C  C57  1  0.85283583  0.44934489  0.62735057  1  0  -0.162329  -0.19416  0  3.900802  0
C  C58  1  0.12896959  0.65084492  0.43304951  1  0  -0.17324  -0.138358  0  3.967476  0
C  C59  1  0.87103137  0.34915819  0.56695069  1  0  -0.173277  -0.13837  0  3.967526  0
C  C60  1  0.11814211  0.80317436  0.38576379  1  0  -0.157516  -0.175394  0  3.881006  0
C  C61  1  0.88185767  0.19682769  0.61423543  1  0  -0.157526  -0.175355  0  3.881015  0
C  C62  1  0.82572269  0.73260802  0.21849725  1  0  -0.02547  0.080795  0  4.001356  0
C  C63  1  0.17427831  0.26738668  0.78150165  1  0  -0.025549  0.080653  0  4.00139  0
C  C64  1  0.67595474  0.78323415  0.25022766  1  0  -0.102974  -0.146971  0  4.007563  0
C  C65  1  0.32403195  0.21676261  0.74977367  1  0  -0.103045  -0.147128  0  4.007718  0
C  C66  1  0.55139031  0.78797065  0.20490061  1  0  -0.104257  -0.083647  0  4.038446  0
C  C67  1  0.44861547  0.21202301  0.79509920  1  0  -0.104179  -0.083434  0  4.038099  0
C  C68  1  0.57494104  0.74136864  0.12776051  1  0  -0.100591  -0.082585  0  4.003008  0
C  C69  1  0.42504563  0.25863337  0.87224007  1  0  -0.100592  -0.082604  0  4.00365  0
C  C70  1  0.72386595  0.68928582  0.09588603  1  0  -0.101135  -0.075277  0  4.00657  0
C  C71  1  0.27615055  0.31070683  0.90411406  1  0  -0.101178  -0.07533  0  4.006794  0
C  C72  1  0.84882581  0.68535031  0.14079283  1  0  -0.099022  -0.129521  0  3.959027  0
C  C73  1  0.15116324  0.31465065  0.85920953  1  0  -0.098954  -0.129386  0  3.958468  0
C  C74  1  0.65913025  0.28176330  0.22686200  1  0  -0.061473  -0.068031  0  3.787463  0
C  C75  1  0.34087192  0.71823665  0.77313853  1  0  -0.061442  -0.067934  0  3.787372  0
C  C76  1  0.62920854  0.18474283  0.08167341  1  0  -0.158457  -0.176772  0  3.866034  0
C  C77  1  0.37079362  0.81525923  0.91832556  1  0  -0.158486  -0.176846  0  3.866119  0
C  C78  1  0.80946124  0.17568071  0.05630056  1  0  -0.176409  -0.138354  0  3.954709  0
C  C79  1  0.19054211  0.82432240  0.94369877  1  0  -0.176408  -0.138417  0  3.954724  0
C  C80  1  0.89855573  0.28594163  0.08150911  1  0  -0.156198  -0.165668  0  3.847786  0
C  C81  1  0.10144643  0.71406043  0.91849112  1  0  -0.156206  -0.165662  0  3.847776  0
C  C82  1  0.61031330  0.27783095  0.32216058  1  0  -0.024637  0.077398  0  4.01455  0
C  C83  1  0.38968767  0.72217320  0.67783884  1  0  -0.024702  0.077293  0  4.014487  0
C  C84  1  0.53065026  0.39353014  0.34767644  1  0  -0.093224  -0.125539  0  3.967241  0
C  C85  1  0.46935430  0.60646877  0.65232336  1  0  -0.093174  -0.125484  0  3.967146  0
C  C86  1  0.47913561  0.38963129  0.43610252  1  0  -0.096221  -0.083088  0  4.023702  0
C  C87  1  0.52086655  0.61037287  0.56389616  1  0  -0.096214  -0.083066  0  4.023735  0
C  C88  1  0.50959673  0.27205039  0.49938367  1  0  -0.095837  -0.091255  0  4.014014  0
C  C89  1  0.49040664  0.72794747  0.50061579  1  0  -0.095813  -0.091221  0  4.013918  0
C  C90  1  0.59207530  0.15744964  0.47429326  1  0  -0.091232  -0.06512  0  3.988907  0
C  C91  1  0.40792089  0.84255450  0.52570541  1  0  -0.091285  -0.065196  0  3.988759  0
C  C92  1  0.64084856  0.15979312  0.38578595  1  0  -0.097818  -0.12979  0  3.967916  0
C  C93  1  0.35915243  0.84020368  0.61421577  1  0  -0.097795  -0.12975  0  3.968005  0
S  S94  1  0.93963304  0.84485666  0.33858873  1  0  -0.027587  0.06096  0  3.151576  0
S  S95  1  0.06036675  0.15514329  0.66141142  1  0  -0.027583  0.060919  0  3.151553  0
S  S96  1  0.96592929  0.53875920  0.33159798  1  0  -0.027685  0.071156  0  3.130489  0
S  S97  1  0.03407170  0.46123865  0.66840359  1  0  -0.027668  0.071136  0  3.130547  0
S  S98  1  0.87781361  0.25866909  0.19912340  1  0  -0.085422  0.051984  0  3.766839  0
S  S99  1  0.12218736  0.74133191  0.80087772  1  0  -0.085463  0.051885  0  3.76694  0
S  S100  1  0.55406669  0.14605261  0.19901773  1  0  -0.02207  0.074613  0  3.14363  0
S  S101  1  0.44593548  0.85394734  0.80098217  1  0  -0.022051  0.074639  0  3.143651  0
I  I102  1  0.21967899  0.02226759  0.11837202  1  0  -0.168578  -0.29024  0  1.8879  0
I  I103  1  0.78032199  0.97773026  0.88162892  1  0  -0.168575  -0.290247  0  1.887899  0
I  I104  1  0.28362254  0.47178446  0.11824830  1  0  -0.193729  -0.325568  0  1.877661  0
I  I105  1  0.71637724  0.52821549  0.88175185  1  0  -0.193715  -0.325541  0  1.877664  0
I  I106  1  0.13270847  0.17237217  0.37004513  1  0  -0.167408  -0.274793  0  1.983677  0
I  I107  1  0.86729251  0.82762778  0.62995552  1  0  -0.167407  -0.274799  0  1.983708  0
