# generated using pymatgen
data_NiH22C26N2O11
_symmetry_space_group_name_H-M   'P 1'
_cell_length_a   10.01224508
_cell_length_b   11.28252164
_cell_length_c   12.47750000
_cell_angle_alpha   94.67350438
_cell_angle_beta   102.79785302
_cell_angle_gamma   114.08342921
_symmetry_Int_Tables_number   1
_chemical_formula_structural   NiH22C26N2O11
_chemical_formula_sum   'Ni2 H44 C52 N4 O22'
_cell_volume   1231.23383761
_cell_formula_units_Z   2
loop_
 _symmetry_equiv_pos_site_id
 _symmetry_equiv_pos_as_xyz
  1  'x, y, z'
loop_
 _atom_site_type_symbol
 _atom_site_label
 _atom_site_symmetry_multiplicity
 _atom_site_fract_x
 _atom_site_fract_y
 _atom_site_fract_z
 _atom_site_occupancy
 _atom_site_hle17_bader_charge
 _atom_site_hle17_bader_spin_density
 _atom_site_hle17_ddec_charge
 _atom_site_hle17_ddec_spin_density
 _atom_site_hle17_ddec_sum_bond_order
 _atom_site_hle17_magmom
 _atom_site_hse06_10hf_ddec_charge
 _atom_site_hse06_10hf_ddec_spin_density
 _atom_site_hse06_10hf_ddec_sum_bond_order
 _atom_site_hse06_10hf_magmom
 _atom_site_hse06_ddec_charge
 _atom_site_hse06_ddec_spin_density
 _atom_site_hse06_ddec_sum_bond_order
 _atom_site_hse06_magmom
 _atom_site_pbe_bader_charge
 _atom_site_pbe_bader_spin_density
 _atom_site_pbe_cm5_charge
 _atom_site_pbe_ddec_charge
 _atom_site_pbe_ddec_spin_density
 _atom_site_pbe_ddec_sum_bond_order
 _atom_site_pbe_magmom
Ni  Ni0  1  0.28975883  0.13210527  0.65308573  1  1.217639  -1.552741  0.899326  -1.859087  1.938778  -1.535  0.893324  -1.875926  2.326335  -1.647  0.976414  -1.931372  2.258305  -1.725  1.200966  -1.589039  0.634672  0.830407  -1.826661  2.378252  -1.578
Ni  Ni1  1  0.71024000  0.86789307  0.34691113  1  1.217706  1.552747  0.899344  1.85909  1.938765  1.535  0.893352  1.875926  2.3263  1.647  0.97644  1.931372  2.258261  1.725  1.201217  1.588835  0.634732  0.830518  1.826546  2.37817  1.578
H  H2  1  0.31539056  0.85295239  0.11733115  1  0.697864  0.0  0.418585  -6e-06  0.862713  0.0  0.388557  -1e-05  0.938066  0.0  0.400795  -9e-06  0.923491  0.0  0.677382  -0.0  0.315852  0.379914  -1.2e-05  0.947933  0.0
H  H3  1  0.68460877  0.14704694  0.88266508  1  0.697796  -0.0  0.418663  6e-06  0.862649  0.0  0.388637  1e-05  0.937984  0.0  0.400873  9e-06  0.923386  0.0  0.677326  0.0  0.315886  0.379994  1.2e-05  0.947847  0.0
H  H4  1  0.68047689  0.54598380  0.03842289  1  0.658821  -1e-06  0.393847  1e-05  0.935114  0.0  0.358492  7e-06  1.007261  0.0  0.371945  6e-06  0.989083  0.0  0.64168  0.0  0.294987  0.349253  8e-06  1.019673  0.0
H  H5  1  0.31952242  0.45401750  0.96158310  1  0.65871  1e-06  0.39381  -1e-05  0.935152  0.0  0.358439  -7e-06  1.007328  0.0  0.371893  -6e-06  0.98915  0.0  0.641635  -0.0  0.294977  0.3492  -8e-06  1.01974  0.0
H  H6  1  0.51154768  0.22623055  0.58446119  1  0.668332  0.000964  0.405904  0.000449  0.912934  0.002  0.374784  -2.5e-05  0.978222  0.001  0.387147  0.000112  0.960798  0.001  0.640758  0.000239  0.282088  0.366069  -0.000179  0.99042  0.0
H  H7  1  0.48845267  0.77376878  0.41553763  1  0.668333  -0.000964  0.40589  -0.000449  0.912964  -0.002  0.37477  2.5e-05  0.978251  -0.001  0.387134  -0.000112  0.960826  -0.001  0.640745  -0.000239  0.282084  0.366057  0.000179  0.990444  0.0
H  H8  1  0.56580690  0.14691831  0.67341957  1  0.660715  0.000675  0.412873  -6e-06  0.886397  0.001  0.384238  -0.00044  0.949737  0.0  0.395658  -0.00026  0.933417  0.0  0.647832  -0.000217  0.288915  0.376102  -0.000602  0.961292  0.0
H  H9  1  0.43419143  0.85307904  0.32657794  1  0.660707  -0.000676  0.412885  6e-06  0.886388  -0.001  0.384258  0.00044  0.949716  0.0  0.395681  0.00026  0.933391  0.0  0.647862  0.000216  0.288924  0.376125  0.000602  0.961264  0.0
H  H10  1  0.30602806  0.22922957  0.85798464  1  0.666781  0.000439  0.420443  -9.7e-05  0.881722  0.001  0.390868  -0.000412  0.943553  0.0  0.402946  -0.000241  0.926088  0.0  0.649221  -0.000224  0.293539  0.382214  -0.000571  0.956011  0.0
H  H11  1  0.69397280  0.77077075  0.14201674  1  0.66678  -0.000439  0.420442  9.8e-05  0.881728  -0.001  0.390859  0.000412  0.943573  0.0  0.402935  0.000241  0.926109  0.0  0.649226  0.000225  0.293542  0.382208  0.000571  0.956023  0.0
H  H12  1  0.45786181  0.21346963  0.86264456  1  0.644829  0.000549  0.411183  1.9e-05  0.893712  0.001  0.381332  -0.000337  0.959656  0.0  0.393409  -0.000173  0.942231  0.0  0.631285  -0.000194  0.289581  0.372691  -0.000494  0.972058  0.0
H  H13  1  0.54213802  0.78653069  0.13735584  1  0.644826  -0.000549  0.411174  -1.9e-05  0.893722  -0.001  0.38132  0.000337  0.959676  0.0  0.393398  0.000174  0.94225  0.0  0.631288  0.000194  0.289581  0.372683  0.000494  0.972071  0.0
H  H14  1  0.96456939  0.99720612  0.59975776  1  0.664741  -0.001649  0.424858  -0.001154  0.874825  -0.003  0.399631  -0.001107  0.929993  -0.003  0.41163  -0.000927  0.912688  -0.002  0.647219  -0.001857  0.29158  0.391038  -0.001242  0.942323  -0.003
H  H15  1  0.03542837  0.00279618  0.40024241  1  0.664808  0.001649  0.424937  0.001154  0.874697  0.003  0.399669  0.001107  0.929944  0.003  0.411671  0.000927  0.912633  0.002  0.647123  0.001859  0.291591  0.391084  0.001243  0.942262  0.003
H  H16  1  0.04288075  0.11159697  0.70994353  1  0.661634  -0.000271  0.421801  -0.000311  0.885813  -0.001  0.394558  -0.000384  0.944459  -0.001  0.406041  -0.000237  0.927892  0.0  0.643939  -0.000658  0.289677  0.386383  -0.000519  0.956243  -0.001
H  H17  1  0.95712061  0.88840434  0.29005641  1  0.661634  0.000271  0.421808  0.000311  0.885807  0.001  0.394573  0.000384  0.944442  0.001  0.406057  0.000236  0.927874  0.0  0.643922  0.000659  0.289674  0.386401  0.000519  0.956221  0.001
H  H18  1  0.09306567  0.24166496  0.52858987  1  0.031026  -0.00182  0.082313  -0.000738  0.951423  -0.002  0.087341  -0.00056  1.019917  -0.001  0.089604  -0.000396  1.017862  -0.001  0.13759  -0.00188  0.117922  0.085569  -0.000723  1.021633  -0.001
H  H19  1  0.90693571  0.75833437  0.47140672  1  0.031052  0.00182  0.082338  0.000738  0.951412  0.002  0.087363  0.00056  1.019904  0.001  0.089626  0.000395  1.017848  0.001  0.137669  0.001881  0.117933  0.085602  0.000724  1.021607  0.001
H  H20  1  0.08113943  0.45642384  0.51938944  1  -0.024648  -0.000732  0.094233  -0.000315  0.977384  0.0  0.102391  -0.000318  1.045304  0.0  0.105018  -0.000221  1.045606  0.0  0.066941  -0.000957  0.10074  0.100502  -0.000417  1.045231  0.0
H  H21  1  0.91886145  0.54357450  0.48060779  1  -0.024719  0.000731  0.094218  0.000315  0.97737  0.0  0.102336  0.000318  1.045335  0.0  0.104962  0.000221  1.045638  0.0  0.066887  0.000956  0.100734  0.100464  0.000417  1.045243  0.0
H  H22  1  0.51016995  0.64140031  0.77865464  1  0.029602  -0.000782  0.111543  -0.000366  0.948373  0.0  0.121419  -0.000364  1.009006  0.0  0.123758  -0.000256  1.00991  0.0  0.091634  -0.001076  0.109982  0.119734  -0.000488  1.008509  0.0
H  H23  1  0.48982990  0.35859803  0.22134481  1  0.029573  0.000783  0.111552  0.000366  0.948425  0.0  0.121422  0.000364  1.009061  0.0  0.123758  0.000256  1.009971  0.0  0.091783  0.001076  0.11  0.119747  0.000488  1.008557  0.0
H  H24  1  0.50529068  0.41873475  0.77433471  1  0.07934  -0.001764  0.091234  -0.00067  0.946794  -0.001  0.095707  -0.000486  1.015175  -0.001  0.098373  -0.000339  1.011981  -0.001  0.113912  -0.001791  0.120476  0.093806  -0.000637  1.017337  -0.001
H  H25  1  0.49470816  0.58126359  0.22566456  1  0.079347  0.001763  0.091257  0.000669  0.946778  0.001  0.095724  0.000486  1.015165  0.001  0.098391  0.000339  1.011969  0.001  0.113944  0.001791  0.120468  0.093823  0.000638  1.017332  0.001
H  H26  1  0.20902679  0.67246109  0.46937541  1  -0.012566  -0.00076  0.104417  -0.000327  0.951551  0.0  0.116848  -0.000281  1.010234  0.0  0.119341  -0.000199  1.01  0.0  0.082758  -0.000845  0.109054  0.115002  -0.000357  1.01062  0.0
H  H27  1  0.79097257  0.32753626  0.53061988  1  -0.012572  0.000761  0.104472  0.000327  0.951575  0.0  0.11691  0.000281  1.010244  0.0  0.119406  0.000199  1.010001  0.0  0.082843  0.000845  0.109091  0.115076  0.000357  1.010615  0.0
H  H28  1  0.21081129  0.89424110  0.47697101  1  0.064601  -0.001755  0.09723  -0.000682  0.94982  -0.002  0.102064  -0.000499  1.015759  -0.001  0.105138  -0.000347  1.012712  -0.001  0.14151  -0.00177  0.120554  0.099686  -0.000657  1.018266  -0.001
H  H29  1  0.78918347  0.10575526  0.52302419  1  0.064644  0.001753  0.097278  0.000681  0.949724  0.002  0.102059  0.000499  1.015735  0.001  0.105133  0.000348  1.012688  0.001  0.14106  0.001771  0.120554  0.09969  0.000657  1.018234  0.001
H  H30  1  0.34889320  0.97529081  0.82335284  1  0.085614  -0.001711  0.097843  -0.000646  0.942118  -0.002  0.108525  -0.000452  0.997519  -0.001  0.1112  -0.000306  0.994633  -0.001  0.118257  -0.001684  0.122356  0.106463  -0.000602  0.999736  -0.001
H  H31  1  0.65110411  0.02470654  0.17664288  1  0.085602  0.001711  0.097838  0.000646  0.942124  0.002  0.108529  0.000452  0.997517  0.001  0.111201  0.000306  0.994635  0.001  0.118201  0.001686  0.122355  0.106476  0.000602  0.999725  0.001
H  H32  1  0.36892134  0.76302336  0.83087256  1  0.039563  -0.000728  0.107505  -0.000348  0.952238  0.0  0.118481  -0.000344  1.010495  0.0  0.12117  -0.000242  1.010399  0.0  0.086325  -0.001  0.107469  0.116457  -0.000451  1.010817  0.0
H  H33  1  0.63107801  0.23697399  0.16912272  1  0.039379  0.000729  0.107473  0.000348  0.952276  0.0  0.118451  0.000344  1.010541  0.0  0.121151  0.000241  1.010431  0.0  0.086307  0.001  0.107463  0.116437  0.00045  1.010856  0.0
H  H34  1  0.16131012  0.03901001  0.02726104  1  0.053704  -0.000106  0.106926  -5.2e-05  0.951692  0.0  0.118074  -4.4e-05  1.008663  0.0  0.121339  -2.7e-05  1.006411  0.0  0.094304  -0.000111  0.109302  0.115694  -6.2e-05  1.010383  0.0
H  H35  1  0.83868664  0.96099031  0.97273641  1  0.05368  0.000107  0.106974  5.3e-05  0.951641  0.0  0.118118  4.4e-05  1.008605  0.0  0.121382  2.7e-05  1.006354  0.0  0.094341  0.000111  0.10932  0.11573  6.2e-05  1.010331  0.0
H  H36  1  0.04875982  0.19560711  0.00456241  1  0.03432  9.2e-05  0.102158  4.1e-05  0.969221  0.0  0.108855  -7e-06  1.037303  0.0  0.111824  -3e-06  1.036156  0.0  0.092258  -1.7e-05  0.102771  0.106677  -1.3e-05  1.038287  0.0
H  H37  1  0.95123694  0.80439321  0.99543664  1  0.034387  -9.3e-05  0.10215  -4.2e-05  0.969264  0.0  0.108865  7e-06  1.037331  0.0  0.111827  3e-06  1.036208  0.0  0.092309  1.7e-05  0.102763  0.106685  1.3e-05  1.038311  0.0
H  H38  1  0.19338083  0.32682485  0.36261570  1  0.006881  7.4e-05  0.093258  5e-05  0.966242  0.0  0.10344  -1.9e-05  1.030796  0.0  0.106464  -1.1e-05  1.029948  0.0  0.069181  -7.5e-05  0.100366  0.101269  -2.3e-05  1.031582  0.0
H  H39  1  0.80662360  0.67317646  0.63738478  1  0.006868  -7.3e-05  0.093243  -5e-05  0.966238  0.0  0.103429  1.8e-05  1.030787  0.0  0.106454  1.1e-05  1.029937  0.0  0.069171  7.5e-05  0.100349  0.101253  2.3e-05  1.031571  0.0
H  H40  1  0.85335021  0.24494103  0.04032499  1  0.041073  -3e-06  0.106247  -2e-06  0.97802  0.0  0.113452  2e-06  1.045323  0.0  0.117161  2e-06  1.042851  0.0  0.16264  -4e-06  0.108982  0.110748  -1e-06  1.047229  0.0
H  H41  1  0.14664702  0.75506226  0.95967756  1  0.041091  8e-06  0.106206  4e-06  0.978026  0.0  0.113427  -2e-06  1.04532  0.0  0.117137  -1e-06  1.042846  0.0  0.16272  4e-06  0.10896  0.110722  1e-06  1.047222  0.0
H  H42  1  0.14235157  0.69348193  0.27095260  1  0.075282  0.000166  0.108415  0.000154  0.964175  0.0  0.11507  0.000212  1.028856  0.0  0.119346  0.000151  1.025803  0.0  0.1533  0.00039  0.107571  0.111942  0.000274  1.031118  0.0
H  H43  1  0.85765083  0.30651740  0.72905459  1  0.075326  -0.000172  0.108381  -0.000157  0.964214  0.0  0.115036  -0.000212  1.028916  0.0  0.119311  -0.00015  1.025863  0.0  0.153395  -0.00039  0.107565  0.111904  -0.000274  1.03118  0.0
H  H44  1  0.24850631  0.53102631  0.29430201  1  0.035792  7.7e-05  0.105342  8.5e-05  0.943153  0.0  0.116137  0.000113  1.003582  0.0  0.119908  7.2e-05  1.000976  0.0  0.09578  0.000243  0.107428  0.113442  0.000161  1.005394  0.0
H  H45  1  0.75149510  0.46897104  0.70570004  1  0.035808  -7.1e-05  0.10536  -8.2e-05  0.943072  0.0  0.116155  -0.000113  1.003501  0.0  0.119924  -7.1e-05  1.000897  0.0  0.095817  -0.000243  0.107427  0.113457  -0.000161  1.005316  0.0
C  C46  1  0.18399495  0.33318997  0.58143478  1  0.543543  0.01148  0.125473  0.006702  3.718272  0.008  0.098464  0.001655  3.974862  0.003  0.106946  0.002102  3.993387  0.003  0.435979  0.003512  0.044472  0.092295  0.001595  3.962816  0.003
C  C47  1  0.81600593  0.66680837  0.41856325  1  0.543462  -0.01148  0.125472  -0.006702  3.718183  -0.008  0.098486  -0.001655  3.974754  -0.003  0.106966  -0.002103  3.993282  -0.003  0.435974  -0.00351  0.044487  0.092322  -0.001593  3.962691  -0.003
C  C48  1  0.17834601  0.45376025  0.57731846  1  0.091147  -0.010509  -0.170331  -0.006436  3.722057  -0.008  -0.186395  -0.002229  3.965968  -0.003  -0.195033  -0.002168  3.987361  -0.003  -0.008327  -0.004325  -0.086527  -0.180837  -0.002499  3.952145  -0.003
C  C49  1  0.82165335  0.54623710  0.42268003  1  0.091144  0.01051  -0.170367  0.006437  3.721928  0.008  -0.186388  0.002229  3.965857  0.003  -0.195026  0.002169  3.98725  0.003  -0.008318  0.004326  -0.086523  -0.180819  0.002499  3.952002  0.003
C  C50  1  0.29471529  0.56887569  0.64950760  1  -0.03783  0.010689  0.108639  0.006442  3.74996  0.007  0.118981  0.002337  3.982105  0.003  0.124473  0.002274  4.0011  0.003  -0.011233  0.004911  0.016837  0.114988  0.002798  3.969633  0.003
C  C51  1  0.70528457  0.43112265  0.35049025  1  -0.037475  -0.01069  0.10868  -0.006443  3.749853  -0.007  0.119008  -0.002337  3.982061  -0.003  0.124503  -0.002275  4.001053  -0.003  -0.011203  -0.004909  0.016852  0.115024  -0.002797  3.969578  -0.003
C  C52  1  0.41481802  0.55572493  0.72154034  1  0.112871  -0.010999  -0.14273  -0.006764  3.668141  -0.008  -0.164902  -0.002383  3.919235  -0.003  -0.171864  -0.002331  3.937813  -0.003  0.017787  -0.004487  -0.076882  -0.160599  -0.00262  3.907398  -0.003
C  C53  1  0.58517979  0.44427341  0.27845875  1  0.112475  0.010994  -0.142746  0.006761  3.668203  0.008  -0.164894  0.002382  3.919286  0.003  -0.171855  0.002332  3.93786  0.003  0.017604  0.004488  -0.076901  -0.160576  0.002621  3.907428  0.003
C  C54  1  0.41372619  0.43169356  0.71882183  1  0.51604  0.011062  0.143501  0.006429  3.665023  0.008  0.116444  0.001421  3.922866  0.002  0.126326  0.001922  3.93863  0.003  0.480018  0.003151  0.053267  0.109384  0.001349  3.912606  0.002
C  C55  1  0.58627317  0.56830379  0.28117746  1  0.516049  -0.011053  0.143551  -0.006422  3.66495  -0.008  0.11651  -0.00142  3.922783  -0.002  0.126391  -0.001923  3.938547  -0.003  0.480013  -0.003147  0.053386  0.109451  -0.001347  3.912521  -0.002
C  C56  1  0.28841988  0.69745556  0.65002436  1  -0.020323  0.010855  0.105263  0.00655  3.751734  0.007  0.114558  0.002282  3.985324  0.003  0.119681  0.002276  4.004378  0.003  -0.010861  0.004677  0.015861  0.111159  0.002668  3.97242  0.003
C  C57  1  0.71158200  0.30254476  0.34997400  1  -0.020384  -0.010836  0.105348  -0.006539  3.751626  -0.007  0.114547  -0.002283  3.985374  -0.003  0.119666  -0.002273  4.004438  -0.003  -0.010745  -0.004676  0.015928  0.111156  -0.002667  3.972457  -0.003
C  C58  1  0.23996976  0.73571755  0.55019338  1  0.112287  -0.011193  -0.140805  -0.006844  3.692316  -0.008  -0.157932  -0.002313  3.936221  -0.003  -0.164257  -0.002284  3.954663  -0.003  0.003458  -0.004468  -0.077535  -0.15388  -0.002544  3.924132  -0.003
C  C59  1  0.76002858  0.26427981  0.44980252  1  0.112325  0.011171  -0.140915  0.006831  3.692411  0.008  -0.158021  0.002313  3.936345  0.003  -0.164344  0.002281  3.954785  0.003  0.003393  0.00447  -0.077587  -0.153947  0.002545  3.924216  0.003
C  C60  1  0.24021989  0.85924430  0.55356341  1  0.525335  0.011154  0.129951  0.006411  3.663291  0.008  0.103325  0.001354  3.918823  0.002  0.111866  0.001889  3.935515  0.003  0.449985  0.002832  0.050558  0.097336  0.001141  3.90791  0.002
C  C61  1  0.75977589  0.14075207  0.44643277  1  0.525396  -0.011134  0.129985  -0.006399  3.66329  -0.008  0.103394  -0.001353  3.918795  -0.002  0.111935  -0.001889  3.935488  -0.003  0.45055  -0.00283  0.050595  0.097418  -0.00114  3.907856  -0.002
C  C62  1  0.32156373  0.90578104  0.74693283  1  0.496367  0.011714  0.132093  0.00686  3.678003  0.009  0.104334  0.001579  3.933529  0.003  0.112495  0.002142  3.952109  0.003  0.461787  0.003077  0.048885  0.098723  0.001379  3.920821  0.002
C  C63  1  0.67843358  0.09421631  0.25306369  1  0.496135  -0.011693  0.132072  -0.006847  3.677992  -0.009  0.104283  -0.001578  3.933539  -0.003  0.112442  -0.002141  3.952124  -0.003  0.462206  -0.003074  0.048876  0.098674  -0.001377  3.920833  -0.002
C  C64  1  0.33044409  0.78622495  0.75012261  1  0.058386  -0.011087  -0.159044  -0.006796  3.707629  -0.008  -0.178084  -0.002338  3.957483  -0.003  -0.18621  -0.002276  3.979064  -0.003  -0.002611  -0.004378  -0.082196  -0.172956  -0.002554  3.943275  -0.003
C  C65  1  0.66955526  0.21377240  0.24987187  1  0.058794  0.011066  -0.159042  0.006783  3.707566  0.008  -0.17804  0.002339  3.957439  0.003  -0.186172  0.002275  3.979016  0.003  -0.002633  0.00438  -0.082206  -0.172901  0.002556  3.943217  0.003
C  C66  1  0.24296049  0.16961825  0.30263202  1  -0.023229  -0.004903  -0.027002  -0.00318  3.711278  -0.004  -0.015512  -0.001868  3.948871  -0.003  -0.01618  -0.001114  3.966219  -0.002  -0.025124  -0.004355  0.001805  -0.015201  -0.002644  3.937444  -0.004
C  C67  1  0.75704189  0.83038306  0.69736489  1  -0.023118  0.004903  -0.027135  0.003179  3.711281  0.004  -0.01561  0.001866  3.948915  0.003  -0.016279  0.001118  3.966263  0.002  -0.025343  0.004357  0.001765  -0.015307  0.002646  3.937474  0.004
C  C68  1  0.23544358  0.08821431  0.20759586  1  0.018942  -0.001583  -0.096133  -0.000914  3.732405  -0.001  -0.084973  -0.00045  3.971769  -0.001  -0.093294  -0.000371  3.993623  0.0  0.039903  -0.001223  -0.015245  -0.079806  -0.000644  3.957528  -0.001
C  C69  1  0.76455625  0.91178601  0.79240213  1  0.018589  0.00159  -0.096123  0.000918  3.73245  0.001  -0.084934  0.000448  3.971789  0.001  -0.093257  0.000369  3.993643  0.0  0.039938  0.001223  -0.015214  -0.079755  0.000643  3.957526  0.001
C  C70  1  0.16631683  0.10083869  0.10095380  1  0.025199  0.001221  -0.041669  0.000713  3.713024  0.001  -0.068163  0.000211  3.965181  0.0  -0.066083  0.000283  3.983171  0.0  -0.048189  0.000355  -0.076916  -0.069388  0.000161  3.953191  0.0
C  C71  1  0.83367943  0.89916064  0.89904428  1  0.024226  -0.00123  -0.041679  -0.000719  3.712947  -0.001  -0.068157  -0.00021  3.965085  0.0  -0.066075  -0.00028  3.983074  0.0  -0.048212  -0.000355  -0.076881  -0.069387  -0.00016  3.953093  0.0
C  C72  1  0.10383095  0.18990096  0.08821963  1  0.052833  -0.003228  -0.104228  -0.001953  3.71606  -0.002  -0.12747  -0.001039  3.969962  -0.001  -0.130876  -0.000787  3.989311  -0.001  -0.038645  -0.002583  -0.086943  -0.12532  -0.001471  3.956969  -0.002
C  C73  1  0.89616733  0.81010035  0.91177976  1  0.053835  0.003243  -0.104204  0.001962  3.716027  0.002  -0.127467  0.001043  3.969918  0.001  -0.130876  0.000783  3.989265  0.001  -0.03871  0.002582  -0.086977  -0.125314  0.001471  3.956918  0.002
C  C74  1  0.11482726  0.27405556  0.18229929  1  -0.047531  0.001276  0.071478  0.000757  3.780338  0.001  0.086393  0.000147  4.012497  0.0  0.088279  0.000234  4.035498  0.0  -0.045844  0.000255  6e-05  0.085234  0.000132  3.9966  0.0
C  C75  1  0.88517105  0.72594377  0.81770156  1  -0.047324  -0.00129  0.071379  -0.000766  3.780261  -0.001  0.086273  -0.000156  4.012464  0.0  0.088159  -0.000229  4.035464  0.0  -0.04583  -0.000255  5.1e-05  0.085118  -0.000132  3.996552  0.0
C  C76  1  0.18533647  0.26287083  0.28871210  1  0.064046  -0.003275  -0.130169  -0.001972  3.700318  -0.002  -0.160243  -0.001106  3.947231  -0.001  -0.164076  -0.000848  3.966155  -0.001  -0.007119  -0.00253  -0.085296  -0.157656  -0.001438  3.934428  -0.001
C  C77  1  0.81466336  0.73712949  0.71128669  1  0.063944  0.00328  -0.130071  0.001975  3.700129  0.002  -0.16014  0.001113  3.947036  0.001  -0.163972  0.000843  3.965958  0.001  -0.007108  0.00253  -0.085271  -0.157542  0.001438  3.934218  0.001
C  C78  1  0.05569220  0.37382663  0.16974191  1  -0.010133  -0.000362  0.064732  -0.000219  3.776897  0.0  0.079097  -8.4e-05  4.01146  0.0  0.078882  -7.1e-05  4.034658  0.0  -0.003855  -7.4e-05  -4.7e-05  0.079183  -5.2e-05  3.995499  0.0
C  C79  1  0.94430559  0.62617369  0.83026053  1  -0.010288  0.000446  0.064772  0.00027  3.776771  0.0  0.07915  7.7e-05  4.011338  0.0  0.078934  7.4e-05  4.034534  0.0  -0.003863  7.4e-05  -2.4e-05  0.07923  5.2e-05  3.995376  0.0
C  C80  1  0.91732934  0.34392054  0.09122574  1  0.048428  0.000224  -0.107555  0.000136  3.702001  0.0  -0.141782  6e-06  3.957312  0.0  -0.143641  3e-05  3.978273  0.0  -0.086866  -2e-05  -0.080525  -0.140394  -1.5e-05  3.94315  0.0
C  C81  1  0.08266792  0.65608077  0.90877907  1  0.048897  -0.000313  -0.107474  -0.000189  3.70185  0.0  -0.141725  6e-06  3.957169  0.0  -0.14358  -3.5e-05  3.978124  0.0  -0.086961  2e-05  -0.080509  -0.140344  1.5e-05  3.942993  0.0
C  C82  1  0.85438956  0.43425425  0.07774961  1  -0.054211  -0.000197  -0.093675  -0.000116  3.722239  0.0  -0.080778  -2.8e-05  3.967251  0.0  -0.087022  -2.3e-05  3.990719  0.0  -0.065572  3e-05  -0.01515  -0.076806  1.9e-05  3.951591  0.0
C  C83  1  0.14561024  0.56574805  0.92225814  1  -0.054533  0.000279  -0.093748  0.000166  3.722249  0.0  -0.080854  2.6e-05  3.967271  0.0  -0.087095  2.5e-05  3.99074  0.0  -0.065732  -3e-05  -0.015214  -0.076853  -1.9e-05  3.951561  0.0
C  C84  1  0.93688648  0.56299342  0.14651665  1  -0.016662  0.000353  -0.087192  0.000201  3.688993  0.0  -0.07486  5.2e-05  3.931335  0.0  -0.08066  6.2e-05  3.954679  0.0  -0.019448  2.6e-05  -0.014543  -0.070935  -5e-06  3.915523  0.0
C  C85  1  0.06311485  0.43700987  0.85349145  1  -0.015416  -0.000446  -0.086979  -0.000257  3.688878  0.0  -0.074637  -6.1e-05  3.931202  0.0  -0.080447  -6.1e-05  3.954559  0.0  -0.019375  -2.6e-05  -0.014339  -0.070719  5e-06  3.915376  0.0
C  C86  1  0.07826150  0.59310828  0.22222555  1  0.026992  7.2e-05  -0.059811  0.000105  3.737397  0.0  -0.086618  0.000209  3.996042  0.0  -0.087213  0.000127  4.015174  0.0  -0.067778  0.000307  -0.083766  -0.086057  0.000245  3.982794  0.0
C  C87  1  0.92174038  0.40689203  0.77778322  1  0.026084  2.4e-05  -0.059861  -4.7e-05  3.737429  0.0  -0.086684  -0.000203  3.99609  0.0  -0.087278  -0.000128  4.015229  0.0  -0.068518  -0.000307  -0.083855  -0.086123  -0.000245  3.982839  0.0
C  C88  1  0.13709834  0.50159020  0.23534437  1  0.033884  0.000364  -0.08879  0.000258  3.706611  0.0  -0.111818  0.000162  3.959343  0.0  -0.112794  0.00013  3.976639  0.0  -0.033775  8.1e-05  -0.079784  -0.110779  9.8e-05  3.94714  0.0
C  C89  1  0.86290202  0.49840913  0.76466085  1  0.033913  -0.000462  -0.088814  -0.000317  3.706495  0.0  -0.11184  -0.000161  3.959229  0.0  -0.112816  -0.000132  3.976524  0.0  -0.033295  -8.2e-05  -0.079776  -0.110799  -9.8e-05  3.947023  0.0
C  C90  1  0.31545478  0.16828546  0.42171236  1  1.595294  0.003439  0.664448  0.001854  3.877092  0.004  0.608894  -0.000234  4.19164  0.001  0.645604  -3e-06  4.180887  0.001  1.60416  0.000344  0.219754  0.583391  -0.000387  4.198008  0.001
C  C91  1  0.68455217  0.83171882  0.57828478  1  1.595484  -0.00344  0.664782  -0.001856  3.876666  -0.004  0.609083  0.000234  4.191457  -0.001  0.645797  2e-06  4.180703  -0.001  1.604417  -0.000342  0.219871  0.583592  0.000388  4.197804  -0.001
C  C92  1  0.29414598  0.98686143  0.21708687  1  1.501951  -6.7e-05  0.671359  -1.3e-05  3.809247  0.0  0.614747  -2.7e-05  4.120344  0.0  0.648236  -1.1e-05  4.111716  0.0  1.522667  -0.000234  0.236154  0.591964  -0.000115  4.12592  0.0
C  C93  1  0.70585282  0.01313889  0.78291014  1  1.502054  6.9e-05  0.671346  1.4e-05  3.809326  0.0  0.61464  2.7e-05  4.120541  0.0  0.64813  1.1e-05  4.111914  0.0  1.522723  0.000233  0.236086  0.59186  0.000115  4.126102  0.0
C  C94  1  0.70136802  0.37973463  0.99098667  1  1.548962  -0.000115  0.653715  -9.6e-05  3.825255  0.0  0.59888  -0.000154  4.128516  0.0  0.632537  -8.9e-05  4.120213  0.0  1.561665  -0.00031  0.231784  0.57623  -0.000238  4.133452  0.0
C  C95  1  0.29863229  0.62026866  0.00902043  1  1.548789  0.000113  0.653491  9.4e-05  3.825362  0.0  0.598648  0.000152  4.128645  0.0  0.632305  8.9e-05  4.120346  0.0  1.561642  0.00031  0.231705  0.576007  0.000238  4.133559  0.0
C  C96  1  0.89293688  0.67645451  0.15236148  1  1.545211  -4.3e-05  0.644583  -4.2e-05  3.866065  0.0  0.587873  -1e-06  4.173369  0.0  0.620933  -1e-05  4.166112  0.0  1.56286  3.8e-05  0.220986  0.565623  5e-06  4.177493  0.0
C  C97  1  0.10707003  0.32355373  0.84764797  1  1.54493  5.5e-05  0.64455  5.1e-05  3.866305  0.0  0.587832  1e-06  4.17363  0.0  0.620901  1.1e-05  4.166366  0.0  1.562635  -3.8e-05  0.220969  0.56558  -5e-06  4.177748  0.0
N  N98  1  0.29970531  0.32129778  0.65080316  1  -1.223385  -0.083525  -0.294663  -0.054  3.286391  -0.08  -0.251134  -0.034282  3.565747  -0.052  -0.278027  -0.028234  3.586677  -0.044  -1.219178  -0.064636  -0.324908  -0.232215  -0.039289  3.551799  -0.058
N  N99  1  0.70029505  0.67870155  0.34919485  1  -1.223288  0.083519  -0.294723  0.053996  3.28625  0.08  -0.251223  0.034282  3.565617  0.052  -0.278115  0.028234  3.586546  0.044  -1.219123  0.064664  -0.324951  -0.232296  0.039304  3.551667  0.058
N  N100  1  0.27975292  0.94357106  0.65047120  1  -1.200122  -0.086308  -0.283227  -0.055611  3.276372  -0.083  -0.241601  -0.034859  3.562698  -0.053  -0.268326  -0.028528  3.583029  -0.045  -1.190586  -0.06619  -0.320463  -0.222504  -0.040166  3.548628  -0.06
N  N101  1  0.72024336  0.05642629  0.34952514  1  -1.200208  0.086292  -0.283313  0.055601  3.276391  0.083  -0.241648  0.034859  3.562669  0.053  -0.268374  0.028528  3.582999  0.045  -1.191187  0.066219  -0.320448  -0.222545  0.040181  3.548594  0.06
O  O102  1  0.22463995  0.10088915  0.47637254  1  -1.179704  -0.072648  -0.636586  -0.045359  2.116457  -0.072  -0.593981  -0.028844  2.376912  -0.047  -0.632378  -0.022543  2.366814  -0.037  -1.167295  -0.058845  -0.299876  -0.564995  -0.034714  2.382675  -0.055
O  O103  1  0.77536600  0.89911315  0.52362508  1  -1.17986  0.072635  -0.636656  0.045352  2.116474  0.072  -0.594049  0.028844  2.377026  0.047  -0.632443  0.022543  2.366927  0.037  -1.167501  0.058889  -0.299895  -0.565049  0.034736  2.382769  0.055
O  O104  1  0.45550707  0.24151951  0.46119419  1  -1.180503  0.001319  -0.580898  0.000911  1.987042  0.001  -0.532363  0.000286  2.206414  0.0  -0.558341  0.000481  2.200021  0.0  -1.16274  -0.000218  -0.298474  -0.514081  9.1e-05  2.210317  0.0
O  O105  1  0.54449684  0.75848278  0.53880066  1  -1.180537  -0.001319  -0.580991  -0.00091  1.986706  -0.001  -0.532414  -0.000286  2.206173  0.0  -0.558393  -0.000481  2.199783  0.0  -1.162663  0.00022  -0.298477  -0.514125  -9e-05  2.210066  0.0
O  O106  1  0.34372244  0.95990686  0.30703707  1  -1.165174  0.000186  -0.553841  4.1e-05  1.969594  0.0  -0.500831  0.000136  2.182078  0.0  -0.521939  5.1e-05  2.173461  0.0  -1.152926  0.000584  -0.273344  -0.486627  0.000238  2.188047  0.0
O  O107  1  0.65627689  0.04009247  0.69295995  1  -1.165251  -0.000185  -0.553867  -4e-05  1.969655  0.0  -0.500733  -0.000135  2.182082  0.0  -0.52184  -5.1e-05  2.173469  0.0  -1.153035  -0.000584  -0.273273  -0.486529  -0.000238  2.188043  0.0
O  O108  1  0.28808458  0.92935565  0.11699577  1  -1.212671  -7.2e-05  -0.566179  -4.8e-05  2.117484  0.0  -0.516685  -6.2e-05  2.343729  0.0  -0.538423  -4.1e-05  2.327215  0.0  -1.192195  -0.000175  -0.334954  -0.501438  -0.000109  2.354375  0.0
O  O109  1  0.71191116  0.07064467  0.88300069  1  -1.212594  7.3e-05  -0.566266  4.8e-05  2.117573  0.0  -0.516775  6.1e-05  2.34389  0.0  -0.538512  4.1e-05  2.327354  0.0  -1.192142  0.000175  -0.335014  -0.501531  0.000109  2.354531  0.0
O  O110  1  0.64798201  0.26678509  0.93066428  1  -1.207413  -0.00034  -0.59601  -0.000162  2.041928  0.0  -0.533842  -0.000122  2.258857  0.0  -0.558307  -4.6e-05  2.248402  0.0  -1.188094  -0.000519  -0.289575  -0.517155  -0.000188  2.265781  0.0
O  O111  1  0.35201930  0.73322018  0.06933995  1  -1.207432  0.000346  -0.595879  0.000166  2.041861  0.0  -0.533711  0.000123  2.258793  0.0  -0.558178  4.5e-05  2.24835  0.0  -1.188132  0.000519  -0.289579  -0.517061  0.000188  2.265731  0.0
O  O112  1  0.62101829  0.44565468  0.97939512  1  -1.186546  -5.4e-05  -0.542508  -4.1e-05  2.081313  0.0  -0.487202  -7.3e-05  2.293469  0.0  -0.509949  -5.1e-05  2.278297  0.0  -1.167146  -0.000204  -0.312683  -0.471497  -0.000102  2.303156  0.0
O  O113  1  0.37898199  0.55435058  0.02061454  1  -1.186453  5.7e-05  -0.542427  4.3e-05  2.081319  0.0  -0.487088  7.3e-05  2.293445  0.0  -0.509837  5.1e-05  2.278281  0.0  -1.167067  0.000204  -0.312621  -0.471389  0.000102  2.303124  0.0
O  O114  1  0.75603133  0.65729482  0.10096925  1  -1.197425  -1.1e-05  -0.601609  -6.4e-05  2.13131  0.0  -0.535901  3.3e-05  2.347851  0.0  -0.5619  -1e-05  2.335553  0.0  -1.177999  0.000275  -0.30727  -0.517981  7.2e-05  2.355875  0.0
O  O115  1  0.24397659  0.34271341  0.89903877  1  -1.197401  7e-06  -0.601579  6.1e-05  2.131345  0.0  -0.535889  -3.4e-05  2.347913  0.0  -0.561897  1e-05  2.335616  0.0  -1.177809  -0.000275  -0.307318  -0.517969  -7.2e-05  2.355938  0.0
O  O116  1  0.99110456  0.78642779  0.20928113  1  -1.183834  0.000642  -0.585119  0.000348  2.005503  0.001  -0.533845  0.000177  2.230265  0.0  -0.557053  8.9e-05  2.222568  0.0  -1.17163  0.000625  -0.29764  -0.517771  0.000282  2.235237  0.001
O  O117  1  0.00890444  0.21357649  0.79072760  1  -1.183812  -0.000653  -0.585169  -0.000355  2.005688  -0.001  -0.533862  -0.000175  2.230432  0.0  -0.55707  -8.9e-05  2.222733  0.0  -1.171403  -0.000625  -0.297645  -0.517787  -0.000282  2.235403  -0.001
O  O118  1  0.52303659  0.21208935  0.66487720  1  -1.28385  -0.084202  -0.810592  -0.052496  1.949588  -0.079  -0.787037  -0.034799  2.160503  -0.054  -0.819293  -0.026741  2.12796  -0.042  -1.25241  -0.072265  -0.579315  -0.761892  -0.0422  2.182617  -0.063
O  O119  1  0.47696125  0.78790701  0.33512174  1  -1.283868  0.084206  -0.810629  0.052496  1.949568  0.079  -0.787075  0.034798  2.160475  0.054  -0.819335  0.026741  2.12793  0.042  -1.2524  0.072292  -0.579282  -0.761879  0.042215  2.182562  0.063
O  O120  1  0.34525157  0.16900380  0.82871974  1  -1.267836  -0.069839  -0.797664  -0.043797  1.95913  -0.066  -0.76896  -0.031303  2.161384  -0.048  -0.798191  -0.024538  2.125215  -0.039  -1.246004  -0.06392  -0.575061  -0.74638  -0.037366  2.186354  -0.056
O  O121  1  0.65474929  0.83099652  0.17128083  1  -1.267855  0.069847  -0.797653  0.043801  1.959154  0.066  -0.768946  0.031305  2.161415  0.048  -0.798179  0.024538  2.125249  0.039  -1.24597  0.063951  -0.575021  -0.746327  0.037383  2.186354  0.056
O  O122  1  0.06380204  0.05797873  0.65409581  1  -1.300206  -0.047343  -0.834712  -0.03026  1.956585  -0.046  -0.802678  -0.024589  2.158973  -0.037  -0.830568  -0.020099  2.123847  -0.031  -1.263618  -0.047474  -0.591575  -0.781645  -0.028427  2.183545  -0.042
O  O123  1  0.93619674  0.94202356  0.34590214  1  -1.300276  0.047347  -0.834788  0.030263  1.956511  0.046  -0.802739  0.02459  2.158893  0.037  -0.830619  0.020099  2.123737  0.031  -1.263484  0.047491  -0.591538  -0.781674  0.028438  2.183426  0.042
