# generated using pymatgen
data_ZnH6C18N3Cl4O4F
_symmetry_space_group_name_H-M   'P 1'
_cell_length_a   13.15762924
_cell_length_b   16.23133721
_cell_length_c   17.23185431
_cell_angle_alpha   97.29224383
_cell_angle_beta   91.98406251
_cell_angle_gamma   95.19214413
_symmetry_Int_Tables_number   1
_chemical_formula_structural   ZnH6C18N3Cl4O4F
_chemical_formula_sum   'Zn2 H12 C36 N6 Cl8 O8 F2'
_cell_volume   3631.43010652
_cell_formula_units_Z   2
loop_
 _symmetry_equiv_pos_site_id
 _symmetry_equiv_pos_as_xyz
  1  'x, y, z'
loop_
 _atom_site_type_symbol
 _atom_site_label
 _atom_site_symmetry_multiplicity
 _atom_site_fract_x
 _atom_site_fract_y
 _atom_site_fract_z
 _atom_site_occupancy
 _atom_site_pbe_bader_charge
 _atom_site_pbe_bader_spin_density
 _atom_site_pbe_cm5_charge
 _atom_site_pbe_ddec_charge
 _atom_site_pbe_ddec_spin_density
 _atom_site_pbe_ddec_sum_bond_order
 _atom_site_pbe_magmom
Zn  Zn0  1  0.50285940  0.41109742  0.50121338  1  1.319241  0  0.669358  0.886147  0  2.319084  0
Zn  Zn1  1  0.50619515  0.59174276  0.50634679  1  1.306269  0  0.670988  0.861965  0  2.33676  0
H  H2  1  0.37333344  0.70722139  0.45379423  1  0.139229  0  0.135478  0.116512  0  0.966667  0
H  H3  1  0.36325533  0.86170990  0.44876933  1  0.125394  0  0.125324  0.138423  0  0.979519  0
H  H4  1  0.35797527  0.10479434  0.38504769  1  0.127641  0  0.125707  0.153051  0  0.973068  0
H  H5  1  0.59366754  0.11886925  0.56829882  1  0.150658  0  0.118716  0.141919  0  1.011414  0
H  H6  1  0.43001685  0.60518117  0.25952690  1  0.114506  0  0.108772  0.11629  0  0.988469  0
H  H7  1  0.42511585  0.59280669  0.11230586  1  0.098582  0  0.109367  0.11506  0  1.002048  0
H  H8  1  0.57570543  0.65172161  0.91472824  1  0.117812  0  0.113041  0.132385  0  0.989125  0
H  H9  1  0.41407606  0.40633477  0.88196960  1  0.133922  0  0.111689  0.131901  0  1.000253  0
H  H10  1  0.83079918  0.37754779  0.50404741  1  0.112785  0  0.103952  0.115475  0  1.020045  0
H  H11  1  0.81471830  0.63604307  0.47567917  1  0.125328  0  0.106186  0.135898  0  1.010383  0
H  H12  1  0.17456249  0.60349117  0.48680944  1  0.101473  0  0.103746  0.113832  0  1.014312  0
H  H13  1  0.19124455  0.34676406  0.52088126  1  0.122698  0  0.108314  0.138452  0  1.003242  0
C  C14  1  0.49757859  0.50419656  0.35266846  1  1.635885  0  0.210866  0.606773  0  4.162301  0
C  C15  1  0.30810546  0.48926388  0.50503613  1  1.526751  0  0.216813  0.601911  0  4.1422  0
C  C16  1  0.50844248  0.52289740  0.65479368  1  1.639501  0  0.208846  0.614967  0  4.171363  0
C  C17  1  0.69809235  0.49378942  0.49296944  1  1.564122  0  0.21677  0.605731  0  4.139969  0
C  C18  1  0.43389500  0.75412593  0.47923632  1  0.519642  0  0.063954  0.122624  0  3.899139  0
C  C19  1  0.42871404  0.83856136  0.47638244  1  -0.057817  0  -0.068683  -0.179988  0  3.921325  0
C  C20  1  0.50938173  0.89487862  0.51159994  1  0.482122  0  0.105532  0.154759  0  4.033354  0
C  C21  1  0.59274661  0.86386379  0.54791040  1  0.103083  0  0.025978  -0.007324  0  3.997114  0
C  C22  1  0.59182064  0.77688002  0.54708842  1  0.732826  0  0.1507  0.225826  0  4.049431  0
C  C23  1  0.41173287  0.14038392  0.42884033  1  0.095752  0  -0.075049  -0.253279  0  3.890307  0
C  C24  1  0.47394668  0.10065132  0.47643244  1  0.309609  0  0.106962  0.239768  0  4.019604  0
C  C25  1  0.54344101  0.14837940  0.53122736  1  0.059668  0  -0.081532  -0.260437  0  3.906849  0
C  C26  1  0.54693921  0.23470556  0.53652460  1  0.622781  0  0.155754  0.314476  0  4.037793  0
C  C27  1  0.42038013  0.22759586  0.43913323  1  0.592363  0  0.157888  0.313095  0  4.035551  0
C  C28  1  0.49939065  0.49165984  0.26462887  1  -0.004934  0  -0.012847  -0.061834  0  3.913841  0
C  C29  1  0.45907073  0.55241794  0.22461591  1  0.011309  0  -0.083569  -0.078903  0  4.000421  0
C  C30  1  0.45658123  0.54603317  0.14373240  1  -0.049519  0  -0.086676  -0.144774  0  3.992372  0
C  C31  1  0.49482413  0.47765665  0.09995981  1  0.399832  0  0.084833  0.122417  0  4.048245  0
C  C32  1  0.53524206  0.41555382  0.13875353  1  0.061932  0  0.014333  0.029465  0  3.991236  0
C  C33  1  0.53862403  0.42297715  0.22118638  1  0.144081  0  0.014057  0.074209  0  4.001537  0
C  C34  1  0.54146200  0.59784324  0.87537286  1  -0.004536  0  -0.088004  -0.218356  0  3.94276  0
C  C35  1  0.49672052  0.52877004  0.90671301  1  0.367635  0  0.089462  0.203613  0  4.066439  0
C  C36  1  0.45070289  0.45924622  0.85724183  1  0.011404  0  -0.091076  -0.223959  0  3.934833  0
C  C37  1  0.45216273  0.45940331  0.77660818  1  0.085198  0  0.026121  0.162426  0  4.006032  0
C  C38  1  0.50105795  0.52655925  0.74247557  1  0.052342  0  -0.013725  -0.128788  0  3.845562  0
C  C39  1  0.54483034  0.59575224  0.79453242  1  0.029874  0  0.022649  0.161193  0  4.015838  0
C  C40  1  0.86928927  0.43845605  0.49805259  1  0.024888  0  -0.084671  -0.140615  0  3.941482  0
C  C41  1  0.86065381  0.58459954  0.48203016  1  0.058079  0  -0.100852  -0.233471  0  3.987105  0
C  C42  1  0.96505933  0.59535717  0.48236483  1  0.349924  0  0.098347  0.245616  0  4.050857  0
C  C43  1  0.02838531  0.53071567  0.49151765  1  -0.002565  0  -0.010499  -0.009945  0  4.021643  0
C  C44  1  0.13615178  0.54264640  0.49321611  1  0.011906  0  -0.085631  -0.139054  0  3.947416  0
C  C45  1  0.14514481  0.39752905  0.51234793  1  0.080034  0  -0.100822  -0.237667  0  3.997344  0
C  C46  1  0.04061212  0.38613658  0.50993996  1  0.345372  0  0.100659  0.249978  0  4.045583  0
C  C47  1  0.97710168  0.45040840  0.49964835  1  0.010008  0  -0.010438  -0.008686  0  4.015505  0
C  C48  1  0.81215767  0.50468680  0.49018384  1  0.037842  0  -0.011959  0.011172  0  3.96625  0
C  C49  1  0.19365639  0.47721296  0.50347545  1  0.054584  0  -0.014522  0.003893  0  3.973599  0
N  N50  1  0.51395217  0.72394592  0.51373132  1  -1.210156  0  -0.301107  -0.230567  0  3.462154  0
N  N51  1  0.51140009  0.98221250  0.51843136  1  -0.488454  0  -0.120586  -0.077119  0  3.293311  0
N  N52  1  0.46569497  0.01161235  0.46420430  1  -0.411693  0  -0.12088  -0.104413  0  3.152392  0
N  N53  1  0.48674671  0.27509212  0.49156951  1  -1.189917  0  -0.299612  -0.309733  0  3.367065  0
N  N54  1  0.49291910  0.46760600  0.01735692  1  -0.475015  0  -0.143368  -0.104796  0  3.278442  0
N  N55  1  0.50224135  0.53616804  0.98933805  1  -0.455408  0  -0.141219  -0.126041  0  3.259399  0
Cl  Cl56  1  0.69204394  0.73736172  0.58954804  1  -0.103883  0  0.067409  0.009584  0  1.66998  0
Cl  Cl57  1  0.69372412  0.92991014  0.58959906  1  -0.135371  0  0.027328  -0.024315  0  1.549888  0
Cl  Cl58  1  0.34291363  0.27615401  0.38163178  1  -0.117245  0  0.062305  -0.004473  0  1.535976  0
Cl  Cl59  1  0.63124610  0.29252577  0.60408100  1  -0.110434  0  0.062745  0.000994  0  1.548455  0
Cl  Cl60  1  0.59668945  0.34967581  0.26630152  1  -0.169396  0  -0.010776  -0.051692  0  1.581015  0
Cl  Cl61  1  0.58532143  0.33386926  0.08459327  1  -0.1679  0  -0.015847  -0.073129  0  1.538837  0
Cl  Cl62  1  0.60859373  0.68135849  0.76119785  1  -0.195622  0  -0.025896  -0.093627  0  1.540044  0
Cl  Cl63  1  0.38761539  0.37428376  0.71872111  1  -0.195281  0  -0.017167  -0.074621  0  1.481516  0
O  O64  1  0.48275198  0.43996807  0.38708428  1  -1.17636  0  -0.319263  -0.574955  0  2.432301  0
O  O65  1  0.50863254  0.57971729  0.38521128  1  -1.152391  0  -0.323196  -0.547131  0  2.275039  0
O  O66  1  0.34983616  0.55963495  0.49174465  1  -1.170739  0  -0.316346  -0.547927  0  2.313827  0
O  O67  1  0.35439409  0.42672553  0.51962440  1  -1.165301  0  -0.322664  -0.565619  0  2.392532  0
O  O68  1  0.48802567  0.58690437  0.62399294  1  -1.143392  0  -0.315556  -0.542059  0  2.333675  0
O  O69  1  0.53566259  0.45575747  0.61948693  1  -1.164894  0  -0.318663  -0.565241  0  2.402839  0
O  O70  1  0.65482860  0.41960968  0.48395207  1  -1.157469  0  -0.320114  -0.548227  0  2.353876  0
O  O71  1  0.65366528  0.56044004  0.50529338  1  -1.175897  0  -0.32099  -0.56704  0  2.397766  0
F  F72  1  0.99370421  0.30927320  0.51800038  1  -0.631077  0  -0.112835  -0.154579  0  1.3069  0
F  F73  1  0.01215779  0.67214388  0.47418991  1  -0.633221  0  -0.114308  -0.157408  0  1.306884  0
