# generated using pymatgen
data_HgH18C20(OF4)2
_symmetry_space_group_name_H-M   'P 1'
_cell_length_a   9.22241354
_cell_length_b   10.46098469
_cell_length_c   10.91481742
_cell_angle_alpha   90.00001156
_cell_angle_beta   90.00004575
_cell_angle_gamma   93.18905299
_symmetry_Int_Tables_number   1
_chemical_formula_structural   HgH18C20(OF4)2
_chemical_formula_sum   'Hg2 H36 C40 O4 F16'
_cell_volume   1051.38207774
_cell_formula_units_Z   2
loop_
 _symmetry_equiv_pos_site_id
 _symmetry_equiv_pos_as_xyz
  1  'x, y, z'
loop_
 _atom_site_type_symbol
 _atom_site_label
 _atom_site_symmetry_multiplicity
 _atom_site_fract_x
 _atom_site_fract_y
 _atom_site_fract_z
 _atom_site_occupancy
 _atom_site_hle17_bader_spin_density
 _atom_site_hle17_ddec_charge
 _atom_site_hle17_ddec_spin_density
 _atom_site_hle17_ddec_sum_bond_order
 _atom_site_hle17_magmom
 _atom_site_hse06_10hf_bader_spin_density
 _atom_site_hse06_10hf_ddec_charge
 _atom_site_hse06_10hf_ddec_spin_density
 _atom_site_hse06_10hf_ddec_sum_bond_order
 _atom_site_hse06_10hf_magmom
 _atom_site_hse06_bader_spin_density
 _atom_site_hse06_ddec_charge
 _atom_site_hse06_ddec_spin_density
 _atom_site_hse06_ddec_sum_bond_order
 _atom_site_hse06_magmom
 _atom_site_pbe_bader_spin_density
 _atom_site_pbe_cm5_charge
 _atom_site_pbe_ddec_charge
 _atom_site_pbe_ddec_spin_density
 _atom_site_pbe_ddec_sum_bond_order
 _atom_site_pbe_magmom
Hg  Hg0  1  0.00000000  0.00000000  0.00000000  1  0  0.718639  0  1.91375  0  0  0.578856  0  2.354673  0  0  0.612397  0  2.328746  0  0  0.527016  0.55624  0  2.370936  0
Hg  Hg1  1  0.50000073  0.99999980  0.50000038  1  0  0.718647  0  1.913773  0  0  0.578875  0  2.35469  0  0  0.612416  0  2.328764  0  0  0.527021  0.556267  0  2.370938  0
H  H2  1  0.48132138  0.59695497  0.55001309  1  0  0.113649  0  0.957992  0  0  0.13193  0  1.022561  0  0  0.133607  0  1.022255  0  0  0.08919  0.130685  0  1.022948  0
H  H3  1  0.01867825  0.40304389  0.05001279  1  0  0.113652  0  0.957984  0  0  0.131936  0  1.022548  0  0  0.133615  0  1.022244  0  0  0.089187  0.130689  0  1.022939  0
H  H4  1  0.51867886  0.40304466  0.44998667  1  0  0.113677  0  0.957971  0  0  0.131957  0  1.02254  0  0  0.133634  0  1.022235  0  0  0.089202  0.130711  0  1.022927  0
H  H5  1  0.98132193  0.59695478  0.94998696  1  0  0.11367  0  0.957934  0  0  0.131952  0  1.022502  0  0  0.13363  0  1.022196  0  0  0.089199  0.130704  0  1.022893  0
H  H6  1  0.35349188  0.53575153  0.66103826  1  0  0.1161  0  0.947947  0  0  0.136346  0  1.008361  0  0  0.137493  0  1.008908  0  0  0.091132  0.135468  0  1.008083  0
H  H7  1  0.14650792  0.46424832  0.16103898  1  0  0.116109  0  0.947928  0  0  0.136361  0  1.008332  0  0  0.137513  0  1.008881  0  0  0.091136  0.135482  0  1.008055  0
H  H8  1  0.64650836  0.46424810  0.33896058  1  0  0.116136  0  0.947957  0  0  0.136392  0  1.008346  0  0  0.137543  0  1.008894  0  0  0.091148  0.135513  0  1.008068  0
H  H9  1  0.85349232  0.53575131  0.83896169  1  0  0.116145  0  0.947939  0  0  0.136389  0  1.008341  0  0  0.137537  0  1.008888  0  0  0.091153  0.135512  0  1.00806  0
H  H10  1  0.41367424  0.70045653  0.66369065  1  0  0.116279  0  0.941839  0  0  0.136195  0  1.002707  0  0  0.138135  0  1.001857  0  0  0.089298  0.134724  0  1.003406  0
H  H11  1  0.08632557  0.29954331  0.16369038  1  0  0.11628  0  0.941794  0  0  0.136196  0  1.002663  0  0  0.138137  0  1.001813  0  0  0.089295  0.134725  0  1.003361  0
H  H12  1  0.58632600  0.29954310  0.33631002  1  0  0.116293  0  0.941818  0  0  0.136212  0  1.00268  0  0  0.138152  0  1.001832  0  0  0.0893  0.134739  0  1.00338  0
H  H13  1  0.91367473  0.70045727  0.83630937  1  0  0.116282  0  0.941809  0  0  0.136196  0  1.002679  0  0  0.138137  0  1.001827  0  0  0.08929  0.134724  0  1.003379  0
H  H14  1  0.16374359  0.77665751  0.64859275  1  0  0.121392  0  0.949016  0  0  0.138851  0  1.012253  0  0  0.140863  0  1.011533  0  0  0.086515  0.13726  0  1.013027  0
H  H15  1  0.33625729  0.22334233  0.14859355  1  0  0.121421  0  0.948994  0  0  0.138876  0  1.012233  0  0  0.140888  0  1.011514  0  0  0.086529  0.137285  0  1.013007  0
H  H16  1  0.83625665  0.22334212  0.35140701  1  0  0.121426  0  0.949004  0  0  0.138883  0  1.012237  0  0  0.140896  0  1.011517  0  0  0.086526  0.137292  0  1.013011  0
H  H17  1  0.66374410  0.77665825  0.85140712  1  0  0.121403  0  0.949003  0  0  0.138859  0  1.012243  0  0  0.140872  0  1.011523  0  0  0.086521  0.137269  0  1.013016  0
H  H18  1  0.08963314  0.61574815  0.65154649  1  0  0.11806  0  0.940307  0  0  0.142995  0  0.993722  0  0  0.143949  0  0.99482  0  0  0.09284  0.142176  0  0.993079  0
H  H19  1  0.41036557  0.38425169  0.15154646  1  0  0.118022  0  0.94035  0  0  0.142972  0  0.993745  0  0  0.143925  0  0.994844  0  0  0.09283  0.142152  0  0.993104  0
H  H20  1  0.91036601  0.38425148  0.34845326  1  0  0.118046  0  0.940355  0  0  0.142995  0  0.993738  0  0  0.143947  0  0.994837  0  0  0.092843  0.142176  0  0.993095  0
H  H21  1  0.58963359  0.61574793  0.84845330  1  0  0.118027  0  0.940359  0  0  0.142982  0  0.993742  0  0  0.143934  0  0.994841  0  0  0.092847  0.142162  0  0.9931  0
H  H22  1  0.04203900  0.71955423  0.53141713  1  0  0.116258  0  0.948587  0  0  0.132099  0  1.016226  0  0  0.134313  0  1.014941  0  0  0.084801  0.130396  0  1.017416  0
H  H23  1  0.45796068  0.28044558  0.03141711  1  0  0.116211  0  0.94857  0  0  0.132049  0  1.016225  0  0  0.134263  0  1.014938  0  0  0.084775  0.130345  0  1.017416  0
H  H24  1  0.95796124  0.28044540  0.46858263  1  0  0.116269  0  0.948582  0  0  0.132107  0  1.016221  0  0  0.134322  0  1.014935  0  0  0.084798  0.130405  0  1.01741  0
H  H25  1  0.54203956  0.71955405  0.96858265  1  0  0.116205  0  0.948542  0  0  0.132044  0  1.016204  0  0  0.134258  0  1.014918  0  0  0.084767  0.13034  0  1.017394  0
H  H26  1  0.12877374  0.56237564  0.37219414  1  0  0.107195  0  0.959001  0  0  0.124026  0  1.027354  0  0  0.125351  0  1.027789  0  0  0.084144  0.122991  0  1.027192  0
H  H27  1  0.37122627  0.43762426  0.87219433  1  0  0.1072  0  0.958999  0  0  0.124032  0  1.027353  0  0  0.125358  0  1.027786  0  0  0.084144  0.122996  0  1.027192  0
H  H28  1  0.87122548  0.43762494  0.62780562  1  0  0.107183  0  0.959039  0  0  0.124034  0  1.027352  0  0  0.125359  0  1.027787  0  0  0.084148  0.122998  0  1.02719  0
H  H29  1  0.62877398  0.56237537  0.12780543  1  0  0.107198  0  0.959015  0  0  0.124039  0  1.027353  0  0  0.125365  0  1.027787  0  0  0.084147  0.123002  0  1.027193  0
H  H30  1  0.17251438  0.45540807  0.49087959  1  0  0.122791  0  0.959644  0  0  0.139527  0  1.025299  0  0  0.141538  0  1.024797  0  0  0.089491  0.138112  0  1.025465  0
H  H31  1  0.32748465  0.54459186  0.99087885  1  0  0.122781  0  0.95965  0  0  0.139532  0  1.025291  0  0  0.141542  0  1.024791  0  0  0.089493  0.138116  0  1.025461  0
H  H32  1  0.82748477  0.54459156  0.50912016  1  0  0.122795  0  0.959642  0  0  0.13953  0  1.025292  0  0  0.14154  0  1.024792  0  0  0.089496  0.138115  0  1.025457  0
H  H33  1  0.67251457  0.45540872  0.00911998  1  0  0.122799  0  0.959646  0  0  0.139538  0  1.025296  0  0  0.141546  0  1.024796  0  0  0.089496  0.138121  0  1.025464  0
H  H34  1  0.30747655  0.50558120  0.38207709  1  0  0.11617  0  0.953974  0  0  0.135451  0  1.015545  0  0  0.137433  0  1.014823  0  0  0.087878  0.133932  0  1.016146  0
H  H35  1  0.19252347  0.49441870  0.88207717  1  0  0.116158  0  0.953935  0  0  0.135439  0  1.015514  0  0  0.137418  0  1.014793  0  0  0.087867  0.13392  0  1.016117  0
H  H36  1  0.69252370  0.49441842  0.61792358  1  0  0.116121  0  0.953944  0  0  0.135396  0  1.015531  0  0  0.137378  0  1.014808  0  0  0.087857  0.133877  0  1.016132  0
H  H37  1  0.80747677  0.50558093  0.11792350  1  0  0.116176  0  0.953966  0  0  0.135457  0  1.015538  0  0  0.137437  0  1.014818  0  0  0.087882  0.133938  0  1.016139  0
C  C38  1  0.16060350  0.90757811  0.36337590  1  0  0.107923  0  3.794504  0  0  0.075751  0  4.098044  0  0  0.081753  0  4.106775  0  0  0.071996  0.071327  0  4.092407  0
C  C39  1  0.33939541  0.09242178  0.86337691  1  0  0.10787  0  3.794548  0  0  0.075694  0  4.098082  0  0  0.081699  0  4.106808  0  0  0.071965  0.071271  0  4.092444  0
C  C40  1  0.83939674  0.09242152  0.63662386  1  0  0.107975  0  3.794478  0  0  0.075806  0  4.098027  0  0  0.081808  0  4.106756  0  0  0.072022  0.071382  0  4.092389  0
C  C41  1  0.66060380  0.90757880  0.13662376  1  0  0.107997  0  3.794349  0  0  0.075821  0  4.0979  0  0  0.081826  0  4.106628  0  0  0.072045  0.071398  0  4.092261  0
C  C42  1  0.24859786  0.80332405  0.34777327  1  0  0.100535  0  3.887499  0  0  0.072351  0  4.171403  0  0  0.078436  0  4.188738  0  0  0.058757  0.068015  0  4.160441  0
C  C43  1  0.25140104  0.19667584  0.84777242  1  0  0.100403  0  3.887626  0  0  0.07223  0  4.171522  0  0  0.078326  0  4.188857  0  0  0.058697  0.067896  0  4.16056  0
C  C44  1  0.75140238  0.19667558  0.65222740  1  0  0.100456  0  3.887487  0  0  0.072235  0  4.171412  0  0  0.078333  0  4.188746  0  0  0.058711  0.067902  0  4.16045  0
C  C45  1  0.74859812  0.80332378  0.15222734  1  0  0.100464  0  3.887389  0  0  0.072262  0  4.171301  0  0  0.078353  0  4.18864  0  0  0.058718  0.067927  0  4.160339  0
C  C46  1  0.11146731  0.91928746  0.14458248  1  0  -0.394298  0  3.78837  0  0  -0.38618  0  4.125337  0  0  -0.401606  0  4.148808  0  0  -0.16483  -0.375393  0  4.109394  0
C  C47  1  0.38853248  0.08071238  0.64458261  1  0  -0.394345  0  3.788317  0  0  -0.386244  0  4.125308  0  0  -0.401666  0  4.148771  0  0  -0.164863  -0.375457  0  4.109367  0
C  C48  1  0.88853402  0.08071217  0.85541727  1  0  -0.39432  0  3.788269  0  0  -0.386196  0  4.125233  0  0  -0.401623  0  4.148706  0  0  -0.164857  -0.375409  0  4.109292  0
C  C49  1  0.61146674  0.91928821  0.35541714  1  0  -0.394353  0  3.788345  0  0  -0.386245  0  4.125344  0  0  -0.401671  0  4.148809  0  0  -0.164865  -0.375459  0  4.109402  0
C  C50  1  0.26898754  0.76096639  0.22702732  1  0  0.112745  0  3.764875  0  0  0.078721  0  4.071484  0  0  0.084087  0  4.081325  0  0  0.075651  0.074589  0  4.065775  0
C  C51  1  0.23101220  0.23903155  0.72702830  1  0  0.112888  0  3.764854  0  0  0.078834  0  4.071479  0  0  0.0842  0  4.081318  0  0  0.07569  0.074702  0  4.065771  0
C  C52  1  0.73101372  0.23903228  0.77297151  1  0  0.112791  0  3.764951  0  0  0.078802  0  4.071524  0  0  0.084167  0  4.081365  0  0  0.075696  0.07467  0  4.065815  0
C  C53  1  0.76898683  0.76096616  0.27297238  1  0  0.112784  0  3.764953  0  0  0.078771  0  4.071547  0  0  0.084139  0  4.081386  0  0  0.075689  0.074641  0  4.065836  0
C  C54  1  0.20040431  0.81769004  0.12895237  1  0  0.236304  0  3.855365  0  0  0.198861  0  4.163216  0  0  0.210657  0  4.173639  0  0  0.070456  0.190691  0  4.156479  0
C  C55  1  0.29959546  0.18230979  0.62895246  1  0  0.236295  0  3.855312  0  0  0.198864  0  4.163163  0  0  0.210661  0  4.173584  0  0  0.070479  0.190696  0  4.156423  0
C  C56  1  0.79959599  0.18231054  0.87104738  1  0  0.236343  0  3.855272  0  0  0.198888  0  4.163117  0  0  0.210681  0  4.173544  0  0  0.070468  0.190718  0  4.156382  0
C  C57  1  0.70040478  0.81768984  0.37104729  1  0  0.236281  0  3.855326  0  0  0.198837  0  4.163175  0  0  0.210634  0  4.173596  0  0  0.070435  0.190669  0  4.156435  0
C  C58  1  0.09506781  0.96330245  0.26325510  1  0  0.221287  0  3.880799  0  0  0.188995  0  4.180487  0  0  0.199312  0  4.193598  0  0  0.066052  0.181275  0  4.172795  0
C  C59  1  0.40492998  0.03669838  0.76325523  1  0  0.221359  0  3.880678  0  0  0.189081  0  4.180345  0  0  0.199397  0  4.193457  0  0  0.066085  0.18136  0  4.172655  0
C  C60  1  0.90493237  0.03669622  0.73674465  1  0  0.221248  0  3.880842  0  0  0.188949  0  4.180543  0  0  0.199265  0  4.193655  0  0  0.066024  0.181229  0  4.172852  0
C  C61  1  0.59506821  0.96330317  0.23674544  1  0  0.221304  0  3.880806  0  0  0.18901  0  4.180494  0  0  0.199329  0  4.193606  0  0  0.066056  0.18129  0  4.172804  0
C  C62  1  0.25988727  0.64857492  0.51901204  1  0  0.431571  0  3.513387  0  0  0.443269  0  3.763596  0  0  0.452003  0  3.775956  0  0  0.074333  0.437264  0  3.754857  0
C  C63  1  0.24011239  0.35142488  0.01901097  1  0  0.431529  0  3.513497  0  0  0.443271  0  3.76362  0  0  0.452014  0  3.775978  0  0  0.074341  0.437268  0  3.754881  0
C  C64  1  0.74011188  0.35142470  0.48098772  1  0  0.4316  0  3.513366  0  0  0.443261  0  3.763628  0  0  0.452002  0  3.775987  0  0  0.074325  0.437257  0  3.754887  0
C  C65  1  0.75988785  0.64857475  0.98098787  1  0  0.431574  0  3.513377  0  0  0.443252  0  3.763617  0  0  0.451993  0  3.775975  0  0  0.07432  0.437249  0  3.754876  0
C  C66  1  0.38503199  0.61872457  0.60344867  1  0  -0.374376  0  3.639267  0  0  -0.455661  0  3.877766  0  0  -0.459211  0  3.886203  0  0  -0.245172  -0.452876  0  3.871923  0
C  C67  1  0.11496885  0.38127525  0.10344844  1  0  -0.374384  0  3.639229  0  0  -0.455701  0  3.877729  0  0  -0.459252  0  3.886147  0  0  -0.245176  -0.452917  0  3.871889  0
C  C68  1  0.61496832  0.38127601  0.39655108  1  0  -0.374469  0  3.63928  0  0  -0.455768  0  3.877792  0  0  -0.459318  0  3.886214  0  0  -0.245202  -0.452981  0  3.871947  0
C  C69  1  0.88503139  0.61872438  0.89655132  1  0  -0.374455  0  3.639217  0  0  -0.455742  0  3.87773  0  0  -0.45929  0  3.886154  0  0  -0.245193  -0.452957  0  3.871886  0
C  C70  1  0.13131030  0.69374114  0.59152718  1  0  -0.393074  0  3.652261  0  0  -0.475487  0  3.890476  0  0  -0.479528  0  3.899501  0  0  -0.252055  -0.472269  0  3.884257  0
C  C71  1  0.36868944  0.30625868  0.09152711  1  0  -0.393015  0  3.652246  0  0  -0.475448  0  3.890435  0  0  -0.479486  0  3.899458  0  0  -0.252047  -0.472231  0  3.884218  0
C  C72  1  0.86868995  0.30625849  0.40847257  1  0  -0.393127  0  3.65231  0  0  -0.475537  0  3.890514  0  0  -0.479571  0  3.89953  0  0  -0.252068  -0.47232  0  3.884296  0
C  C73  1  0.63131086  0.69374190  0.90847265  1  0  -0.392996  0  3.652207  0  0  -0.47542  0  3.890422  0  0  -0.479456  0  3.899441  0  0  -0.252033  -0.472202  0  3.884203  0
C  C74  1  0.21508960  0.53655175  0.43553558  1  0  -0.396186  0  3.655483  0  0  -0.478508  0  3.895566  0  0  -0.483032  0  3.90477  0  0  -0.252762  -0.474887  0  3.888708  0
C  C75  1  0.28491041  0.46344720  0.93553572  1  0  -0.39618  0  3.655487  0  0  -0.478529  0  3.895546  0  0  -0.483054  0  3.904751  0  0  -0.252763  -0.474901  0  3.888674  0
C  C76  1  0.78491064  0.46344787  0.56446417  1  0  -0.396135  0  3.655432  0  0  -0.478452  0  3.895519  0  0  -0.482979  0  3.904725  0  0  -0.252743  -0.474836  0  3.888676  0
C  C77  1  0.71508983  0.53655243  0.06446404  1  0  -0.396198  0  3.655497  0  0  -0.478526  0  3.895575  0  0  -0.483051  0  3.90478  0  0  -0.252762  -0.474904  0  3.88872  0
O  O78  1  0.32524491  0.75656727  0.44306027  1  0  -0.362583  0  2.275519  0  0  -0.292848  0  2.516689  0  0  -0.30968  0  2.518021  0  0  -0.196706  -0.281195  0  2.515682  0
O  O79  1  0.17475517  0.24343265  0.94306029  1  0  -0.362522  0  2.275528  0  0  -0.292774  0  2.516661  0  0  -0.309633  0  2.51801  0  0  -0.196691  -0.281122  0  2.515654  0
O  O80  1  0.67475539  0.24343332  0.55694040  1  0  -0.362547  0  2.275484  0  0  -0.292774  0  2.516654  0  0  -0.309633  0  2.518001  0  0  -0.196691  -0.281123  0  2.515649  0
O  O81  1  0.82524507  0.75656698  0.05694038  1  0  -0.362562  0  2.275489  0  0  -0.292796  0  2.516651  0  0  -0.30965  0  2.517999  0  0  -0.196698  -0.281145  0  2.515647  0
F  F82  1  0.01209382  0.06513020  0.28431443  1  0  -0.184821  0  1.23281  0  0  -0.130153  0  1.397139  0  0  -0.139348  0  1.387841  0  0  -0.097252  -0.123549  0  1.403981  0
F  F83  1  0.48790495  0.93486872  0.78431479  1  0  -0.18486  0  1.232714  0  0  -0.130193  0  1.397038  0  0  -0.139389  0  1.387742  0  0  -0.097272  -0.123591  0  1.403882  0
F  F84  1  0.98790859  0.93486943  0.71568441  1  0  -0.184801  0  1.232737  0  0  -0.130126  0  1.397058  0  0  -0.13932  0  1.38776  0  0  -0.097227  -0.123523  0  1.403901  0
F  F85  1  0.51209421  0.06513091  0.21568496  1  0  -0.184805  0  1.232761  0  0  -0.130131  0  1.397084  0  0  -0.139328  0  1.387789  0  0  -0.09723  -0.123529  0  1.403928  0
F  F86  1  0.22381025  0.77105198  0.01422851  1  0  -0.185779  0  1.205081  0  0  -0.130011  0  1.363489  0  0  -0.139346  0  1.353955  0  0  -0.098182  -0.123666  0  1.370431  0
F  F87  1  0.27619044  0.22894687  0.51422860  1  0  -0.185741  0  1.20509  0  0  -0.129986  0  1.363506  0  0  -0.139325  0  1.353974  0  0  -0.098172  -0.123647  0  1.370454  0
F  F88  1  0.77619108  0.22894765  0.98577124  1  0  -0.185772  0  1.20506  0  0  -0.130006  0  1.363472  0  0  -0.13934  0  1.353939  0  0  -0.09818  -0.123662  0  1.370417  0
F  F89  1  0.72380980  0.77105276  0.48577116  1  0  -0.185749  0  1.205078  0  0  -0.129993  0  1.363496  0  0  -0.139331  0  1.353964  0  0  -0.098175  -0.123654  0  1.370444  0
F  F90  1  0.35956109  0.66506913  0.20554737  1  0  -0.169297  0  1.24446  0  0  -0.110632  0  1.406032  0  0  -0.119381  0  1.39827  0  0  -0.084413  -0.104091  0  1.411594  0
F  F91  1  0.14043869  0.33492977  0.70554738  1  0  -0.169326  0  1.244421  0  0  -0.110651  0  1.405997  0  0  -0.1194  0  1.398235  0  0  -0.084404  -0.10411  0  1.411559  0
F  F92  1  0.64044029  0.33493146  0.79445147  1  0  -0.169327  0  1.24446  0  0  -0.110674  0  1.406021  0  0  -0.119424  0  1.39826  0  0  -0.084425  -0.104133  0  1.411584  0
F  F93  1  0.85956041  0.66506890  0.29445237  1  0  -0.169324  0  1.2445  0  0  -0.110654  0  1.406064  0  0  -0.119403  0  1.398301  0  0  -0.084429  -0.104112  0  1.411625  0
F  F94  1  0.14241429  0.95616716  0.47686657  1  0  -0.15717  0  1.311128  0  0  -0.105319  0  1.489035  0  0  -0.113995  0  1.479786  0  0  -0.084668  -0.099099  0  1.495199  0
F  F95  1  0.35758684  0.04383181  0.97686667  1  0  -0.157132  0  1.311166  0  0  -0.105294  0  1.489079  0  0  -0.113971  0  1.479831  0  0  -0.084646  -0.099073  0  1.495244  0
F  F96  1  0.85758596  0.04383247  0.52313319  1  0  -0.157179  0  1.311109  0  0  -0.105329  0  1.489015  0  0  -0.114006  0  1.479767  0  0  -0.084679  -0.099109  0  1.49518  0
F  F97  1  0.64241557  0.95616782  0.02313308  1  0  -0.157183  0  1.311114  0  0  -0.105334  0  1.489024  0  0  -0.114012  0  1.479776  0  0  -0.084686  -0.099114  0  1.495189  0
