# generated using pymatgen
data_LiH7(C2O)2
_symmetry_space_group_name_H-M   'P 1'
_cell_length_a   4.83200000
_cell_length_b   9.37468925
_cell_length_c   10.73852519
_cell_angle_alpha   87.69031707
_cell_angle_beta   90.00014352
_cell_angle_gamma   89.99950023
_symmetry_Int_Tables_number   1
_chemical_formula_structural   LiH7(C2O)2
_chemical_formula_sum   'Li4 H28 C16 O8'
_cell_volume   486.04388238
_cell_formula_units_Z   4
loop_
 _symmetry_equiv_pos_site_id
 _symmetry_equiv_pos_as_xyz
  1  'x, y, z'
loop_
 _atom_site_type_symbol
 _atom_site_label
 _atom_site_symmetry_multiplicity
 _atom_site_fract_x
 _atom_site_fract_y
 _atom_site_fract_z
 _atom_site_occupancy
 _atom_site_hle17_bader_spin_density
 _atom_site_hle17_ddec_charge
 _atom_site_hle17_ddec_spin_density
 _atom_site_hle17_ddec_sum_bond_order
 _atom_site_hle17_magmom
 _atom_site_hse06_10hf_bader_spin_density
 _atom_site_hse06_10hf_ddec_charge
 _atom_site_hse06_10hf_ddec_spin_density
 _atom_site_hse06_10hf_ddec_sum_bond_order
 _atom_site_hse06_10hf_magmom
 _atom_site_hse06_bader_spin_density
 _atom_site_hse06_ddec_charge
 _atom_site_hse06_ddec_spin_density
 _atom_site_hse06_ddec_sum_bond_order
 _atom_site_hse06_magmom
 _atom_site_pbe_bader_spin_density
 _atom_site_pbe_cm5_charge
 _atom_site_pbe_ddec_charge
 _atom_site_pbe_ddec_spin_density
 _atom_site_pbe_ddec_sum_bond_order
 _atom_site_pbe_magmom
Li  Li0  1  0.91116285  0.35773244  0.99517066  1  0  0.861954  0  0.382773  0  0  0.823625  0  0.486192  0  0  0.832532  0  0.470366  0  0  0.505298  0.816953  0  0.497889  0
Li  Li1  1  0.41114513  0.14226369  0.00482352  1  0  0.861954  0  0.382748  0  0  0.82365  0  0.486116  0  0  0.832556  0  0.470291  0  0  0.505278  0.816962  0  0.497825  0
Li  Li2  1  0.08884505  0.64226096  0.00482355  1  0  0.861962  0  0.382726  0  0  0.823651  0  0.486112  0  0  0.832559  0  0.470282  0  0  0.505255  0.816953  0  0.497825  0
Li  Li3  1  0.58885035  0.85773825  0.99517063  1  0  0.86195  0  0.38275  0  0  0.823618  0  0.486177  0  0  0.832526  0  0.470348  0  0  0.505253  0.816914  0  0.497895  0
H  H4  1  0.05708733  0.10443021  0.68351268  1  0  0.096812  0  0.947979  0  0  0.115691  0  1.004867  0  0  0.116507  0  1.006223  0  0  0.103691  0.115134  0  1.003985  0
H  H5  1  0.55709564  0.39558402  0.31648940  1  0  0.096857  0  0.94802  0  0  0.115751  0  1.004859  0  0  0.116569  0  1.006212  0  0  0.103691  0.115187  0  1.003975  0
H  H6  1  0.94292263  0.89558202  0.31649164  1  0  0.096804  0  0.948057  0  0  0.115695  0  1.0049  0  0  0.116514  0  1.006252  0  0  0.103685  0.115131  0  1.004018  0
H  H7  1  0.44289156  0.60441431  0.68351595  1  0  0.096761  0  0.948011  0  0  0.115693  0  1.004849  0  0  0.11651  0  1.006203  0  0  0.103643  0.115148  0  1.003974  0
H  H8  1  0.29143459  0.01429666  0.78232413  1  0  0.109649  0  0.953749  0  0  0.123834  0  1.01493  0  0  0.126921  0  1.013306  0  0  0.114666  0.121607  0  1.016188  0
H  H9  1  0.79145700  0.48571875  0.21768005  1  0  0.109634  0  0.95365  0  0  0.123825  0  1.014811  0  0  0.126913  0  1.013184  0  0  0.114631  0.121589  0  1.016069  0
H  H10  1  0.70853813  0.98570824  0.21767652  1  0  0.10962  0  0.953663  0  0  0.123823  0  1.014824  0  0  0.126908  0  1.013198  0  0  0.114625  0.121587  0  1.016086  0
H  H11  1  0.20853848  0.51429001  0.78233176  1  0  0.109537  0  0.953859  0  0  0.123763  0  1.015009  0  0  0.126846  0  1.013385  0  0  0.114603  0.121554  0  1.016272  0
H  H12  1  0.74050462  0.89162954  0.68946907  1  0  0.051526  0  0.951157  0  0  0.072069  0  1.010563  0  0  0.072765  0  1.010749  0  0  0.089566  0.071451  0  1.010611  0
H  H13  1  0.24047099  0.60836841  0.31054390  1  0  0.051467  0  0.950955  0  0  0.072026  0  1.010406  0  0  0.072721  0  1.010586  0  0  0.089512  0.071405  0  1.010463  0
H  H14  1  0.25954673  0.10837956  0.31053341  1  0  0.051525  0  0.951337  0  0  0.07204  0  1.010781  0  0  0.072718  0  1.010985  0  0  0.089527  0.071428  0  1.010826  0
H  H15  1  0.75951414  0.39162117  0.68946711  1  0  0.051434  0  0.951201  0  0  0.072024  0  1.010584  0  0  0.072698  0  1.010793  0  0  0.089536  0.071412  0  1.01063  0
H  H16  1  0.97249884  0.79932957  0.79119717  1  0  0.058218  0  0.952979  0  0  0.074916  0  1.019231  0  0  0.076472  0  1.018782  0  0  0.105788  0.073649  0  1.019824  0
H  H17  1  0.47245235  0.70067546  0.20880294  1  0  0.058136  0  0.952961  0  0  0.074881  0  1.019188  0  0  0.076444  0  1.01874  0  0  0.105755  0.073609  0  1.019774  0
H  H18  1  0.02748422  0.20067836  0.20880812  1  0  0.058142  0  0.952959  0  0  0.074903  0  1.019185  0  0  0.076465  0  1.018732  0  0  0.105771  0.07363  0  1.01978  0
H  H19  1  0.52749346  0.29932792  0.79118095  1  0  0.058183  0  0.95309  0  0  0.074886  0  1.019356  0  0  0.076445  0  1.0189  0  0  0.10578  0.073626  0  1.019942  0
H  H20  1  0.06036305  0.72855009  0.57233977  1  0  0.094013  0  0.958043  0  0  0.118459  0  1.015178  0  0  0.119331  0  1.016249  0  0  0.087364  0.117735  0  1.014585  0
H  H21  1  0.56037456  0.77144252  0.42766280  1  0  0.093995  0  0.958074  0  0  0.118479  0  1.015163  0  0  0.119351  0  1.016235  0  0  0.087336  0.11775  0  1.01457  0
H  H22  1  0.93963863  0.27145240  0.42766835  1  0  0.093967  0  0.958137  0  0  0.118436  0  1.015251  0  0  0.11931  0  1.016318  0  0  0.087329  0.117712  0  1.014657  0
H  H23  1  0.43962712  0.22856032  0.57233600  1  0  0.093948  0  0.958023  0  0  0.118438  0  1.015119  0  0  0.11931  0  1.016193  0  0  0.087328  0.117711  0  1.014521  0
H  H24  1  0.34936273  0.82180468  0.63033012  1  0  0.082901  0  0.985535  0  0  0.103142  0  1.052003  0  0  0.10439  0  1.052072  0  0  0.084235  0.102228  0  1.051975  0
H  H25  1  0.84935708  0.67818774  0.36964852  1  0  0.082875  0  0.985516  0  0  0.103086  0  1.052045  0  0  0.104333  0  1.05211  0  0  0.084187  0.102177  0  1.05201  0
H  H26  1  0.65062446  0.17819675  0.36967800  1  0  0.0829  0  0.985547  0  0  0.103115  0  1.052054  0  0  0.104364  0  1.052118  0  0  0.084236  0.102199  0  1.052027  0
H  H27  1  0.15064046  0.32180332  0.63032241  1  0  0.083023  0  0.985582  0  0  0.103251  0  1.052047  0  0  0.104502  0  1.052109  0  0  0.084276  0.10234  0  1.052018  0
H  H28  1  0.11940911  0.90952295  0.52501937  1  0  0.083132  0  0.976892  0  0  0.106251  0  1.03845  0  0  0.10708  0  1.039283  0  0  0.081833  0.105549  0  1.038005  0
H  H29  1  0.61942867  0.59047347  0.47496088  1  0  0.083035  0  0.977011  0  0  0.106214  0  1.038496  0  0  0.10704  0  1.039331  0  0  0.081878  0.105513  0  1.038064  0
H  H30  1  0.88059878  0.09049631  0.47496813  1  0  0.083074  0  0.977197  0  0  0.106247  0  1.038649  0  0  0.107073  0  1.039487  0  0  0.081835  0.105541  0  1.038215  0
H  H31  1  0.38059371  0.40950283  0.52503438  1  0  0.083144  0  0.977193  0  0  0.106318  0  1.038644  0  0  0.107146  0  1.039479  0  0  0.08186  0.105615  0  1.038205  0
C  C32  1  0.92524417  0.08705946  0.86937137  1  0  0.779198  0  3.808973  0  0  0.735539  0  4.107581  0  0  0.768022  0  4.097462  0  0  0.247925  0.713395  0  4.113896  0
C  C33  1  0.42525917  0.41292777  0.13063127  1  0  0.779305  0  3.808839  0  0  0.735438  0  4.107778  0  0  0.767923  0  4.09765  0  0  0.247881  0.713276  0  4.114108  0
C  C34  1  0.07474510  0.91296265  0.13062543  1  0  0.77907  0  3.809046  0  0  0.735351  0  4.107763  0  0  0.767839  0  4.09764  0  0  0.247766  0.713202  0  4.114078  0
C  C35  1  0.57473838  0.58705173  0.86939285  1  0  0.779077  0  3.809669  0  0  0.735401  0  4.108335  0  0  0.767882  0  4.09822  0  0  0.247848  0.713272  0  4.114646  0
C  C36  1  0.06950148  0.02237534  0.75983786  1  0  -0.288725  0  3.668282  0  0  -0.320809  0  3.905765  0  0  -0.327681  0  3.915715  0  0  -0.154304  -0.316078  0  3.898824  0
C  C37  1  0.56951593  0.47761884  0.24015692  1  0  -0.288769  0  3.668024  0  0  -0.32076  0  3.905508  0  0  -0.327634  0  3.915461  0  0  -0.15418  -0.315988  0  3.898521  0
C  C38  1  0.93047951  0.97762336  0.24015724  1  0  -0.288562  0  3.668091  0  0  -0.320627  0  3.905556  0  0  -0.327496  0  3.9155  0  0  -0.154143  -0.315882  0  3.898595  0
C  C39  1  0.43046920  0.52236696  0.75984107  1  0  -0.288695  0  3.667931  0  0  -0.320855  0  3.905492  0  0  -0.327725  0  3.915439  0  0  -0.154238  -0.316182  0  3.898616  0
C  C40  1  0.96031235  0.88101188  0.71499482  1  0  -0.03519  0  3.712629  0  0  -0.073904  0  3.975241  0  0  -0.073612  0  3.9895  0  0  -0.158952  -0.073849  0  3.965257  0
C  C41  1  0.46029903  0.61898456  0.28500814  1  0  -0.03496  0  3.71219  0  0  -0.073791  0  3.974949  0  0  -0.073501  0  3.98922  0  0  -0.158875  -0.073743  0  3.964946  0
C  C42  1  0.03973280  0.11897506  0.28500130  1  0  -0.0351  0  3.712394  0  0  -0.073904  0  3.975062  0  0  -0.073601  0  3.989321  0  0  -0.158889  -0.073859  0  3.965065  0
C  C43  1  0.53971094  0.38101397  0.71499162  1  0  -0.034857  0  3.71253  0  0  -0.073677  0  3.975295  0  0  -0.073369  0  3.989552  0  0  -0.1589  -0.07361  0  3.965324  0
C  C44  1  0.12991925  0.83216639  0.60460028  1  0  -0.288226  0  3.719835  0  0  -0.363827  0  3.969497  0  0  -0.366646  0  3.981237  0  0  -0.244465  -0.36156  0  3.961255  0
C  C45  1  0.62990570  0.66783639  0.39537994  1  0  -0.288276  0  3.720197  0  0  -0.363896  0  3.969885  0  0  -0.366732  0  3.981667  0  0  -0.244503  -0.361632  0  3.961651  0
C  C46  1  0.87008450  0.16784326  0.39538729  1  0  -0.288254  0  3.720113  0  0  -0.363846  0  3.969731  0  0  -0.366678  0  3.981496  0  0  -0.24452  -0.361577  0  3.961499  0
C  C47  1  0.37008564  0.33216862  0.60461792  1  0  -0.28853  0  3.720311  0  0  -0.36416  0  3.969973  0  0  -0.366984  0  3.981711  0  0  -0.244583  -0.361891  0  3.961729  0
O  O48  1  0.05178721  0.18881906  0.92140982  1  0  -0.81516  0  1.917724  0  0  -0.774129  0  2.169611  0  0  -0.794142  0  2.153619  0  0  -0.444432  -0.760107  0  2.180556  0
O  O49  1  0.55183285  0.31116001  0.07862045  1  0  -0.815081  0  1.917425  0  0  -0.773981  0  2.169398  0  0  -0.793996  0  2.153412  0  0  -0.444369  -0.759953  0  2.180339  0
O  O50  1  0.94820413  0.81118467  0.07859363  1  0  -0.815166  0  1.917406  0  0  -0.774131  0  2.169312  0  0  -0.794149  0  2.153322  0  0  -0.444399  -0.760098  0  2.180247  0
O  O51  1  0.44822057  0.68881536  0.92139997  1  0  -0.814977  0  1.918322  0  0  -0.773932  0  2.170207  0  0  -0.793942  0  2.154215  0  0  -0.444299  -0.759889  0  2.181125  0
O  O52  1  0.68699349  0.04241061  0.90359641  1  0  -0.790081  0  1.956632  0  0  -0.740866  0  2.201354  0  0  -0.761942  0  2.186945  0  0  -0.418171  -0.726098  0  2.211093  0
O  O53  1  0.18701979  0.45758919  0.09637889  1  0  -0.790211  0  1.956603  0  0  -0.740927  0  2.201413  0  0  -0.762005  0  2.186998  0  0  -0.418228  -0.726164  0  2.211167  0
O  O54  1  0.31301234  0.95760472  0.09641069  1  0  -0.789954  0  1.956765  0  0  -0.740717  0  2.201521  0  0  -0.761791  0  2.187109  0  0  -0.418076  -0.725955  0  2.211268  0
O  O55  1  0.81298604  0.54239923  0.90360604  1  0  -0.790009  0  1.956911  0  0  -0.740786  0  2.201632  0  0  -0.761857  0  2.187219  0  0  -0.418148  -0.726029  0  2.211376  0
