# generated using pymatgen
data_MnH18C18N2O5
_symmetry_space_group_name_H-M   'P 1'
_cell_length_a   6.85924334
_cell_length_b   8.52114152
_cell_length_c   15.64410192
_cell_angle_alpha   89.99698519
_cell_angle_beta   90.00036521
_cell_angle_gamma   101.49836782
_symmetry_Int_Tables_number   1
_chemical_formula_structural   MnH18C18N2O5
_chemical_formula_sum   'Mn2 H36 C36 N4 O10'
_cell_volume   896.02442465
_cell_formula_units_Z   2
loop_
 _symmetry_equiv_pos_site_id
 _symmetry_equiv_pos_as_xyz
  1  'x, y, z'
loop_
 _atom_site_type_symbol
 _atom_site_label
 _atom_site_symmetry_multiplicity
 _atom_site_fract_x
 _atom_site_fract_y
 _atom_site_fract_z
 _atom_site_occupancy
 _atom_site_hle17_ddec_charge
 _atom_site_hle17_ddec_spin_density
 _atom_site_hle17_ddec_sum_bond_order
 _atom_site_hle17_magmom
 _atom_site_hse06_10hf_bader_charge
 _atom_site_hse06_10hf_bader_spin_density
 _atom_site_hse06_10hf_ddec_charge
 _atom_site_hse06_10hf_ddec_spin_density
 _atom_site_hse06_10hf_ddec_sum_bond_order
 _atom_site_hse06_10hf_magmom
 _atom_site_hse06_ddec_charge
 _atom_site_hse06_ddec_spin_density
 _atom_site_hse06_ddec_sum_bond_order
 _atom_site_hse06_magmom
 _atom_site_pbe_cm5_charge
 _atom_site_pbe_ddec_charge
 _atom_site_pbe_ddec_spin_density
 _atom_site_pbe_ddec_sum_bond_order
 _atom_site_pbe_magmom
Mn  Mn0  1  0.61176658  0.30296535  0.35062823  1  1.112355  4.802984  1.81795  4.64  1.499761  4.575201  0.935953  4.718743  2.341624  4.476  0.999294  4.774963  2.263221  4.556  0.615974  0.888913  4.656695  2.398571  4.392
Mn  Mn1  1  0.38827656  0.69702906  0.85064575  1  1.112419  -4.803012  1.817811  -4.64  1.49974  -4.575271  0.936013  -4.718773  2.341408  -4.477  0.999347  -4.774984  2.263037  -4.556  0.616  0.888971  -4.656741  2.398344  -4.392
H  H2  1  0.17940906  0.20619931  0.33838163  1  0.424643  0.000632  0.886389  0.002  0.659345  0.002281  0.39166  0.001393  0.954052  0.003  0.403182  0.001  0.937512  0.003  0.286159  0.383689  0.001769  0.965387  0.004
H  H3  1  0.82063544  0.79378200  0.83839686  1  0.42459  -0.000631  0.886477  -0.002  0.660697  -0.00227  0.391625  -0.001392  0.954118  -0.003  0.403149  -0.001  0.937576  -0.003  0.286166  0.383656  -0.001768  0.96545  -0.004
H  H4  1  0.29738639  0.15482558  0.42321067  1  0.409494  0.000339  0.907354  0.001  0.649551  0.000972  0.376723  0.001366  0.974497  0.002  0.388935  0.001017  0.956905  0.001  0.283629  0.368142  0.001674  0.986775  0.002
H  H5  1  0.70265286  0.84517372  0.92321833  1  0.409367  -0.000339  0.907478  -0.001  0.649482  -0.000971  0.376586  -0.001367  0.974642  -0.002  0.388794  -0.001017  0.957058  -0.001  0.283601  0.368006  -0.001674  0.986918  -0.002
H  H6  1  0.27715381  0.41408906  0.23894444  1  0.080557  0.000184  0.954654  0.0  0.087424  0.001613  0.089677  0.000831  1.017821  0.001  0.092066  0.000586  1.015881  0.0  0.118267  0.087876  0.001085  1.019383  0.001
H  H7  1  0.72285371  0.58588199  0.73897316  1  0.080635  -0.000185  0.954458  0.0  0.08793  -0.001611  0.089664  -0.000831  1.017761  -0.001  0.09205  -0.000586  1.015821  0.0  0.11821  0.087869  -0.001085  1.019313  -0.001
H  H8  1  0.32616934  0.91998098  0.28166311  1  0.108699  -0.000485  0.951971  0.0  0.10717  5.8e-05  0.117623  -0.000317  1.016333  0.0  0.120507  -0.000371  1.014251  0.0  0.108667  0.115389  -0.000238  1.017996  0.0
H  H9  1  0.67378972  0.07998621  0.78170777  1  0.108789  0.000478  0.951891  0.0  0.106757  -5.8e-05  0.117665  0.000317  1.016291  0.0  0.120565  0.000372  1.014185  0.0  0.10861  0.11535  0.000239  1.018077  0.0
H  H10  1  0.63354654  0.91897233  0.36269536  1  0.114964  -4.6e-05  0.966382  0.0  0.113278  0.000647  0.122431  -4e-06  1.030567  0.0  0.125602  -0.000102  1.029934  0.0  0.110448  0.120038  0.000102  1.031296  0.0
H  H11  1  0.36640653  0.08100963  0.86273724  1  0.115133  4.4e-05  0.96643  0.0  0.113688  -0.000647  0.12258  4e-06  1.030635  0.0  0.12575  0.000102  1.030003  0.0  0.110473  0.120189  -0.000103  1.03136  0.0
H  H12  1  0.92738143  0.90387434  0.40642109  1  0.115034  0.000264  0.940706  0.0  0.104428  0.000892  0.125225  0.000269  0.999493  0.0  0.128767  0.000164  0.997885  0.0  0.112237  0.122604  0.000387  1.000847  0.0
H  H13  1  0.07255995  0.09613181  0.90648090  1  0.115134  -0.00026  0.940559  0.0  0.104729  -0.000892  0.125421  -0.000269  0.999188  0.0  0.128962  -0.000165  0.997581  0.0  0.112237  0.122796  -0.000387  1.000552  0.0
H  H14  1  0.21337181  0.85767350  0.49155000  1  0.10528  -0.000225  0.974221  0.0  0.162365  2.3e-05  0.115705  -2e-06  1.033803  0.0  0.118238  -4.5e-05  1.032577  0.0  0.106692  0.113725  5e-05  1.034955  0.0
H  H15  1  0.78657781  0.14237233  0.99159506  1  0.105453  0.000219  0.974418  0.0  0.161676  -2.3e-05  0.115879  2e-06  1.033934  0.0  0.118406  4.5e-05  1.032714  0.0  0.106806  0.113899  -5e-05  1.035083  0.0
H  H16  1  0.98284116  0.34948617  0.46795214  1  0.090885  -0.0002  0.938938  0.0  0.094782  0.001121  0.098394  0.000211  1.004509  0.001  0.101565  5e-05  1.001159  0.0  0.120935  0.095983  0.000383  1.00713  0.001
H  H17  1  0.01721564  0.65055091  0.96796234  1  0.090711  0.000201  0.93892  0.0  0.138879  -0.001072  0.098341  -0.000211  1.00438  -0.001  0.101513  -5.1e-05  1.001024  0.0  0.120907  0.095925  -0.000383  1.00701  -0.001
H  H18  1  0.01382453  0.75499876  0.21604293  1  0.112032  -3.9e-05  0.956942  0.0  0.047556  5.4e-05  0.133403  -3.5e-05  1.016513  0.0  0.133778  -5e-05  1.018347  0.0  0.091867  0.13307  -1.9e-05  1.015282  0.0
H  H19  1  0.98612090  0.24496969  0.71606252  1  0.111987  3.1e-05  0.956908  0.0  0.047766  -5.4e-05  0.133341  3.5e-05  1.016529  0.0  0.133716  4.9e-05  1.018366  0.0  0.091845  0.13301  1.9e-05  1.015299  0.0
H  H20  1  0.98295395  0.54207083  0.21719476  1  0.116292  -1.7e-05  0.94762  0.0  0.04747  0.000389  0.135253  0.000307  1.011711  0.0  0.136464  0.00016  1.011612  0.0  0.0957  0.134181  0.000448  1.012019  0.0
H  H21  1  0.01699780  0.45791313  0.71720676  1  0.116159  8e-06  0.947513  0.0  0.047889  -0.000388  0.135142  -0.000306  1.011635  0.0  0.136352  -0.000159  1.011536  0.0  0.095588  0.134075  -0.000446  1.011943  0.0
H  H22  1  0.11375312  0.65500849  0.13248524  1  0.112853  -0.000105  0.947687  0.0  0.073128  -0.000216  0.135911  -7.7e-05  1.006682  0.0  0.135799  -9.2e-05  1.008516  0.0  0.095186  0.135829  -6.9e-05  1.005489  0.0
H  H23  1  0.88618854  0.34496074  0.63249971  1  0.112747  9.2e-05  0.947815  0.0  0.073237  0.000216  0.135886  7.7e-05  1.006724  0.0  0.135769  9.2e-05  1.008564  0.0  0.095181  0.13581  6.9e-05  1.005527  0.0
H  H24  1  0.43635098  0.63489295  0.51750072  1  0.111902  -0.000155  0.947632  0.0  0.012525  -0.000103  0.13258  -0.000121  1.008486  0.0  0.132871  -0.000155  1.010275  0.0  0.091674  0.132261  -9.5e-05  1.007379  0.0
H  H25  1  0.56364015  0.36519556  0.01751832  1  0.111829  0.000176  0.947517  0.0  0.01324  0.000103  0.132588  0.000121  1.008354  0.0  0.132894  0.000154  1.010125  0.0  0.091663  0.132261  9.5e-05  1.007255  0.0
H  H26  1  0.30255832  0.43608114  0.53685643  1  0.119484  0.000106  0.942611  0.0  0.064986  0.000551  0.138342  0.000436  1.00422  0.0  0.140593  0.000303  1.002597  0.0  0.095306  0.136543  0.00056  1.005564  0.0
H  H27  1  0.69747130  0.56399554  0.03687305  1  0.119452  -9.5e-05  0.942877  0.0  0.064374  -0.000552  0.138578  -0.000436  1.0042  0.0  0.140836  -0.000304  1.002576  0.0  0.095433  0.136774  -0.000561  1.005554  0.0
H  H28  1  0.28113541  0.59537776  0.60784504  1  0.118533  0.000178  0.949284  0.0  0.044432  -0.000169  0.138672  0.000233  1.011436  0.0  0.139578  0.000211  1.011933  0.0  0.094713  0.137834  0.000247  1.011188  0.0
H  H29  1  0.71884874  0.40468050  0.10786702  1  0.11854  -0.000176  0.949174  0.0  0.044575  0.000169  0.13873  -0.000233  1.011316  0.0  0.139628  -0.000211  1.01182  0.0  0.094736  0.1379  -0.000247  1.011062  0.0
H  H30  1  0.49952932  0.94302102  0.62875165  1  0.123937  0.000784  0.981811  0.001  0.156053  0.000311  0.128774  0.000674  1.049192  0.0  0.133245  0.000667  1.04739  0.0  0.103101  0.125684  0.000666  1.050465  0.0
H  H31  1  0.50049978  0.05696816  0.12874741  1  0.124049  -0.000786  0.981776  -0.001  0.156027  -0.000311  0.128944  -0.000674  1.049068  0.0  0.13339  -0.000666  1.047293  0.0  0.103138  0.125848  -0.000666  1.050352  0.0
H  H32  1  0.91097651  0.06191147  0.54594155  1  0.098304  -0.000302  0.932517  0.0  0.105335  0.000161  0.110856  -0.000151  0.990204  0.0  0.114065  -0.000195  0.987832  0.0  0.108678  0.108493  -0.0001  0.991966  0.0
H  H33  1  0.08905150  0.93807729  0.04594430  1  0.098006  0.000302  0.932752  0.0  0.105604  -0.000161  0.110725  0.000151  0.990214  0.0  0.113936  0.000195  0.987844  0.0  0.108581  0.108359  0.0001  0.991981  0.0
H  H34  1  0.76262112  0.84564646  0.70333553  1  0.094849  0.000474  0.954038  0.0  0.094289  -0.00018  0.108752  0.000215  1.011826  0.0  0.111486  0.000273  1.009574  0.0  0.110269  0.106543  0.000144  1.013808  0.0
H  H35  1  0.23739785  0.15433896  0.20333221  1  0.094738  -0.000476  0.954021  0.0  0.09414  0.00018  0.108585  -0.000215  1.01192  0.0  0.111304  -0.000273  1.009658  0.0  0.110251  0.106376  -0.000143  1.0139  0.0
H  H36  1  0.18082992  0.97780982  0.62894950  1  0.125826  -0.000186  0.982686  0.0  0.146193  -0.000254  0.130931  -3e-05  1.048475  0.0  0.135791  -1.8e-05  1.045772  0.0  0.103255  0.127498  -4.5e-05  1.050585  0.0
H  H37  1  0.81920279  0.02217584  0.12894651  1  0.125867  0.000176  0.982836  0.0  0.146339  0.000254  0.13093  3e-05  1.048654  0.0  0.135788  1.9e-05  1.045952  0.0  0.103254  0.127495  4.5e-05  1.050765  0.0
C  C38  1  0.35495820  0.52895333  0.26409995  1  0.087858  0.006429  3.675185  0.006  0.469292  0.012074  0.05528  0.009546  3.9158  0.008  0.061546  0.008056  3.933914  0.007  0.055049  0.050888  0.011349  3.903809  0.009
C  C39  1  0.64503643  0.47101744  0.76412542  1  0.087906  -0.006409  3.674937  -0.006  0.467966  -0.012085  0.055372  -0.009556  3.91558  -0.008  0.061647  -0.008061  3.933689  -0.007  0.054961  0.050959  -0.011358  3.903623  -0.009
C  C40  1  0.27651256  0.66638870  0.25068639  1  0.102789  -0.002361  3.734657  -0.002  0.071852  -0.001057  0.131884  -0.001145  3.971002  -0.001  0.128283  -0.001995  3.99622  -0.002  0.001376  0.133951  -0.000359  3.954247  0.0
C  C41  1  0.72346462  0.33358301  0.75070139  1  0.102436  0.002328  3.735036  0.002  0.072462  0.001062  0.131581  0.001148  3.971351  0.001  0.127975  0.001996  3.99657  0.002  0.001472  0.133658  0.000362  3.954575  0.0
C  C42  1  0.38124975  0.80879872  0.28687061  1  -0.052789  0.005266  3.669516  0.004  -0.018104  0.009559  -0.078687  0.00731  3.917111  0.006  -0.076299  0.006291  3.936079  0.005  -0.063371  -0.080282  0.008882  3.904833  0.007
C  C43  1  0.61870990  0.19117753  0.78690484  1  -0.052669  -0.005225  3.669593  -0.004  -0.0176  -0.009571  -0.07854  -0.007322  3.917108  -0.006  -0.076149  -0.0063  3.936073  -0.005  -0.063331  -0.080095  -0.008894  3.904836  -0.007
C  C44  1  0.55518127  0.80874900  0.33291056  1  -0.131786  -0.002594  3.693143  -0.002  -0.045524  -0.001329  -0.151607  -0.001477  3.945536  -0.001  -0.158134  -0.002206  3.966403  -0.002  -0.079048  -0.147584  -0.000856  3.93212  -0.001
C  C45  1  0.44477097  0.19124415  0.83295454  1  -0.132023  0.002561  3.693621  0.002  -0.047063  0.001332  -0.151904  0.00148  3.945977  0.001  -0.158444  0.002208  3.966866  0.002  -0.079014  -0.147857  0.000858  3.932499  0.001
C  C46  1  0.62179199  0.66525043  0.34360624  1  0.164231  0.004036  3.789773  0.004  0.507833  0.009009  0.159339  0.007067  4.034419  0.006  0.165516  0.005801  4.055261  0.005  0.11897  0.155039  0.008673  4.02059  0.007
C  C47  1  0.37818008  0.33471943  0.84364328  1  0.164331  -0.00399  3.789815  -0.004  0.509657  -0.009009  0.159623  -0.007067  4.034262  -0.006  0.165798  -0.0058  4.0551  -0.005  0.119015  0.155328  -0.008671  4.020434  -0.007
C  C48  1  0.79924293  0.65099477  0.39409920  1  0.164559  0.005886  3.79118  0.006  0.449568  0.011873  0.159182  0.009361  4.034976  0.008  0.166066  0.007836  4.05541  0.007  0.119072  0.154205  0.011584  4.021567  0.01
C  C49  1  0.20073481  0.34900492  0.89413662  1  0.164876  -0.005908  3.790687  -0.006  0.448971  -0.011868  0.159329  -0.009354  4.034524  -0.008  0.166221  -0.007831  4.05495  -0.007  0.1193  0.154347  -0.011577  4.021119  -0.01
C  C50  1  0.94125927  0.78208892  0.42229405  1  -0.132016  -0.003727  3.707408  -0.003  -0.011703  -0.002393  -0.150551  -0.002208  3.960572  -0.002  -0.157293  -0.00312  3.981073  -0.003  -0.078724  -0.146277  -0.001641  3.947417  -0.002
C  C51  1  0.05867999  0.21791328  0.92234003  1  -0.132347  0.003719  3.706922  0.003  -0.012536  0.002388  -0.150875  0.002203  3.960111  0.002  -0.157622  0.003116  3.980607  0.003  -0.078778  -0.146603  0.001637  3.946958  0.002
C  C52  1  0.10286616  0.75522100  0.46979427  1  -0.060844  0.006938  3.68308  0.006  -0.07784  0.012257  -0.086578  0.00949  3.931947  0.007  -0.084414  0.008189  3.951945  0.006  -0.069663  -0.088193  0.011764  3.919058  0.009
C  C53  1  0.89709941  0.24481889  0.96983983  1  -0.060815  -0.006917  3.683533  -0.006  -0.07633  -0.012244  -0.086562  -0.009479  3.932367  -0.007  -0.084392  -0.00818  3.952368  -0.006  -0.06957  -0.088173  -0.011751  3.91947  -0.009
C  C54  1  0.12340289  0.59848011  0.48896931  1  0.099472  -0.003607  3.739029  -0.003  0.014889  -0.002273  0.126021  -0.002196  3.982101  -0.002  0.12209  -0.003197  4.007979  -0.003  -0.000366  0.128275  -0.001455  3.965035  -0.001
C  C55  1  0.87657484  0.40156772  0.98900000  1  0.099361  0.003615  3.739037  0.003  0.013919  0.002268  0.125866  0.002192  3.982252  0.002  0.121927  0.00319  4.008135  0.003  -0.000568  0.12812  0.001452  3.965181  0.001
C  C56  1  0.97613352  0.47484727  0.45730092  1  0.084613  0.007289  3.670774  0.007  0.519183  0.012997  0.047076  0.010138  3.921473  0.009  0.053417  0.008686  3.939198  0.008  0.053434  0.042557  0.01216  3.909889  0.01
C  C57  1  0.02388843  0.52517108  0.95732567  1  0.084758  -0.007295  3.671326  -0.007  0.475101  -0.013035  0.047113  -0.010129  3.921968  -0.009  0.053459  -0.008674  3.939694  -0.008  0.053354  0.042598  -0.012148  3.910377  -0.01
C  C58  1  0.08622385  0.65439529  0.20179120  1  -0.336074  0.00047  3.724272  0.001  -0.080388  0.000738  -0.416445  0.000487  3.955084  0.001  -0.418625  0.000362  3.967613  0.0  -0.238301  -0.414516  0.000632  3.946638  0.001
C  C59  1  0.91373833  0.34557723  0.70179934  1  -0.335643  -0.000425  3.724288  -0.001  -0.081218  -0.000736  -0.416108  -0.000486  3.955094  -0.001  -0.418282  -0.000361  3.967629  0.0  -0.238202  -0.414189  -0.000631  3.946641  -0.001
C  C60  1  0.29454616  0.56337354  0.54024177  1  -0.335132  0.000541  3.716903  0.001  -0.027272  0.000862  -0.412513  0.000796  3.946775  0.001  -0.414638  0.000622  3.957389  0.001  -0.236181  -0.410594  0.000972  3.939765  0.001
C  C61  1  0.70546104  0.43670715  0.04026726  1  -0.335066  -0.000595  3.716724  -0.001  -0.027694  -0.000861  -0.412806  -0.000797  3.94656  -0.001  -0.414949  -0.000623  3.957189  -0.001  -0.236263  -0.410888  -0.000973  3.939561  -0.001
C  C62  1  0.53430707  0.09733728  0.51432861  1  0.676164  0.003971  3.917471  0.004  1.577929  0.007104  0.631144  0.007394  4.204738  0.007  0.667203  0.005572  4.196652  0.006  0.204956  0.606438  0.009184  4.209153  0.008
C  C63  1  0.46572169  0.90267002  0.01432958  1  0.676185  -0.003974  3.917375  -0.004  1.578487  -0.007099  0.631328  -0.007392  4.204413  -0.007  0.667387  -0.005571  4.196319  -0.006  0.205081  0.606622  -0.009182  4.208829  -0.008
C  C64  1  0.60852334  0.00450588  0.58272837  1  -0.231395  -0.007698  3.637473  -0.006  -0.042687  -0.00788  -0.245899  -0.006598  3.891719  -0.005  -0.25687  -0.006651  3.908041  -0.005  -0.093438  -0.239074  -0.007902  3.881061  -0.006
C  C65  1  0.39150559  0.99549845  0.08272067  1  -0.231593  0.007703  3.637756  0.006  -0.042704  0.00788  -0.246191  0.006598  3.891944  0.005  -0.257141  0.006648  3.90828  0.005  -0.093449  -0.23937  0.007905  3.881298  0.006
C  C66  1  0.80263654  0.99715990  0.59120485  1  -0.014014  0.00612  3.773189  0.006  -0.092152  0.006435  -0.033156  0.004855  4.028648  0.004  -0.031351  0.004968  4.047873  0.004  -0.076153  -0.03416  0.005521  4.015659  0.005
C  C67  1  0.19740048  0.00283424  0.09120329  1  -0.013731  -0.006131  3.77304  -0.006  -0.092612  -0.006433  -0.032969  -0.004854  4.028401  -0.004  -0.031168  -0.004968  4.04762  -0.004  -0.076043  -0.033972  -0.005521  4.015415  -0.005
C  C68  1  0.87411345  0.91140623  0.65969527  1  -0.016273  -0.00811  3.765622  -0.007  -0.136017  -0.009901  -0.034991  -0.007558  4.015305  -0.006  -0.031804  -0.007112  4.033412  -0.006  -0.076847  -0.03712  -0.009109  4.003337  -0.008
C  C69  1  0.12591271  0.08858113  0.15969420  1  -0.015872  0.008098  3.765125  0.007  -0.135016  0.009906  -0.034608  0.007563  4.014883  0.006  -0.03139  0.007114  4.032962  0.006  -0.076754  -0.036747  0.009115  4.002936  0.008
C  C70  1  0.06929078  0.91145547  0.67245170  1  -0.235936  0.009404  3.655703  0.008  -0.039356  0.00836  -0.24896  0.00738  3.909246  0.006  -0.260059  0.008003  3.924835  0.006  -0.096124  -0.242158  0.007398  3.899345  0.006
C  C71  1  0.93072800  0.08851741  0.17244707  1  -0.236041  -0.009363  3.655794  -0.007  -0.039997  -0.008362  -0.249115  -0.007381  3.909276  -0.006  -0.260211  -0.008003  3.924857  -0.006  -0.096184  -0.242318  -0.007399  3.899381  -0.006
C  C72  1  0.14120195  0.82174282  0.74229541  1  0.665532  -0.007284  3.929043  -0.006  1.546715  -0.011292  0.618454  -0.0128  4.218286  -0.01  0.654571  -0.010169  4.211086  -0.008  0.20119  0.593514  -0.015611  4.22214  -0.012
C  C73  1  0.85882724  0.17822714  0.24228668  1  0.665206  0.007286  3.930172  0.006  1.547147  0.011297  0.618363  0.012809  4.219102  0.01  0.654484  0.010174  4.21191  0.008  0.20106  0.593424  0.015621  4.222957  0.012
N  N74  1  0.51993630  0.52683069  0.30935496  1  -0.368279  0.028299  3.2716  0.013  -1.3231  0.051678  -0.303882  0.034092  3.551928  0.014  -0.323471  0.029366  3.565159  0.01  -0.321516  -0.289871  0.038945  3.542994  0.018
N  N75  1  0.48005349  0.47314876  0.80938951  1  -0.36837  -0.028326  3.271293  -0.013  -1.323062  -0.051674  -0.304079  -0.03408  3.551619  -0.014  -0.32367  -0.029357  3.564849  -0.01  -0.321573  -0.290059  -0.038934  3.542676  -0.018
N  N76  1  0.81938234  0.49969660  0.41168954  1  -0.365832  0.026921  3.284409  0.011  -1.30126  0.048822  -0.301261  0.031517  3.567994  0.01  -0.320706  0.02656  3.580323  0.006  -0.325261  -0.287377  0.036444  3.5599  0.014
N  N77  1  0.18062213  0.50030432  0.91171673  1  -0.366033  -0.026911  3.285398  -0.011  -1.300251  -0.048786  -0.301346  -0.031529  3.568948  -0.01  -0.320793  -0.026572  3.58128  -0.006  -0.325363  -0.287459  -0.036454  3.560847  -0.014
O  O78  1  0.65568166  0.15615381  0.45450600  1  -0.663221  0.035517  2.04067  0.024  -1.235538  0.059999  -0.594866  0.040807  2.312678  0.025  -0.627639  0.036184  2.297692  0.021  -0.322814  -0.570086  0.045367  2.321752  0.03
O  O79  1  0.34433566  0.84386353  0.95450633  1  -0.663254  -0.035514  2.040123  -0.024  -1.236073  -0.060005  -0.594969  -0.040801  2.31205  -0.025  -0.627743  -0.036177  2.297069  -0.021  -0.322951  -0.570188  -0.045361  2.321118  -0.03
O  O80  1  0.35266241  0.11114590  0.51832199  1  -0.629382  0.001215  1.93679  0.002  -1.215342  0.006269  -0.571335  0.003963  2.146467  0.004  -0.596148  0.002599  2.134469  0.003  -0.316927  -0.553851  0.005311  2.154157  0.006
O  O81  1  0.64735010  0.88885354  0.01832387  1  -0.629289  -0.00121  1.937063  -0.002  -1.215746  -0.006267  -0.57132  -0.003961  2.146706  -0.004  -0.596126  -0.002597  2.13471  -0.003  -0.316961  -0.553836  -0.005308  2.154394  -0.006
O  O82  1  0.32576026  0.80803407  0.73887924  1  -0.648173  -0.035868  1.985255  -0.022  -1.21717  -0.059953  -0.572647  -0.037577  2.246124  -0.019  -0.606471  -0.033219  2.23149  -0.015  -0.321684  -0.546806  -0.042033  2.254713  -0.023
O  O83  1  0.67426519  0.19194568  0.23888111  1  -0.648075  0.035878  1.985911  0.022  -1.217598  0.05995  -0.572684  0.037578  2.246814  0.019  -0.606515  0.033222  2.23217  0.015  -0.32175  -0.546803  0.042033  2.255314  0.023
O  O84  1  0.02917950  0.75910240  0.80302129  1  -0.647279  -0.008437  1.996654  -0.005  -1.230266  -0.022985  -0.588008  -0.016148  2.229037  -0.012  -0.615237  -0.013247  2.21866  -0.01  -0.304612  -0.568616  -0.019276  2.235632  -0.015
O  O85  1  0.97086098  0.24086911  0.30300337  1  -0.647158  0.008434  1.997168  0.005  -1.230128  0.023003  -0.587907  0.01615  2.229371  0.012  -0.615138  0.013249  2.219  0.01  -0.304432  -0.568521  0.019279  2.235958  0.015
O  O86  1  0.30806989  0.18152186  0.35998136  1  -0.872772  0.036545  1.911106  0.024  -1.333545  0.065688  -0.803914  0.046725  2.132529  0.031  -0.831414  0.041344  2.093887  0.026  -0.585785  -0.782654  0.051873  2.158878  0.035
O  O87  1  0.69198394  0.81847426  0.85998848  1  -0.872628  -0.036544  1.911318  -0.024  -1.334919  -0.065704  -0.803762  -0.046725  2.132678  -0.031  -0.831262  -0.041345  2.094044  -0.026  -0.585726  -0.782491  -0.051872  2.159016  -0.035
