# generated using pymatgen
data_ZnH14C18BrN3O7
_symmetry_space_group_name_H-M   'P 1'
_cell_length_a   9.46644263
_cell_length_b   9.48698708
_cell_length_c   11.18258751
_cell_angle_alpha   70.61501822
_cell_angle_beta   79.86681728
_cell_angle_gamma   81.06745072
_symmetry_Int_Tables_number   1
_chemical_formula_structural   ZnH14C18BrN3O7
_chemical_formula_sum   'Zn2 H28 C36 Br2 N6 O14'
_cell_volume   927.48659394
_cell_formula_units_Z   2
loop_
 _symmetry_equiv_pos_site_id
 _symmetry_equiv_pos_as_xyz
  1  'x, y, z'
loop_
 _atom_site_type_symbol
 _atom_site_label
 _atom_site_symmetry_multiplicity
 _atom_site_fract_x
 _atom_site_fract_y
 _atom_site_fract_z
 _atom_site_occupancy
 _atom_site_pbe_bader_spin_density
 _atom_site_pbe_cm5_charge
 _atom_site_pbe_ddec_charge
 _atom_site_pbe_ddec_spin_density
 _atom_site_pbe_ddec_sum_bond_order
 _atom_site_pbe_magmom
Zn  Zn0  1  0.02430380  0.97908555  0.28555347  1  0  0.690735  0.850659  0  2.289887  0
Zn  Zn1  1  0.97569536  0.02091526  0.71444650  1  0  0.690742  0.850665  0  2.289902  0
H  H2  1  0.38897079  0.75290571  0.35442282  1  0  0.311579  0.387093  0  0.951806  0
H  H3  1  0.61102741  0.24709398  0.64557671  1  0  0.311592  0.387068  0  0.951838  0
H  H4  1  0.00570237  0.81003023  0.53263294  1  0  0.303466  0.407359  0  0.913294  0
H  H5  1  0.99429657  0.18997282  0.46736644  1  0  0.30352  0.407411  0  0.913202  0
H  H6  1  0.09947410  0.71883205  0.44319260  1  0  0.296125  0.38797  0  0.95016  0
H  H7  1  0.90052495  0.28116989  0.55680707  1  0  0.296105  0.387926  0  0.950218  0
H  H8  1  0.99259819  0.46694592  0.20118331  1  0  0.130651  0.156431  0  1.013657  0
H  H9  1  0.00740346  0.53305152  0.79881366  1  0  0.130665  0.156404  0  1.01368  0
H  H10  1  0.79263160  0.76030722  0.35554610  1  0  0.12045  0.153568  0  0.991949  0
H  H11  1  0.20737016  0.23968910  0.64445385  1  0  0.120487  0.153592  0  0.991994  0
H  H12  1  0.84017231  0.56166952  0.40905693  1  0  0.113932  0.150371  0  1.010966  0
H  H13  1  0.15983267  0.43832679  0.59094344  1  0  0.113957  0.150405  0  1.010991  0
H  H14  1  0.72921152  0.64386249  0.28337153  1  0  0.103781  0.121933  0  1.034847  0
H  H15  1  0.27079165  0.35613046  0.71662916  1  0  0.103753  0.121942  0  1.034793  0
H  H16  1  0.33872789  0.85920833  0.90014193  1  0  0.0963  0.102553  0  1.068452  0
H  H17  1  0.66127330  0.14079360  0.09985832  1  0  0.09634  0.102625  0  1.06833  0
H  H18  1  0.46537698  0.09073277  0.81896237  1  0  0.109615  0.114612  0  1.017025  0
H  H19  1  0.53462325  0.90926804  0.18103655  1  0  0.109637  0.114631  0  1.017008  0
H  H20  1  0.38786630  0.29310195  0.92351518  1  0  0.097711  0.101425  0  1.031424  0
H  H21  1  0.61213382  0.70689999  0.07648434  1  0  0.097718  0.101445  0  1.031416  0
H  H22  1  0.19189250  0.24830604  0.11101873  1  0  0.111178  0.077341  0  1.024417  0
H  H23  1  0.80810903  0.75169252  0.88898331  1  0  0.111154  0.077339  0  1.0244  0
H  H24  1  0.57060680  0.01022889  0.34037379  1  0  0.108654  0.113407  0  1.017486  0
H  H25  1  0.42939214  0.98977417  0.65962559  1  0  0.108636  0.113381  0  1.017479  0
H  H26  1  0.63225570  0.44769845  0.34083417  1  0  0.103732  0.102619  0  1.049883  0
H  H27  1  0.36774228  0.55230349  0.65916476  1  0  0.103727  0.102616  0  1.049882  0
H  H28  1  0.20141893  0.32852506  0.37588201  1  0  0.110984  0.116615  0  1.025003  0
H  H29  1  0.79857916  0.67147575  0.62411901  1  0  0.110964  0.116573  0  1.02505  0
C  C30  1  0.13718873  0.65300857  0.09463318  1  0  -0.037929  -0.031463  0  4.02272  0
C  C31  1  0.86281472  0.34699224  0.90536705  1  0  -0.037925  -0.031433  0  4.02267  0
C  C32  1  0.12115890  0.79893479  0.10591365  1  0  0.087094  0.045974  0  4.073613  0
C  C33  1  0.87884382  0.20106265  0.89408675  1  0  0.087123  0.046002  0  4.073513  0
C  C34  1  0.02380988  0.57984925  0.17695894  1  0  0.023624  -0.126935  0  3.851972  0
C  C35  1  0.97619284  0.42014819  0.82304056  1  0  0.023639  -0.126887  0  3.852076  0
C  C36  1  0.81881842  0.65933177  0.32620141  1  0  -0.128914  -0.320016  0  3.82245  0
C  C37  1  0.18118442  0.34066455  0.67379748  1  0  -0.128988  -0.320131  0  3.822465  0
C  C38  1  0.20208914  0.92976756  0.05022934  1  0  0.123884  0.207121  0  3.986419  0
C  C39  1  0.79791250  0.07022988  0.94977121  1  0  0.123891  0.207169  0  3.98641  0
C  C40  1  0.31018108  0.94675042  0.94532714  1  0  -0.080092  -0.146671  0  3.917726  0
C  C41  1  0.68981927  0.05324927  0.05467208  1  0  -0.080111  -0.14678  0  3.917729  0
C  C42  1  0.37906474  0.07733622  0.89930387  1  0  -0.062637  -0.008793  0  3.931772  0
C  C43  1  0.62093431  0.92266571  0.10069580  1  0  -0.062637  -0.008735  0  3.931794  0
C  C44  1  0.33649218  0.18930957  0.95730985  1  0  -0.089371  -0.140268  0  3.987825  0
C  C45  1  0.66350924  0.81069012  0.04268921  1  0  -0.089394  -0.140309  0  3.987813  0
C  C46  1  0.22756403  0.16536852  0.06105555  1  0  0.047613  0.102961  0  3.961194  0
C  C47  1  0.77243632  0.83463117  0.93894545  1  0  0.047626  0.102929  0  3.961266  0
C  C48  1  0.37552727  0.15707485  0.35777024  1  0  -0.018162  -0.044715  0  3.95943  0
C  C49  1  0.62447189  0.84292596  0.64223152  1  0  -0.018199  -0.044795  0  3.9595  0
C  C50  1  0.52540113  0.12109191  0.34529026  1  0  -0.067943  -0.080244  0  3.903607  0
C  C51  1  0.47459696  0.87890890  0.65470987  1  0  -0.067911  -0.080206  0  3.903621  0
C  C52  1  0.61780670  0.22609387  0.33776524  1  0  -0.021726  -0.042137  0  3.983145  0
C  C53  1  0.38219117  0.77390920  0.66223251  1  0  -0.021737  -0.04212  0  3.983155  0
C  C54  1  0.55921797  0.36766137  0.34550180  1  0  -0.074617  -0.092718  0  3.936621  0
C  C55  1  0.44078001  0.63234056  0.65449713  1  0  -0.074588  -0.092676  0  3.936528  0
C  C56  1  0.40956527  0.40453826  0.35978690  1  0  -0.024898  -0.068611  0  4.019611  0
C  C57  1  0.59043293  0.59546143  0.64021353  1  0  -0.024936  -0.06872  0  4.019657  0
C  C58  1  0.31768675  0.29912794  0.36556532  1  0  -0.06824  -0.087394  0  3.910563  0
C  C59  1  0.68231134  0.70087287  0.63443571  1  0  -0.068192  -0.087258  0  3.910509  0
C  C60  1  0.28060294  0.04546551  0.35410701  1  0  0.213473  0.592822  0  4.188486  0
C  C61  1  0.71939622  0.95453530  0.64589564  1  0  0.213428  0.592748  0  4.188399  0
C  C62  1  0.77939678  0.19061918  0.31799942  1  0  0.198317  0.566293  0  4.24466  0
C  C63  1  0.22060002  0.80938388  0.68199848  1  0  0.19834  0.566341  0  4.244533  0
C  C64  1  0.34509641  0.55420563  0.36906303  1  0  0.237402  0.585632  0  4.106627  0
C  C65  1  0.65489953  0.44579519  0.63093652  1  0  0.237373  0.585616  0  4.106661  0
Br  Br66  1  0.28697692  0.56461909  0.99981126  1  0  0.080928  0.000453  0  1.625971  0
Br  Br67  1  0.71302547  0.43538173  0.00018645  1  0  0.08092  0.000435  0  1.625964  0
N  N68  1  0.00394567  0.81160726  0.19144190  1  0  -0.225014  -0.261511  0  3.326888  0
N  N69  1  0.99605608  0.18838905  0.80855984  1  0  -0.225001  -0.261543  0  3.326837  0
N  N70  1  0.94754291  0.68007503  0.23273467  1  0  -0.125405  0.290446  0  3.74938  0
N  N71  1  0.05245873  0.31992241  0.76726588  1  0  -0.125429  0.290453  0  3.74928  0
N  N72  1  0.16316223  0.03817776  0.10769173  1  0  -0.318239  -0.283063  0  3.508848  0
N  N73  1  0.83683930  0.96182080  0.89230852  1  0  -0.318262  -0.283088  0  3.508895  0
O  O74  1  0.14471106  0.08759208  0.35721615  1  0  -0.317785  -0.560919  0  2.35915  0
O  O75  1  0.85528822  0.91240761  0.64278591  1  0  -0.317795  -0.560912  0  2.359069  0
O  O76  1  0.33989821  0.92194089  0.34084094  1  0  -0.322939  -0.584793  0  2.261038  0
O  O77  1  0.66010202  0.07805992  0.65916156  1  0  -0.322876  -0.584677  0  2.26093  0
O  O78  1  0.82161852  0.06118751  0.30107466  1  0  -0.333265  -0.55809  0  2.3661  0
O  O79  1  0.17838139  0.93881667  0.69892247  1  0  -0.333271  -0.558107  0  2.366085  0
O  O80  1  0.85959472  0.28405299  0.31754123  1  0  -0.327499  -0.566567  0  2.181372  0
O  O81  1  0.14040196  0.71595119  0.68245727  1  0  -0.327503  -0.566593  0  2.181337  0
O  O82  1  0.21329203  0.58338121  0.39482019  1  0  -0.278095  -0.50081  0  2.244126  0
O  O83  1  0.78670628  0.41661735  0.60518233  1  0  -0.278073  -0.500816  0  2.244114  0
O  O84  1  0.44009516  0.65243572  0.34827558  1  0  -0.32724  -0.485226  0  2.309493  0
O  O85  1  0.55990186  0.34756510  0.65172113  1  0  -0.327246  -0.485164  0  2.309475  0
O  O86  1  0.01412000  0.79263758  0.44958046  1  0  -0.571218  -0.744735  0  2.196748  0
O  O87  1  0.98587905  0.20736435  0.55041921  1  0  -0.571263  -0.744743  0  2.196747  0
