# generated using pymatgen
data_CdH8C14S2(N4F)2
_symmetry_space_group_name_H-M   'P 1'
_cell_length_a   7.26904138
_cell_length_b   8.85148666
_cell_length_c   14.11042531
_cell_angle_alpha   108.26609149
_cell_angle_beta   100.71738532
_cell_angle_gamma   89.91763098
_symmetry_Int_Tables_number   1
_chemical_formula_structural   CdH8C14S2(N4F)2
_chemical_formula_sum   'Cd2 H16 C28 S4 N16 F4'
_cell_volume   845.53022901
_cell_formula_units_Z   2
loop_
 _symmetry_equiv_pos_site_id
 _symmetry_equiv_pos_as_xyz
  1  'x, y, z'
loop_
 _atom_site_type_symbol
 _atom_site_label
 _atom_site_symmetry_multiplicity
 _atom_site_fract_x
 _atom_site_fract_y
 _atom_site_fract_z
 _atom_site_occupancy
 _atom_site_hle17_bader_spin_density
 _atom_site_hle17_ddec_charge
 _atom_site_hle17_ddec_spin_density
 _atom_site_hle17_ddec_sum_bond_order
 _atom_site_hle17_magmom
 _atom_site_hse06_10hf_bader_spin_density
 _atom_site_hse06_10hf_ddec_charge
 _atom_site_hse06_10hf_ddec_spin_density
 _atom_site_hse06_10hf_ddec_sum_bond_order
 _atom_site_hse06_10hf_magmom
 _atom_site_hse06_bader_spin_density
 _atom_site_hse06_ddec_charge
 _atom_site_hse06_ddec_spin_density
 _atom_site_hse06_ddec_sum_bond_order
 _atom_site_hse06_magmom
 _atom_site_pbe_bader_spin_density
 _atom_site_pbe_cm5_charge
 _atom_site_pbe_ddec_charge
 _atom_site_pbe_ddec_spin_density
 _atom_site_pbe_ddec_sum_bond_order
 _atom_site_pbe_magmom
Cd  Cd0  1  0.24992068  0.38532959  0.99999326  1  0  0.848982  0  1.966554  0  0  0.659723  0  2.451776  0  0  0.702165  0  2.41677  0  0  0.643614  0.630029  0  2.475543  0
Cd  Cd1  1  0.75007482  0.61466967  0.00000683  1  0  0.848949  0  1.966577  0  0  0.659667  0  2.451821  0  0  0.702111  0  2.416811  0  0  0.643571  0.629974  0  2.475587  0
H  H2  1  0.61590864  0.97455362  0.42296570  1  0  0.115762  0  0.939934  0  0  0.121447  0  1.005282  0  0  0.124978  0  1.002543  0  0  0.110436  0.118862  0  1.007387  0
H  H3  1  0.88412634  0.55270018  0.57667173  1  0  0.116482  0  0.939378  0  0  0.122482  0  1.004011  0  0  0.126029  0  1.001238  0  0  0.111069  0.119882  0  1.006141  0
H  H4  1  0.38408537  0.02544445  0.57703400  1  0  0.115788  0  0.939919  0  0  0.12145  0  1.005284  0  0  0.124981  0  1.002544  0  0  0.110427  0.118864  0  1.00739  0
H  H5  1  0.11587913  0.44730143  0.42333052  1  0  0.116914  0  0.938696  0  0  0.1225  0  1.004023  0  0  0.126049  0  1.001248  0  0  0.111044  0.119899  0  1.006157  0
H  H6  1  0.69703286  0.26487003  0.51209283  1  0  0.133778  0  0.933228  0  0  0.138264  0  0.999435  0  0  0.142113  0  0.996625  0  0  0.110499  0.135463  0  1.001583  0
H  H7  1  0.80320922  0.75458534  0.48793423  1  0  0.132772  0  0.933152  0  0  0.137844  0  0.998537  0  0  0.141653  0  0.99583  0  0  0.110316  0.135067  0  1.00064  0
H  H8  1  0.30296396  0.73512804  0.48790644  1  0  0.133799  0  0.933157  0  0  0.138236  0  0.999483  0  0  0.142085  0  0.996674  0  0  0.110512  0.135439  0  1.001624  0
H  H9  1  0.19678907  0.24541391  0.51206684  1  0  0.133233  0  0.932274  0  0  0.137839  0  0.998516  0  0  0.141646  0  0.995811  0  0  0.110309  0.135063  0  1.000621  0
H  H10  1  0.41037654  0.37147167  0.24706220  1  0  0.114843  0  0.983212  0  0  0.114797  0  1.062199  0  0  0.118513  0  1.059676  0  0  0.099843  0.112081  0  1.064122  0
H  H11  1  0.09004190  0.12468322  0.75330570  1  0  0.115827  0  0.981769  0  0  0.115302  0  1.061546  0  0  0.119002  0  1.05902  0  0  0.099713  0.112622  0  1.063442  0
H  H12  1  0.58962273  0.62852164  0.75293565  1  0  0.114988  0  0.982562  0  0  0.114782  0  1.062111  0  0  0.118496  0  1.059591  0  0  0.099849  0.112074  0  1.064026  0
H  H13  1  0.90996522  0.87532084  0.24669154  1  0  0.115828  0  0.981844  0  0  0.115283  0  1.061631  0  0  0.118995  0  1.059098  0  0  0.09972  0.112605  0  1.063531  0
H  H14  1  0.32258159  0.08013172  0.15798666  1  0  0.106337  0  0.961341  0  0  0.113894  0  1.027105  0  0  0.116927  0  1.025387  0  0  0.096036  0.111682  0  1.02842  0
H  H15  1  0.17739073  0.92168618  0.84208977  1  0  0.106364  0  0.961262  0  0  0.114162  0  1.026522  0  0  0.117123  0  1.024893  0  0  0.096327  0.111976  0  1.027806  0
H  H16  1  0.67741365  0.91986397  0.84201268  1  0  0.106352  0  0.961332  0  0  0.113878  0  1.027105  0  0  0.116911  0  1.025386  0  0  0.096043  0.111673  0  1.028403  0
H  H17  1  0.82262077  0.07832025  0.15790909  1  0  0.106275  0  0.961349  0  0  0.114156  0  1.02653  0  0  0.117117  0  1.024901  0  0  0.096314  0.11197  0  1.027813  0
C  C18  1  0.42622120  0.75284041  0.13852398  1  0  0.30842  0  3.814045  0  0  0.262197  0  4.115544  0  0  0.282794  0  4.126978  0  0  0.220251  0.248395  0  4.107415  0
C  C19  1  0.07338773  0.61408847  0.86115701  1  0  0.310406  0  3.811703  0  0  0.263003  0  4.11511  0  0  0.283658  0  4.12648  0  0  0.220522  0.249182  0  4.106999  0
C  C20  1  0.57377543  0.24715527  0.86147621  1  0  0.308578  0  3.814071  0  0  0.262391  0  4.115495  0  0  0.282985  0  4.126944  0  0  0.220323  0.248575  0  4.107388  0
C  C21  1  0.92661253  0.38591795  0.13884356  1  0  0.310426  0  3.811631  0  0  0.263005  0  4.115141  0  0  0.28366  0  4.126508  0  0  0.220493  0.249185  0  4.107031  0
C  C22  1  0.46966840  0.01138218  0.28481881  1  0  0.142065  0  3.789509  0  0  0.131087  0  4.040217  0  0  0.133453  0  4.063924  0  0  0.084871  0.129436  0  4.024244  0
C  C23  1  0.03030084  0.72683672  0.71502404  1  0  0.144128  0  3.788436  0  0  0.133295  0  4.038971  0  0  0.13557  0  4.062788  0  0  0.086371  0.131718  0  4.022906  0
C  C24  1  0.53032702  0.98861589  0.71518103  1  0  0.142189  0  3.789757  0  0  0.131159  0  4.040414  0  0  0.133529  0  4.064118  0  0  0.084941  0.129504  0  4.024445  0
C  C25  1  0.96970904  0.27316729  0.28497700  1  0  0.143981  0  3.788591  0  0  0.133193  0  4.039039  0  0  0.135467  0  4.06286  0  0  0.086406  0.131621  0  4.022973  0
C  C26  1  0.57227225  0.06134819  0.38449123  1  0  -0.093301  0  3.720379  0  0  -0.118544  0  3.983949  0  0  -0.119509  0  4.003333  0  0  -0.078553  -0.117781  0  3.970862  0
C  C27  1  0.92786146  0.67776857  0.61532140  1  0  -0.095973  0  3.72054  0  0  -0.121016  0  3.983493  0  0  -0.121919  0  4.002851  0  0  -0.079896  -0.120274  0  3.970391  0
C  C28  1  0.42772446  0.93864868  0.61550921  1  0  -0.093378  0  3.720496  0  0  -0.118595  0  3.98408  0  0  -0.11956  0  4.003463  0  0  -0.078603  -0.117833  0  3.970995  0
C  C29  1  0.07214290  0.32223663  0.38468075  1  0  -0.095618  0  3.719464  0  0  -0.12096  0  3.983356  0  0  -0.121859  0  4.002698  0  0  -0.07987  -0.120209  0  3.970221  0
C  C30  1  0.61893888  0.22302102  0.43408253  1  0  -0.169665  0  3.741602  0  0  -0.196224  0  4.004446  0  0  -0.201089  0  4.024315  0  0  -0.094444  -0.192942  0  3.991073  0
C  C31  1  0.88127307  0.79029583  0.56595873  1  0  -0.168533  0  3.737477  0  0  -0.195902  0  4.002111  0  0  -0.200775  0  4.021878  0  0  -0.094478  -0.192624  0  3.988807  0
C  C32  1  0.38105647  0.77697588  0.56591565  1  0  -0.168969  0  3.739965  0  0  -0.196075  0  4.004332  0  0  -0.200937  0  4.024197  0  0  -0.094387  -0.192794  0  3.99096  0
C  C33  1  0.11872821  0.20970579  0.43404311  1  0  -0.168149  0  3.736234  0  0  -0.195857  0  4.001968  0  0  -0.20073  0  4.021736  0  0  -0.094442  -0.192584  0  3.988677  0
C  C34  1  0.56262425  0.32912662  0.38117783  1  0  0.315616  0  3.778113  0  0  0.301937  0  4.058583  0  0  0.312853  0  4.069745  0  0  0.098866  0.294268  0  4.051202  0
C  C35  1  0.93779548  0.94903763  0.61901856  1  0  0.319878  0  3.776234  0  0  0.30351  0  4.059413  0  0  0.314513  0  4.07047  0  0  0.099152  0.295779  0  4.052109  0
C  C36  1  0.43737921  0.67086667  0.61882114  1  0  0.318298  0  3.775988  0  0  0.301845  0  4.058574  0  0  0.312763  0  4.069734  0  0  0.098791  0.294177  0  4.051193  0
C  C37  1  0.06220311  0.05096521  0.38098185  1  0  0.31976  0  3.776426  0  0  0.303446  0  4.059446  0  0  0.31445  0  4.070507  0  0  0.099127  0.295716  0  4.05214  0
C  C38  1  0.45813625  0.28177008  0.28256803  1  0  -0.177752  0  3.759692  0  0  -0.198531  0  4.012323  0  0  -0.204601  0  4.033221  0  0  -0.10506  -0.194351  0  3.998303  0
C  C39  1  0.04217323  0.99966256  0.71766094  1  0  -0.179092  0  3.757287  0  0  -0.200938  0  4.013023  0  0  -0.206964  0  4.033772  0  0  -0.105348  -0.196801  0  3.999069  0
C  C40  1  0.54186331  0.71822683  0.71742844  1  0  -0.176793  0  3.757266  0  0  -0.198482  0  4.01236  0  0  -0.204555  0  4.033268  0  0  -0.105029  -0.19431  0  3.998333  0
C  C41  1  0.95783088  0.00033909  0.28233835  1  0  -0.179093  0  3.757358  0  0  -0.200937  0  4.013097  0  0  -0.206967  0  4.03382  0  0  -0.105371  -0.196808  0  3.999151  0
C  C42  1  0.41013567  0.12013071  0.23381149  1  0  -0.104916  0  3.749995  0  0  -0.122446  0  3.997102  0  0  -0.12383  0  4.018512  0  0  -0.085452  -0.121384  0  3.98254  0
C  C43  1  0.08999725  0.88634753  0.76621405  1  0  -0.104681  0  3.750619  0  0  -0.122344  0  3.998098  0  0  -0.123622  0  4.019562  0  0  -0.085823  -0.121345  0  3.98349  0
C  C44  1  0.58986060  0.87986021  0.76618700  1  0  -0.104964  0  3.75  0  0  -0.122479  0  3.997183  0  0  -0.123862  0  4.01859  0  0  -0.085516  -0.121414  0  3.982624  0
C  C45  1  0.91000862  0.11365889  0.23378567  1  0  -0.104553  0  3.7507  0  0  -0.122282  0  3.998138  0  0  -0.123562  0  4.019608  0  0  -0.08582  -0.121284  0  3.983529  0
S  S46  1  0.50488600  0.81167444  0.04774270  1  0  -0.402008  0  2.068602  0  0  -0.362492  0  2.424435  0  0  -0.380411  0  2.415735  0  0  -0.193086  -0.349739  0  2.430094  0
S  S47  1  0.99441690  0.76365395  0.95189146  1  0  -0.402649  0  2.068015  0  0  -0.362699  0  2.424544  0  0  -0.380631  0  2.415789  0  0  -0.192995  -0.349941  0  2.430227  0
S  S48  1  0.49510941  0.18832363  0.95225785  1  0  -0.402059  0  2.068606  0  0  -0.362551  0  2.424411  0  0  -0.380469  0  2.415712  0  0  -0.193125  -0.349793  0  2.430077  0
S  S49  1  0.00557609  0.23634891  0.04810769  1  0  -0.402647  0  2.06803  0  0  -0.362702  0  2.424587  0  0  -0.380636  0  2.415831  0  0  -0.192976  -0.349945  0  2.430272  0
N  N50  1  0.42088507  0.84616414  0.23572595  1  0  -0.046799  0  3.512297  0  0  0.037089  0  3.735991  0  0  0.023011  0  3.758497  0  0  -0.103942  0.046203  0  3.720969  0
N  N51  1  0.07892568  0.61038725  0.76400032  1  0  -0.047435  0  3.508405  0  0  0.036671  0  3.732576  0  0  0.02262  0  3.755054  0  0  -0.104116  0.045745  0  3.717589  0
N  N52  1  0.57911023  0.15383272  0.76427506  1  0  -0.047049  0  3.512443  0  0  0.036839  0  3.736157  0  0  0.022758  0  3.758667  0  0  -0.103971  0.04596  0  3.72114  0
N  N53  1  0.92108166  0.38962033  0.23600261  1  0  -0.04747  0  3.508556  0  0  0.036684  0  3.732552  0  0  0.022633  0  3.755026  0  0  -0.104053  0.045753  0  3.717573  0
N  N54  1  0.35545184  0.75596585  0.28662102  1  0  -0.056824  0  2.834695  0  0  -0.06875  0  3.12907  0  0  -0.064065  0  3.135191  0  0  -0.059615  -0.071822  0  3.125095  0
N  N55  1  0.14459364  0.46925612  0.71312605  1  0  -0.055577  0  2.834445  0  0  -0.067519  0  3.128802  0  0  -0.062834  0  3.13492  0  0  -0.058711  -0.070588  0  3.124835  0
N  N56  1  0.64454627  0.24403101  0.71337955  1  0  -0.056599  0  2.834234  0  0  -0.068544  0  3.128741  0  0  -0.063859  0  3.134861  0  0  -0.059599  -0.071616  0  3.124767  0
N  N57  1  0.85541509  0.53075145  0.28687771  1  0  -0.056147  0  2.835142  0  0  -0.06745  0  3.12877  0  0  -0.062765  0  3.134886  0  0  -0.058739  -0.070521  0  3.124805  0
N  N58  1  0.31880528  0.61378077  0.22332423  1  0  -0.03729  0  2.984863  0  0  -0.03655  0  3.291806  0  0  -0.032896  0  3.300616  0  0  -0.075351  -0.038786  0  3.285833  0
N  N59  1  0.18122112  0.39021062  0.77640885  1  0  -0.039277  0  2.985658  0  0  -0.038714  0  3.292926  0  0  -0.035054  0  3.301751  0  0  -0.076237  -0.040956  0  3.286945  0
N  N60  1  0.68119273  0.38621489  0.77667680  1  0  -0.037316  0  2.984612  0  0  -0.036672  0  3.2918  0  0  -0.033016  0  3.300609  0  0  -0.075379  -0.038907  0  3.285829  0
N  N61  1  0.81878331  0.60979575  0.22359497  1  0  -0.039372  0  2.985817  0  0  -0.03877  0  3.292829  0  0  -0.035113  0  3.301656  0  0  -0.076288  -0.041012  0  3.286848  0
N  N62  1  0.35824703  0.60717899  0.13173507  1  0  -0.361561  0  3.205451  0  0  -0.289672  0  3.510995  0  0  -0.311162  0  3.52463  0  0  -0.256115  -0.27518  0  3.501499  0
N  N63  1  0.14150184  0.47509465  0.86795555  1  0  -0.361726  0  3.203491  0  0  -0.289074  0  3.508852  0  0  -0.310553  0  3.522382  0  0  -0.25635  -0.274592  0  3.499413  0
N  N64  1  0.64175099  0.39281667  0.86826596  1  0  -0.361621  0  3.205498  0  0  -0.289747  0  3.511035  0  0  -0.311219  0  3.524615  0  0  -0.256147  -0.275253  0  3.501545  0
N  N65  1  0.85849682  0.52490937  0.13204580  1  0  -0.361764  0  3.203451  0  0  -0.289105  0  3.50889  0  0  -0.310582  0  3.522416  0  0  -0.256336  -0.27462  0  3.49945  0
F  F66  1  0.60916700  0.48745447  0.42840320  1  0  -0.207297  0  1.237489  0  0  -0.157611  0  1.414454  0  0  -0.168485  0  1.406116  0  0  -0.091439  -0.149625  0  1.420025  0
F  F67  1  0.89164685  0.06053694  0.57195797  1  0  -0.216911  0  1.250951  0  0  -0.15763  0  1.418431  0  0  -0.168541  0  1.410074  0  0  -0.090851  -0.149615  0  1.424011  0
F  F68  1  0.39083667  0.51254124  0.57159343  1  0  -0.217329  0  1.247571  0  0  -0.157571  0  1.414479  0  0  -0.168446  0  1.406141  0  0  -0.091387  -0.149585  0  1.42005  0
F  F69  1  0.10834884  0.93946471  0.42804191  1  0  -0.216858  0  1.251019  0  0  -0.157625  0  1.418486  0  0  -0.168536  0  1.410128  0  0  -0.090858  -0.149609  0  1.424064  0
