# generated using pymatgen
data_Zn4H39C48N3O19
_symmetry_space_group_name_H-M   'P 1'
_cell_length_a   25.92172486
_cell_length_b   26.36385071
_cell_length_c   26.43194553
_cell_angle_alpha   61.52478453
_cell_angle_beta   60.91575121
_cell_angle_gamma   60.93067547
_symmetry_Int_Tables_number   1
_chemical_formula_structural   Zn4H39C48N3O19
_chemical_formula_sum   'Zn8 H78 C96 N6 O38'
_cell_volume   13094.92193690
_cell_formula_units_Z   2
loop_
 _symmetry_equiv_pos_site_id
 _symmetry_equiv_pos_as_xyz
  1  'x, y, z'
loop_
 _atom_site_type_symbol
 _atom_site_label
 _atom_site_symmetry_multiplicity
 _atom_site_fract_x
 _atom_site_fract_y
 _atom_site_fract_z
 _atom_site_occupancy
 _atom_site_pbe_bader_charge
 _atom_site_pbe_bader_spin_density
 _atom_site_pbe_cm5_charge
 _atom_site_pbe_ddec_charge
 _atom_site_pbe_ddec_spin_density
 _atom_site_pbe_ddec_sum_bond_order
 _atom_site_pbe_magmom
Zn  Zn0  1  0.10043916  0.95580590  0.96556676  1  1.298217  0  0.665612  0.958797  0  2.376978  0
Zn  Zn1  1  0.97724550  0.95652851  0.96527116  1  1.323839  0  0.667491  0.958377  0  2.380465  0
Zn  Zn2  1  0.98096651  0.07699992  0.96319612  1  1.311036  0  0.668187  0.954812  0  2.390605  0
Zn  Zn3  1  0.97770368  0.96091037  0.08428841  1  1.307694  0  0.668813  0.955609  0  2.384927  0
Zn  Zn4  1  0.41763859  0.51547807  0.52265923  1  1.290728  0  0.667866  0.939781  0  2.438498  0
Zn  Zn5  1  0.52555684  0.52407260  0.53196889  1  1.32079  0  0.680574  0.974912  0  2.362431  0
Zn  Zn6  1  0.53725815  0.51952170  0.40517740  1  1.322427  0  0.68253  0.991715  0  2.288931  0
Zn  Zn7  1  0.53408450  0.39827356  0.53089677  1  1.315265  0  0.680834  0.983237  0  2.312296  0
H  H8  1  0.16747206  0.88158733  0.81201955  1  0.038318  0  0.109441  0.097707  0  0.938071  0
H  H9  1  0.08367780  0.80121328  0.89322212  1  0.024899  0  0.092553  0.089619  0  0.979032  0
H  H10  1  0.07300913  0.86469747  0.82826857  1  0.028329  0  0.095449  0.095273  0  0.970913  0
H  H11  1  0.17513590  0.81166585  0.76157052  1  0.03517  0  0.09444  0.096073  0  0.985966  0
H  H12  1  0.12618078  0.76569741  0.80452352  1  0.018776  0  0.094987  0.094835  0  0.973691  0
H  H13  1  0.18065102  0.70662722  0.88111853  1  0.076044  0  0.116017  0.067393  0  0.966751  0
H  H14  1  0.27725897  0.72134180  0.86152101  1  0.00553  0  0.095398  0.095149  0  0.972299  0
H  H15  1  0.26578913  0.78521081  0.79612591  1  0.042001  0  0.095817  0.099612  0  0.989638  0
H  H16  1  0.22412351  0.82040732  0.88560883  1  0.036987  0  0.097351  0.099403  0  0.976299  0
H  H17  1  0.17655218  0.77329688  0.92851181  1  0.020305  0  0.092123  0.084735  0  0.972082  0
H  H18  1  0.27377761  0.51221653  0.81662519  1  0.094204  0  0.119187  0.122523  0  0.9713  0
H  H19  1  0.34348226  0.48830599  0.71759516  1  0.082885  0  0.112778  0.117074  0  0.984532  0
H  H20  1  0.37222983  0.66307355  0.63237879  1  0.126014  0  0.120739  0.130737  0  0.972946  0
H  H21  1  0.17794165  0.10854779  0.89780207  1  0.053363  0  0.108971  0.097251  0  0.937401  0
H  H22  1  0.09179050  0.19065004  0.82008673  1  0.026146  0  0.093026  0.090699  0  0.979019  0
H  H23  1  0.08556513  0.20183637  0.88354890  1  0.036446  0  0.095447  0.094959  0  0.971346  0
H  H24  1  0.18935769  0.21932603  0.82766598  1  0.036014  0  0.093853  0.09509  0  0.986242  0
H  H25  1  0.13789375  0.26957685  0.78462079  1  0.0212  0  0.094585  0.094269  0  0.972846  0
H  H26  1  0.18598610  0.19863422  0.72483346  1  0.074701  0  0.115883  0.066382  0  0.968757  0
H  H27  1  0.28401069  0.11076485  0.73492557  1  0.027863  0  0.095881  0.096803  0  0.970785  0
H  H28  1  0.27590492  0.12439822  0.79842418  1  0.042022  0  0.095719  0.100056  0  0.986276  0
H  H29  1  0.23148731  0.04266824  0.83392732  1  0.074101  0  0.097191  0.099538  0  0.976979  0
H  H30  1  0.18257021  0.09205022  0.78852322  1  0.000877  0  0.092199  0.085061  0  0.972839  0
H  H31  1  0.27388983  0.35975439  0.52708147  1  0.105595  0  0.119341  0.122892  0  0.971407  0
H  H32  1  0.34667631  0.41428744  0.49768345  1  0.105394  0  0.112326  0.116604  0  0.986068  0
H  H33  1  0.38645402  0.30337086  0.66670189  1  0.119653  0  0.12037  0.129794  0  0.974235  0
H  H34  1  0.16764924  0.79325359  0.11891400  1  0.034606  0  0.108832  0.097158  0  0.93793  0
H  H35  1  0.08535393  0.86979066  0.20618475  1  0.028212  0  0.093324  0.090428  0  0.978208  0
H  H36  1  0.07571909  0.80527539  0.21228870  1  0.017263  0  0.095033  0.094592  0  0.969886  0
H  H37  1  0.17862522  0.73834681  0.23053023  1  0.018222  0  0.094209  0.095468  0  0.983583  0
H  H38  1  0.12918206  0.77989065  0.28341740  1  0.026476  0  0.095492  0.09575  0  0.97269  0
H  H39  1  0.18116635  0.85895866  0.21747965  1  0.078221  0  0.115832  0.066201  0  0.968475  0
H  H40  1  0.27966789  0.83894147  0.13000276  1  0.020577  0  0.096338  0.09699  0  0.970006  0
H  H41  1  0.26772478  0.77393201  0.13893469  1  0.038829  0  0.095507  0.099105  0  0.988356  0
H  H42  1  0.22607445  0.86478709  0.05851227  1  0.077733  0  0.096819  0.099256  0  0.97751  0
H  H43  1  0.17951514  0.90717688  0.11041573  1  0.015175  0  0.091754  0.08411  0  0.972753  0
H  H44  1  0.27081435  0.80432915  0.38212079  1  0.09885  0  0.119636  0.122908  0  0.972821  0
H  H45  1  0.34706240  0.71015114  0.43061275  1  0.082892  0  0.113057  0.11657  0  0.982987  0
H  H46  1  0.38481317  0.62001401  0.31003627  1  0.122906  0  0.120001  0.128676  0  0.972969  0
H  H47  1  0.91559752  0.10873207  0.80331503  1  0.053489  0  0.109379  0.09737  0  0.936934  0
H  H48  1  0.83425167  0.19582523  0.87997455  1  0.041793  0  0.09279  0.089852  0  0.97574  0
H  H49  1  0.90127077  0.20288737  0.81541231  1  0.035043  0  0.095222  0.094811  0  0.970941  0
H  H50  1  0.84704171  0.21916893  0.74910533  1  0.039708  0  0.094382  0.096044  0  0.983013  0
H  H51  1  0.80189943  0.27234502  0.79043879  1  0.050206  0  0.094962  0.095188  0  0.973138  0
H  H52  1  0.73865162  0.20464833  0.86965954  1  0.067411  0  0.115751  0.065174  0  0.970432  0
H  H53  1  0.74878107  0.11611720  0.84950857  1  0.043935  0  0.095845  0.096302  0  0.969567  0
H  H54  1  0.81570085  0.12618900  0.78450509  1  0.047001  0  0.09575  0.0992  0  0.988042  0
H  H55  1  0.84803551  0.04636687  0.87512224  1  0.028346  0  0.097155  0.100204  0  0.977653  0
H  H56  1  0.80021766  0.09837468  0.91733442  1  0.024816  0  0.091647  0.084079  0  0.973378  0
H  H57  1  0.54252770  0.37388014  0.81272656  1  0.118216  0  0.119395  0.122943  0  0.971229  0
H  H58  1  0.51314279  0.42499140  0.71744468  1  0.098541  0  0.110432  0.112747  0  0.990432  0
H  H59  1  0.68185730  0.30132512  0.62908898  1  0.152067  0  0.119794  0.127977  0  0.97555  0
H  H60  1  0.81474658  0.89156076  0.11999714  1  0.063798  0  0.109616  0.09787  0  0.937068  0
H  H61  1  0.89192934  0.81924352  0.20621128  1  0.028339  0  0.092608  0.088927  0  0.977163  0
H  H62  1  0.82501642  0.88462713  0.21223665  1  0.02461  0  0.095105  0.094567  0  0.970974  0
H  H63  1  0.75892903  0.82846510  0.23128465  1  0.063407  0  0.094383  0.095913  0  0.983831  0
H  H64  1  0.79994811  0.78797198  0.28423203  1  0.025709  0  0.095017  0.095299  0  0.973596  0
H  H65  1  0.88222653  0.72135692  0.22055093  1  0.06661  0  0.115476  0.065602  0  0.967908  0
H  H66  1  0.86713037  0.72560604  0.13221330  1  0.015543  0  0.095614  0.096197  0  0.970649  0
H  H67  1  0.79965937  0.79134002  0.13974510  1  0.027561  0  0.095544  0.099614  0  0.989136  0
H  H68  1  0.89271003  0.82225977  0.05988253  1  0.061709  0  0.096766  0.098944  0  0.977983  0
H  H69  1  0.93389215  0.78005857  0.11257562  1  0.022274  0  0.090891  0.082517  0  0.973991  0
H  H70  1  0.81471135  0.53432602  0.39274634  1  0.09329  0  0.119516  0.122456  0  0.972601  0
H  H71  1  0.71544582  0.50897475  0.44204201  1  0.091395  0  0.111677  0.113433  0  0.983446  0
H  H72  1  0.63384658  0.67102857  0.31295149  1  0.145519  0  0.120345  0.128573  0  0.972749  0
H  H73  1  0.91180927  0.15142000  0.11881310  1  0.036869  0  0.109967  0.097757  0  0.934431  0
H  H74  1  0.82464166  0.07460905  0.19926282  1  0.030321  0  0.092222  0.087971  0  0.974176  0
H  H75  1  0.89140590  0.06316162  0.21074963  1  0.074844  0  0.09543  0.096699  0  0.972772  0
H  H76  1  0.84154181  0.16467903  0.22835984  1  0.031552  0  0.094353  0.095894  0  0.984346  0
H  H77  1  0.79224435  0.11921654  0.27821733  1  0.040516  0  0.09497  0.09519  0  0.972273  0
H  H78  1  0.73156169  0.17191197  0.20736414  1  0.066942  0  0.115312  0.06506  0  0.968927  0
H  H79  1  0.74917477  0.26466077  0.11962180  1  0.031176  0  0.095832  0.096921  0  0.970187  0
H  H80  1  0.81594028  0.25144873  0.13324514  1  0.054319  0  0.095204  0.099011  0  0.989737  0
H  H81  1  0.84810375  0.20843960  0.05182641  1  0.059867  0  0.096448  0.099704  0  0.980036  0
H  H82  1  0.79709361  0.16513729  0.10092915  1  0.015863  0  0.09086  0.083384  0  0.973185  0
H  H83  1  0.53630907  0.26546772  0.37102899  1  0.106637  0  0.118571  0.121287  0  0.972589  0
H  H84  1  0.51367312  0.33537107  0.42438484  1  0.093331  0  0.108423  0.108567  0  0.991442  0
H  H85  1  0.69201627  0.36386038  0.30866586  1  0.111739  0  0.120019  0.127814  0  0.972597  0
C  C86  1  0.10374073  0.89284109  0.89747895  1  1.533085  0  0.230639  0.626778  0  4.101636  0
C  C87  1  0.14516091  0.85243206  0.85663676  1  0.030401  0  -0.086174  -0.114569  0  3.869574  0
C  C88  1  0.10891492  0.82703767  0.84810592  1  0.010099  0  -0.163321  -0.15554  0  3.951149  0
C  C89  1  0.15270634  0.78544740  0.80809025  1  -0.002951  0  -0.162895  -0.205544  0  3.928593  0
C  C90  1  0.20349817  0.73386229  0.83540027  1  0.314485  0  0.016901  0.130725  0  3.837231  0
C  C91  1  0.24140378  0.75929403  0.84165302  1  0.010878  0  -0.161723  -0.203298  0  3.929949  0
C  C92  1  0.19783246  0.80059923  0.88193986  1  -0.004297  0  -0.157381  -0.151026  0  3.91998  0
C  C93  1  0.24020548  0.63049018  0.82626831  1  1.376462  0  0.245174  0.429783  0  4.126807  0
C  C94  1  0.28263680  0.60186011  0.77696923  1  -0.04868  0  -0.00477  -0.046105  0  4.024194  0
C  C95  1  0.29492299  0.54471334  0.77629754  1  -0.005469  0  -0.066649  -0.075055  0  3.960677  0
C  C96  1  0.33395301  0.53155078  0.72155898  1  0.004671  0  -0.070612  -0.085317  0  3.937861  0
C  C97  1  0.36166007  0.57367792  0.67031059  1  -0.040966  0  -0.00687  -0.024938  0  3.951509  0
C  C98  1  0.35055785  0.63063566  0.67215532  1  -0.010211  0  -0.059817  -0.085798  0  3.900492  0
C  C99  1  0.30938796  0.64420391  0.72585021  1  -0.015797  0  -0.006918  -0.054741  0  4.021198  0
C  C100  1  0.28362195  0.70183447  0.74073055  1  1.357045  0  0.251114  0.441841  0  4.09589  0
C  C101  1  0.40189904  0.55734328  0.61290559  1  1.564033  0  0.227507  0.603397  0  4.148751  0
C  C102  1  0.11101060  0.07807753  0.90690528  1  1.530171  0  0.23088  0.62599  0  4.104514  0
C  C103  1  0.15444954  0.11604971  0.86820411  1  0.037448  0  -0.085206  -0.113538  0  3.865287  0
C  C104  1  0.11944962  0.18442318  0.84493390  1  -0.02472  0  -0.164281  -0.156478  0  3.948223  0
C  C105  1  0.16428751  0.22123237  0.80271680  1  -0.003299  0  -0.162084  -0.203759  0  3.926507  0
C  C106  1  0.21183730  0.19552046  0.74979685  1  0.337429  0  0.016154  0.131359  0  3.836213  0
C  C107  1  0.24969775  0.12827733  0.77346274  1  0.000756  0  -0.161725  -0.205336  0  3.925998  0
C  C108  1  0.20545471  0.09082372  0.81523862  1  -0.048104  0  -0.157134  -0.151748  0  3.920912  0
C  C109  1  0.24457708  0.26896175  0.64594342  1  1.351309  0  0.245994  0.431369  0  4.122043  0
C  C110  1  0.28825509  0.30439386  0.61419245  1  -0.041768  0  -0.00388  -0.042415  0  4.0193  0
C  C111  1  0.29822804  0.34814356  0.55707978  1  -0.01474  0  -0.067687  -0.077214  0  3.961156  0
C  C112  1  0.33903576  0.37769358  0.54080515  1  0.019742  0  -0.071043  -0.084302  0  3.939052  0
C  C113  1  0.37062994  0.36161704  0.57980745  1  -0.044871  0  -0.007494  -0.028213  0  3.951871  0
C  C114  1  0.36189899  0.31563194  0.63664030  1  0.00175  0  -0.060433  -0.084855  0  3.90126  0
C  C115  1  0.31903214  0.28868707  0.65340272  1  -0.038151  0  -0.007131  -0.056505  0  4.01856  0
C  C116  1  0.29488916  0.24329777  0.71201689  1  1.358392  0  0.25076  0.441147  0  4.0988  0
C  C117  1  0.41080421  0.39744291  0.56099814  1  1.555494  0  0.226093  0.601448  0  4.159767  0
C  C118  1  0.10435693  0.88109326  0.09013494  1  1.575237  0  0.23136  0.62662  0  4.104291  0
C  C119  1  0.14646928  0.83670409  0.12893263  1  0.017535  0  -0.086064  -0.115892  0  3.866134  0
C  C120  1  0.11116718  0.82545974  0.19748641  1  0.015612  0  -0.163137  -0.155432  0  3.943814  0
C  C121  1  0.15556947  0.78458458  0.23479864  1  -0.007454  0  -0.162489  -0.205046  0  3.926907  0
C  C122  1  0.20536647  0.81298207  0.21235000  1  0.330062  0  0.016615  0.132149  0  3.839968  0
C  C123  1  0.24358561  0.81941797  0.14495766  1  -0.013415  0  -0.162858  -0.205036  0  3.931874  0
C  C124  1  0.20005403  0.86071247  0.10693523  1  -0.032745  0  -0.15733  -0.150884  0  3.922189  0
C  C125  1  0.23900245  0.80769235  0.28919415  1  1.356344  0  0.245304  0.431047  0  4.127039  0
C  C126  1  0.28411505  0.76173292  0.32230967  1  -0.040723  0  -0.004802  -0.044693  0  4.027804  0
C  C127  1  0.29543034  0.76401209  0.36724514  1  -0.01363  0  -0.067444  -0.076218  0  3.964711  0
C  C128  1  0.33814043  0.71203759  0.39339749  1  0.036149  0  -0.069627  -0.083011  0  3.939384  0
C  C129  1  0.37029558  0.66087865  0.37275235  1  -0.024232  0  -0.005484  -0.023229  0  3.94937  0
C  C130  1  0.35995949  0.65980643  0.32580148  1  -0.038067  0  -0.060725  -0.088459  0  3.904798  0
C  C131  1  0.31508417  0.71059033  0.30235362  1  0.003656  0  -0.007278  -0.057169  0  4.022337  0
C  C132  1  0.28911259  0.72198923  0.25675958  1  1.36144  0  0.250992  0.443556  0  4.097372  0
C  C133  1  0.41255306  0.60592999  0.40548195  1  1.542993  0  0.232608  0.612298  0  4.151083  0
C  C134  1  0.92146154  0.08057256  0.89032569  1  1.537859  0  0.231605  0.625181  0  4.106875  0
C  C135  1  0.88383269  0.11835726  0.84687018  1  -0.012892  0  -0.08464  -0.113268  0  3.868154  0
C  C136  1  0.86110686  0.18719179  0.83570013  1  -0.017545  0  -0.163211  -0.154701  0  3.946656  0
C  C137  1  0.81996726  0.22349337  0.79520124  1  -0.028421  0  -0.162337  -0.206267  0  3.92821  0
C  C138  1  0.76516992  0.19974425  0.82371059  1  0.330095  0  0.016642  0.133141  0  3.838333  0
C  C139  1  0.78869230  0.13208020  0.82992847  1  -0.040603  0  -0.162135  -0.203202  0  3.927702  0
C  C140  1  0.82925223  0.09499430  0.87097538  1  0.008365  0  -0.159093  -0.154142  0  3.924345  0
C  C141  1  0.66101199  0.27732598  0.81801377  1  1.364442  0  0.245462  0.43029  0  4.128126  0
C  C142  1  0.62951821  0.31220757  0.77121699  1  -0.051542  0  -0.004518  -0.042264  0  4.023495  0
C  C143  1  0.57248581  0.35886886  0.77256255  1  -0.092216  0  -0.068255  -0.078488  0  3.964285  0
C  C144  1  0.55625239  0.38656945  0.71992216  1  0.04342  0  -0.070818  -0.083331  0  3.939752  0
C  C145  1  0.59497693  0.36578030  0.66893712  1  -0.026839  0  -0.005446  -0.022631  0  3.944826  0
C  C146  1  0.65188170  0.31726153  0.66870031  1  -0.014873  0  -0.060384  -0.088578  0  3.905262  0
C  C147  1  0.66891727  0.29226063  0.72016773  1  -0.01313  0  -0.007836  -0.05707  0  4.018021  0
C  C148  1  0.72791631  0.24493197  0.73246017  1  1.377975  0  0.250343  0.442085  0  4.097817  0
C  C149  1  0.57433782  0.39893244  0.61420216  1  1.535991  0  0.23152  0.610952  0  4.157231  0
C  C150  1  0.90203396  0.90173401  0.09001913  1  1.559851  0  0.232023  0.62696  0  4.101134  0
C  C151  1  0.85936137  0.86289796  0.12942958  1  -0.006921  0  -0.085073  -0.114331  0  3.866658  0
C  C152  1  0.84685913  0.84394089  0.19778686  1  -0.023178  0  -0.163292  -0.153386  0  3.945615  0
C  C153  1  0.80586259  0.80307533  0.23566322  1  -0.018449  0  -0.162202  -0.206194  0  3.925996  0
C  C154  1  0.83609119  0.74711315  0.21423942  1  0.323659  0  0.016665  0.133462  0  3.832742  0
C  C155  1  0.84544197  0.76636935  0.14659735  1  0.048678  0  -0.161746  -0.204297  0  3.924812  0
C  C156  1  0.88682784  0.80679495  0.10838717  1  -0.058986  0  -0.158074  -0.1506  0  3.921913  0
C  C157  1  0.82596318  0.64738566  0.29416483  1  1.345475  0  0.2452  0.432225  0  4.124603  0
C  C158  1  0.77662936  0.61820171  0.32852548  1  -0.01947  0  -0.005416  -0.046356  0  4.023725  0
C  C159  1  0.77509126  0.56391318  0.37620537  1  0.08693  0  -0.067434  -0.074437  0  3.962795  0
C  C160  1  0.72014943  0.54984755  0.40294046  1  -0.032598  0  -0.071633  -0.089437  0  3.944811  0
C  C161  1  0.66996883  0.58775002  0.38021635  1  -0.084668  0  -0.004005  -0.018963  0  3.949246  0
C  C162  1  0.67276930  0.64162206  0.33056799  1  -0.009941  0  -0.061166  -0.09117  0  3.906702  0
C  C163  1  0.72630571  0.65668223  0.30659170  1  -0.078057  0  -0.006584  -0.053452  0  4.017732  0
C  C164  1  0.74152917  0.71269296  0.25847821  1  1.383679  0  0.250935  0.441504  0  4.096613  0
C  C165  1  0.61262860  0.56957370  0.41226896  1  1.58119  0  0.23494  0.617214  0  4.152451  0
C  C166  1  0.91799288  0.08823609  0.08711395  1  1.550047  0  0.232226  0.625108  0  4.107477  0
C  C167  1  0.87923278  0.13149722  0.12521542  1  0.029628  0  -0.084599  -0.113652  0  3.869961  0
C  C168  1  0.85306430  0.09864162  0.19332875  1  -0.061003  0  -0.163061  -0.155479  0  3.946171  0
C  C169  1  0.81287675  0.14349928  0.23003758  1  -0.002812  0  -0.162092  -0.205311  0  3.927082  0
C  C170  1  0.76059731  0.19373825  0.20413935  1  0.334918  0  0.016554  0.133708  0  3.837975  0
C  C171  1  0.78747250  0.22875675  0.13708005  1  -0.030955  0  -0.162837  -0.206236  0  3.930973  0
C  C172  1  0.82719546  0.18443898  0.09983604  1  -0.03338  0  -0.159339  -0.152404  0  3.931778  0
C  C173  1  0.65599740  0.23132022  0.27835935  1  1.35522  0  0.245554  0.43297  0  4.123661  0
C  C174  1  0.62764607  0.27418547  0.31350700  1  -0.037212  0  -0.007883  -0.052997  0  4.031465  0
C  C175  1  0.56980156  0.28668734  0.35827183  1  -0.024692  0  -0.067515  -0.072613  0  3.965419  0
C  C176  1  0.55735842  0.32602632  0.38713609  1  0.030226  0  -0.07297  -0.091166  0  3.947747  0
C  C177  1  0.60064089  0.35390062  0.36927131  1  -0.051638  0  -0.003156  -0.015739  0  3.945113  0
C  C178  1  0.65826999  0.34249203  0.32247204  1  0.056966  0  -0.06251  -0.094398  0  3.908456  0
C  C179  1  0.67128908  0.30093485  0.29636305  1  -0.101778  0  -0.006852  -0.050644  0  4.018269  0
C  C180  1  0.72974545  0.27448993  0.25060248  1  1.366721  0  0.250815  0.441292  0  4.097366  0
C  C181  1  0.58397988  0.39397938  0.40406198  1  1.567297  0  0.234578  0.619392  0  4.151359  0
N  N182  1  0.24301973  0.69002832  0.80143775  1  -1.146643  0  -0.24882  -0.210946  0  3.555664  0
N  N183  1  0.25107785  0.23343896  0.70393435  1  -1.164372  0  -0.249281  -0.212782  0  3.553923  0
N  N184  1  0.24442386  0.78098150  0.25095872  1  -1.183464  0  -0.249948  -0.212967  0  3.559004  0
N  N185  1  0.71938804  0.23807094  0.79187666  1  -1.190387  0  -0.249925  -0.21318  0  3.559624  0
N  N186  1  0.80191712  0.70354363  0.25314180  1  -1.165284  0  -0.250403  -0.214897  0  3.551016  0
N  N187  1  0.71684031  0.23378797  0.24181636  1  -1.166869  0  -0.250812  -0.214247  0  3.557141  0
O  O188  1  0.00856090  0.98765597  0.99511719  1  -1.227666  0  -0.575564  -1.03077  0  2.558222  0
O  O189  1  0.04653581  0.89586785  0.92505566  1  -1.185108  0  -0.31402  -0.546586  0  2.328185  0
O  O190  1  0.13033519  0.92017037  0.90151224  1  -1.177045  0  -0.324873  -0.56375  0  2.316758  0
O  O191  1  0.20824870  0.60858567  0.87794575  1  -1.104732  0  -0.276938  -0.425145  0  2.052674  0
O  O192  1  0.29396171  0.75012954  0.70772452  1  -1.101914  0  -0.273574  -0.426182  0  2.057436  0
O  O193  1  0.44846378  0.57668533  0.57796471  1  -1.167366  0  -0.314384  -0.543744  0  2.269452  0
O  O194  1  0.38618542  0.52444857  0.60326112  1  -1.158275  0  -0.314075  -0.542698  0  2.309261  0
O  O195  1  0.05356040  0.10553791  0.91115064  1  -1.173237  0  -0.313212  -0.546135  0  2.346994  0
O  O196  1  0.13611957  0.02102036  0.93136892  1  -1.185942  0  -0.324165  -0.562209  0  2.313451  0
O  O197  1  0.20910764  0.26981121  0.62731663  1  -1.094101  0  -0.277187  -0.425758  0  2.052297  0
O  O198  1  0.30869391  0.21967597  0.75836384  1  -1.099135  0  -0.273749  -0.425228  0  2.056577  0
O  O199  1  0.45818577  0.37139361  0.57855050  1  -1.160125  0  -0.311535  -0.544397  0  2.272328  0
O  O200  1  0.39304480  0.45330341  0.52823085  1  -1.166627  0  -0.318333  -0.545534  0  2.318763  0
O  O201  1  0.04715353  0.90685183  0.11712721  1  -1.183859  0  -0.313368  -0.545172  0  2.337175  0
O  O202  1  0.13065301  0.88982014  0.03276556  1  -1.18983  0  -0.323748  -0.563143  0  2.32483  0
O  O203  1  0.20343430  0.85852967  0.29330486  1  -1.103107  0  -0.277824  -0.426974  0  2.053699  0
O  O204  1  0.30227936  0.68775487  0.23014692  1  -1.095653  0  -0.274705  -0.427234  0  2.0553  0
O  O205  1  0.46475735  0.57546497  0.37494734  1  -1.168121  0  -0.310006  -0.542582  0  2.269579  0
O  O206  1  0.39119649  0.59428035  0.46339441  1  -1.147094  0  -0.317184  -0.547611  0  2.331852  0
O  O207  1  0.92941669  0.10891666  0.91244151  1  -1.179069  0  -0.312847  -0.543841  0  2.336639  0
O  O208  1  0.94144967  0.02275026  0.90176582  1  -1.161095  0  -0.323079  -0.561481  0  2.332672  0
O  O209  1  0.64198560  0.28103642  0.86894317  1  -1.098683  0  -0.277676  -0.426361  0  2.054102  0
O  O210  1  0.77488396  0.21794777  0.69851051  1  -1.104844  0  -0.273814  -0.4257  0  2.054085  0
O  O211  1  0.58174638  0.36741758  0.58495301  1  -1.152426  0  -0.312653  -0.538763  0  2.276785  0
O  O212  1  0.55010264  0.45676140  0.60218023  1  -1.156577  0  -0.31347  -0.552103  0  2.342066  0
O  O213  1  0.92256287  0.91334399  0.11703146  1  -1.175223  0  -0.313309  -0.546303  0  2.343585  0
O  O214  1  0.91423535  0.91916304  0.03244268  1  -1.188107  0  -0.323145  -0.561633  0  2.324659  0
O  O215  1  0.87714406  0.62834500  0.29946375  1  -1.101574  0  -0.278109  -0.427641  0  2.053757  0
O  O216  1  0.70880542  0.75812878  0.22986198  1  -1.100541  0  -0.274224  -0.426743  0  2.057824  0
O  O217  1  0.58938924  0.56855903  0.38009236  1  -1.163433  0  -0.310504  -0.543613  0  2.287557  0
O  O218  1  0.59289458  0.55609978  0.47031120  1  -1.171854  0  -0.313364  -0.543042  0  2.325477  0
O  O219  1  0.93056364  0.03100235  0.11541606  1  -1.182504  0  -0.313178  -0.545358  0  2.342371  0
O  O220  1  0.93484883  0.11327396  0.02934072  1  -1.174773  0  -0.32048  -0.556974  0  2.341509  0
O  O221  1  0.63310020  0.19922277  0.27998184  1  -1.09303  0  -0.278925  -0.428336  0  2.050906  0
O  O222  1  0.77939706  0.28440164  0.22604906  1  -1.10122  0  -0.274417  -0.427055  0  2.058395  0
O  O223  1  0.58369718  0.44894065  0.37403608  1  -1.16425  0  -0.311656  -0.542191  0  2.279126  0
O  O224  1  0.57080509  0.36811824  0.46156615  1  -1.161772  0  -0.312371  -0.546836  0  2.323881  0
O  O225  1  0.50939063  0.48737505  0.49439988  1  -1.213395  0  -0.579214  -1.04362  0  2.552943  0
