# generated using pymatgen
data_Co5H94C126(N5O17)2
_symmetry_space_group_name_H-M   'P 1'
_cell_length_a   15.33646357
_cell_length_b   15.55328613
_cell_length_c   16.63300415
_cell_angle_alpha   104.62509668
_cell_angle_beta   106.44647894
_cell_angle_gamma   114.61872198
_symmetry_Int_Tables_number   1
_chemical_formula_structural   Co5H94C126(N5O17)2
_chemical_formula_sum   'Co5 H94 C126 N10 O34'
_cell_volume   3131.55627795
_cell_formula_units_Z   1
loop_
 _symmetry_equiv_pos_site_id
 _symmetry_equiv_pos_as_xyz
  1  'x, y, z'
loop_
 _atom_site_type_symbol
 _atom_site_label
 _atom_site_symmetry_multiplicity
 _atom_site_fract_x
 _atom_site_fract_y
 _atom_site_fract_z
 _atom_site_occupancy
 _atom_site_pbe_bader_charge
 _atom_site_pbe_bader_spin_density
 _atom_site_pbe_cm5_charge
 _atom_site_pbe_ddec_charge
 _atom_site_pbe_ddec_spin_density
 _atom_site_pbe_ddec_sum_bond_order
 _atom_site_pbe_magmom
Co  Co0  1  0.37936775  0.38751640  0.34087836  1  1.282947  2.596841  0.679657  0.873083  2.832664  2.481043  2.571
Co  Co1  1  0.62061900  0.61247903  0.65912815  1  1.283123  2.596799  0.679726  0.873089  2.832612  2.480982  2.571
Co  Co2  1  0.96550578  0.95882443  0.33939752  1  1.285808  2.598627  0.680939  0.873804  2.832432  2.478337  2.574
Co  Co3  1  0.03449136  0.04117024  0.66058984  1  1.285834  2.598655  0.680877  0.873609  2.832455  2.478211  2.574
Co  Co4  1  0.49998967  0.49998279  0.99999622  1  1.238671  2.590003  0.692313  0.803932  2.832676  2.580436  2.568
H  H5  1  0.86538226  0.74017349  0.19505527  1  0.119434  0.00124  0.114562  0.086275  0.000131  1.034186  0.001
H  H6  1  0.13462207  0.25982822  0.80493562  1  0.119619  0.00124  0.114554  0.086264  0.000132  1.034246  0.001
H  H7  1  0.23573647  0.17941578  0.32854047  1  0.096224  0.001493  0.119026  0.090461  0.000469  1.025907  0.001
H  H8  1  0.76427068  0.82059606  0.67147641  1  0.095705  0.001493  0.119037  0.09054  0.000469  1.025972  0.001
H  H9  1  0.09596823  0.15427440  0.32934484  1  0.094272  0.001626  0.117554  0.085682  0.000558  1.031164  0.001
H  H10  1  0.90404341  0.84574215  0.67065509  1  0.094605  0.001627  0.117596  0.085799  0.000558  1.031083  0.001
H  H11  1  0.79832797  0.02032758  0.32534319  1  0.10193  0.001625  0.121098  0.09396  0.000399  0.985768  0.001
H  H12  1  0.20168024  0.97966865  0.67465702  1  0.101818  0.001625  0.121099  0.093985  0.000399  0.985837  0.001
H  H13  1  0.30269354  0.35341778  0.99815181  1  0.116652  0.002448  0.128169  0.103889  0.001009  0.98443  0.001
H  H14  1  0.69729200  0.64657298  0.00183944  1  0.116785  0.002447  0.128189  0.103875  0.001008  0.984531  0.001
H  H15  1  0.21589726  0.19459587  0.00096001  1  0.13147  0.000881  0.114309  0.12575  0.00048  0.995553  0.0
H  H16  1  0.78411824  0.80543066  0.99905028  1  0.13199  0.000881  0.114367  0.125882  0.00048  0.995679  0.0
H  H17  1  0.53356243  0.31398173  0.33289760  1  0.088503  0.001502  0.117168  0.086364  0.000312  1.010709  0.001
H  H18  1  0.46644120  0.68601606  0.66710540  1  0.088522  0.001502  0.117169  0.086291  0.000312  1.010812  0.001
H  H19  1  0.45418903  0.59774919  0.48036827  1  0.153317  0.001255  0.115771  0.090611  5.4e-05  1.059623  0.001
H  H20  1  0.54580674  0.40224549  0.51961694  1  0.15333  0.001256  0.115842  0.090742  5.5e-05  1.059464  0.001
H  H21  1  0.26270352  0.21489116  0.72342123  1  0.111427  0.000704  0.111902  0.116606  0.000514  1.013933  0.0
H  H22  1  0.73730638  0.78508556  0.27656334  1  0.123307  0.0007  0.111789  0.116319  0.000514  1.01395  0.0
H  H23  1  0.26665386  0.65544724  0.01026111  1  0.075498  0.001183  0.111513  0.122345  0.000568  0.986216  0.0
H  H24  1  0.73336623  0.34456851  0.98974983  1  0.075894  0.001183  0.111495  0.122348  0.000568  0.986105  0.0
H  H25  1  0.42980040  0.65223916  0.01216900  1  0.118546  0.001933  0.129597  0.100442  0.000378  0.970256  0.001
H  H26  1  0.57019678  0.34775550  0.98782979  1  0.118267  0.001934  0.129598  0.100518  0.000379  0.970021  0.001
H  H27  1  0.32704489  0.46443667  0.19423954  1  0.110139  0.001307  0.115691  0.085768  0.000147  1.028267  0.001
H  H28  1  0.67294300  0.53555722  0.80574826  1  0.110316  0.001308  0.115706  0.085688  0.000148  1.028282  0.001
H  H29  1  0.13679577  0.34477887  0.99969622  1  0.09922  0.000965  0.106907  0.112477  0.000408  1.036473  0.0
H  H30  1  0.86320431  0.65522657  0.00030626  1  0.099084  0.000966  0.106952  0.112482  0.000408  1.0365  0.0
H  H31  1  0.84473554  0.57124123  0.18803819  1  0.109266  0.000609  0.102853  0.109151  0.000209  1.042181  0.0
H  H32  1  0.15527024  0.42875814  0.81195252  1  0.109266  0.000608  0.102866  0.10921  0.000208  1.042229  0.0
H  H33  1  0.54132811  0.15415339  0.32128890  1  0.04561  0.001025  0.103402  0.109423  0.000476  1.00317  0.0
H  H34  1  0.45866952  0.84584204  0.67871982  1  0.045537  0.001025  0.103441  0.109473  0.000476  1.003236  0.0
H  H35  1  0.33728803  0.62554680  0.18647512  1  0.059983  0.000692  0.100337  0.106277  0.000224  1.042376  0.0
H  H36  1  0.66271447  0.37446038  0.81351722  1  0.060111  0.000692  0.100391  0.106306  0.000224  1.042435  0.0
H  H37  1  0.03385102  0.72545432  0.48523501  1  0.082594  0.000629  0.098932  0.103947  0.000251  1.045177  0.0
H  H38  1  0.96617090  0.27455989  0.51476220  1  0.08281  0.000629  0.098936  0.103962  0.000251  1.045332  0.0
H  H39  1  0.23157749  0.23099006  0.46297836  1  0.09227  0.000421  0.103522  0.097746  0.000165  1.063749  0.0
H  H40  1  0.76841710  0.76903274  0.53701385  1  0.092049  0.000421  0.103529  0.097799  0.000165  1.063619  0.0
H  H41  1  0.22913840  0.01592246  0.31821809  1  0.13739  0.000634  0.114823  0.135326  0.000251  1.015044  0.0
H  H42  1  0.77086212  0.98409093  0.68180226  1  0.136932  0.000634  0.114809  0.135339  0.000251  1.015091  0.0
H  H43  1  0.04757378  0.88866888  0.47935085  1  0.162121  0.001458  0.115756  0.090628  0.000219  1.051387  0.001
H  H44  1  0.95244454  0.11134378  0.52063544  1  0.161922  0.001458  0.115796  0.09065  0.000219  1.051277  0.001
H  H45  1  0.10065384  0.31609081  0.33528634  1  0.135915  0.000644  0.114428  0.130954  0.000254  1.012314  0.0
H  H46  1  0.89933979  0.68392884  0.66471871  1  0.1361  0.000644  0.114457  0.131043  0.000254  1.012388  0.0
H  H47  1  0.47755080  0.76770436  0.48537386  1  0.091657  0.000627  0.101035  0.106744  0.000246  1.042098  0.0
H  H48  1  0.52246271  0.23229422  0.51461625  1  0.091494  0.000627  0.101051  0.106809  0.000246  1.042005  0.0
H  H49  1  0.76226590  0.94403269  0.89035540  1  0.617808  -0.000154  0.327338  0.364576  -0.000245  0.900046  0.0
H  H50  1  0.23772180  0.05599245  0.10963740  1  0.617548  -0.000154  0.32735  0.364483  -0.000245  0.900032  0.0
H  H51  1  0.78484226  0.17474496  0.32478777  1  0.051501  0.001032  0.101739  0.10389  0.000483  1.009445  0.0
H  H52  1  0.21515553  0.82524580  0.67520904  1  0.051539  0.001033  0.101743  0.103899  0.000483  1.009363  0.0
H  H53  1  0.44583746  0.50882955  0.71867807  1  0.131162  0.000737  0.109521  0.111529  0.000549  1.018859  0.0
H  H54  1  0.55414470  0.49116120  0.28131591  1  0.13065  0.000738  0.109477  0.111551  0.000549  1.018733  0.0
H  H55  1  0.55635523  0.07062276  0.42205299  1  0.06264  7.6e-05  0.101151  0.108537  4.4e-05  1.04036  0.0
H  H56  1  0.44364449  0.92938282  0.57796650  1  0.064478  7.6e-05  0.101139  0.108484  4.4e-05  1.040552  0.0
H  H57  1  0.87440797  0.02587953  0.84993391  1  0.132962  0.000503  0.105292  0.097971  0.000238  1.06158  0.0
H  H58  1  0.12558531  0.97412292  0.15008317  1  0.132635  0.000504  0.10531  0.09812  0.000239  1.061442  0.0
H  H59  1  0.24203301  0.71132103  0.23115066  1  0.095985  3.2e-05  0.10353  0.117482  3.2e-05  1.033417  0.0
H  H60  1  0.75797691  0.28868224  0.76884205  1  0.095947  3.2e-05  0.103579  0.117573  3.2e-05  1.033543  0.0
H  H61  1  0.09975020  0.62271894  0.43871096  1  0.051826  5.2e-05  0.102369  0.110808  4.5e-05  1.037551  0.0
H  H62  1  0.90025149  0.37727650  0.56129159  1  0.051809  5.2e-05  0.102381  0.11081  4.5e-05  1.037528  0.0
H  H63  1  0.08044802  0.55707560  0.89890836  1  0.068736  3.4e-05  0.106813  0.120332  2.6e-05  1.02936  0.0
H  H64  1  0.91955791  0.44293780  0.10110618  1  0.068774  3.4e-05  0.106837  0.120379  2.6e-05  1.029357  0.0
H  H65  1  0.77752188  0.27057824  0.23433066  1  0.072173  5.1e-05  0.107736  0.121572  2.6e-05  1.0224  0.0
H  H66  1  0.22247718  0.72942109  0.76568356  1  0.072158  5.1e-05  0.107774  0.121583  2.6e-05  1.02233  0.0
H  H67  1  0.02435136  0.18424186  0.14867529  1  0.1069  0.000469  0.110304  0.113038  0.000202  1.025306  0.0
H  H68  1  0.97565670  0.81574264  0.85133049  1  0.109987  0.000468  0.110324  0.113122  0.000202  1.025066  0.0
H  H69  1  0.05393678  0.46816583  0.22589769  1  0.032217  -3.2e-05  0.090192  0.089876  -2.1e-05  1.020431  0.0
H  H70  1  0.94606480  0.53183195  0.77410359  1  0.0323  -3.2e-05  0.090199  0.089909  -2.1e-05  1.020457  0.0
H  H71  1  0.10964729  0.38660914  0.22055676  1  0.089533  9.9e-05  0.107904  0.126614  -8e-06  1.002705  0.0
H  H72  1  0.89035608  0.61338942  0.77944637  1  0.089581  9.9e-05  0.107942  0.126671  -8e-06  1.002736  0.0
H  H73  1  0.97390464  0.33368889  0.14166004  1  0.110304  -1.5e-05  0.097284  0.106213  -1.1e-05  1.004966  0.0
H  H74  1  0.02609844  0.66631047  0.85833539  1  0.110367  -1.5e-05  0.097295  0.106256  -1.1e-05  1.004991  0.0
H  H75  1  0.70413264  0.05038711  0.44368526  1  0.052482  -2e-06  0.093014  0.089439  -1.3e-05  0.998568  0.0
H  H76  1  0.29587329  0.94962006  0.55631517  1  0.052564  -2e-06  0.093025  0.089501  -1.3e-05  0.998611  0.0
H  H77  1  0.74548630  0.00650567  0.52886900  1  0.089868  6e-06  0.110546  0.129311  -5.1e-05  0.988894  0.0
H  H78  1  0.25452420  0.99350618  0.47113673  1  0.08983  6e-06  0.110588  0.129314  -5.1e-05  0.988964  0.0
H  H79  1  0.67412743  0.07192592  0.54151728  1  0.05963  -9e-06  0.090984  0.087572  -6e-06  1.030635  0.0
H  H80  1  0.32587148  0.92807578  0.45848063  1  0.059658  -9e-06  0.090964  0.08752  -6e-06  1.030753  0.0
H  H81  1  0.24544128  0.60385116  0.47316789  1  0.047723  -3.4e-05  0.094809  0.093413  -3.9e-05  0.998882  0.0
H  H82  1  0.75454305  0.39614117  0.52682103  1  0.047112  -3.4e-05  0.094814  0.093444  -3.9e-05  0.998866  0.0
H  H83  1  0.27285714  0.54743252  0.55122671  1  0.078266  1.3e-05  0.109436  0.124207  -2.9e-05  0.984654  0.0
H  H84  1  0.72714804  0.45257074  0.44877019  1  0.078844  1.4e-05  0.10945  0.124226  -2.9e-05  0.984654  0.0
H  H85  1  0.19948678  0.61100610  0.56202473  1  0.048645  -3e-06  0.089477  0.083387  -1e-06  1.030634  0.0
H  H86  1  0.80052604  0.38900496  0.43798922  1  0.048604  -3e-06  0.089495  0.083448  -1e-06  1.030674  0.0
H  H87  1  0.12748326  0.70780540  0.11127630  1  0.037031  -1.5e-05  0.091401  0.089214  -3e-06  1.031282  0.0
H  H88  1  0.87251853  0.29219394  0.88873802  1  0.036734  -1.5e-05  0.091359  0.089209  -3e-06  1.031172  0.0
H  H89  1  0.05306199  0.76997711  0.12106005  1  0.088145  -1.7e-05  0.101904  0.110653  -5.4e-05  1.011456  0.0
H  H90  1  0.94694412  0.23002145  0.87895159  1  0.088031  -1.7e-05  0.101922  0.11066  -5.4e-05  1.011364  0.0
H  H91  1  0.09479828  0.72803605  0.20752388  1  0.05605  -3e-05  0.09477  0.095795  -3.8e-05  0.998175  0.0
H  H92  1  0.90519815  0.27196094  0.79248430  1  0.056132  -3e-05  0.094739  0.095719  -3.8e-05  0.998089  0.0
H  H93  1  0.65209676  0.27861449  0.12666733  1  0.064562  5.6e-05  0.099595  0.098235  2.8e-05  0.983759  0.0
H  H94  1  0.34790764  0.72138095  0.87333411  1  0.064319  5.6e-05  0.099633  0.098282  2.8e-05  0.983844  0.0
H  H95  1  0.59275135  0.35301910  0.15633043  1  0.128453  0.000237  0.114588  0.137609  0.00011  0.984428  0.0
H  H96  1  0.40725082  0.64698102  0.84367396  1  0.1283  0.000237  0.114585  0.137613  0.00011  0.984366  0.0
H  H97  1  0.63787314  0.30036515  0.23219141  1  0.029374  2.3e-05  0.094492  0.089002  1e-05  1.005754  0.0
H  H98  1  0.36212425  0.69962481  0.76781173  1  0.029565  2.3e-05  0.094553  0.089131  1e-05  1.005785  0.0
C  C99  1  0.04975652  0.08484272  0.82527581  1  1.546517  -0.005761  0.188381  0.532731  -0.007087  4.229376  -0.006
C  C100  1  0.95024421  0.91516368  0.17471527  1  1.545743  -0.005766  0.188671  0.532951  -0.007093  4.228773  -0.006
C  C101  1  0.90358645  0.73387236  0.25750474  1  0.451828  -0.005511  0.041788  0.091649  -0.005736  3.959797  -0.003
C  C102  1  0.09640646  0.26612075  0.74248417  1  0.451688  -0.005507  0.041754  0.091564  -0.005732  3.959655  -0.003
C  C103  1  0.30248269  0.17094311  0.32801870  1  0.459524  -0.008211  0.046297  0.093834  -0.008641  3.938191  -0.005
C  C104  1  0.69751946  0.82905702  0.67197967  1  0.460477  -0.008216  0.046275  0.093757  -0.008644  3.938311  -0.005
C  C105  1  0.04497774  0.10631862  0.91660960  1  0.051284  0.0045  -0.01727  -0.02407  0.002289  3.963313  0.003
C  C106  1  0.95501042  0.89367842  0.08336459  1  0.053005  0.0045  -0.017108  -0.02391  0.00229  3.963739  0.003
C  C107  1  0.02990831  0.16349242  0.33082803  1  0.478695  -0.007806  0.04987  0.102835  -0.008222  3.93415  -0.005
C  C108  1  0.97009436  0.83651632  0.66916592  1  0.478916  -0.007801  0.049734  0.102617  -0.008216  3.934484  -0.005
C  C109  1  0.13060358  0.19614098  0.08461260  1  -0.059437  0.004537  -0.018536  -0.033915  0.002296  3.974494  0.004
C  C110  1  0.86938903  0.80385522  0.91539621  1  -0.059123  0.004537  -0.018566  -0.034024  0.002296  3.974844  0.004
C  C111  1  0.86279550  0.08778523  0.32679176  1  0.471649  -0.007192  0.049183  0.102717  -0.007709  3.948717  -0.004
C  C112  1  0.13720829  0.91220788  0.67320115  1  0.471771  -0.007193  0.049198  0.10273  -0.007709  3.94891  -0.004
C  C113  1  0.29104693  0.41848370  0.00142770  1  0.487288  -0.00832  0.05418  0.099959  -0.008653  3.925117  -0.005
C  C114  1  0.70895398  0.58152425  0.99857042  1  0.487796  -0.008317  0.054221  0.099952  -0.00865  3.9253  -0.005
C  C115  1  0.13778633  0.16743927  0.00076960  1  -0.079478  -0.003087  -0.069179  -0.105114  -0.003519  3.908685  -0.002
C  C116  1  0.86220500  0.83256477  0.99922632  1  -0.080754  -0.003086  -0.069316  -0.105327  -0.003518  3.91002  -0.002
C  C117  1  0.18795880  0.49960080  0.00434110  1  -0.036572  -0.014841  0.007186  0.115744  -0.015496  4.010925  -0.01
C  C118  1  0.81204165  0.50041261  0.99565760  1  -0.036069  -0.014832  0.007226  0.115781  -0.015487  4.010753  -0.01
C  C119  1  0.46859821  0.24579338  0.33009570  1  0.500155  -0.007317  0.045433  0.096755  -0.007793  3.954831  -0.005
C  C120  1  0.53139622  0.75420128  0.66989578  1  0.500052  -0.007315  0.045509  0.096955  -0.007791  3.955022  -0.005
C  C121  1  0.93683366  0.09771243  0.00025039  1  0.008031  0.001516  -0.023075  -0.074345  0.000559  4.031262  0.001
C  C122  1  0.06316358  0.90227597  0.99975595  1  0.007933  0.001517  -0.023088  -0.074415  0.000559  4.03097  0.001
C  C123  1  0.43050520  0.60805272  0.41681228  1  0.428261  -0.004691  0.038281  0.089267  -0.005269  3.935765  -0.003
C  C124  1  0.56948661  0.39193961  0.58317676  1  0.427954  -0.004689  0.038244  0.089239  -0.005267  3.93577  -0.003
C  C125  1  0.28300516  0.25924903  0.68339464  1  -0.041568  -0.000239  -0.067928  -0.087562  -0.000876  3.908327  0.0
C  C126  1  0.71698819  0.74072845  0.31659246  1  -0.053324  -0.000232  -0.06796  -0.087344  -0.000872  3.908411  0.0
C  C127  1  0.27148852  0.58676986  0.00707361  1  0.001967  0.006096  -0.085655  -0.189487  0.002744  3.966043  0.005
C  C128  1  0.72851553  0.41323886  0.99292730  1  0.001916  0.006094  -0.085572  -0.189451  0.002742  3.965871  0.005
C  C129  1  0.40647795  0.71084967  0.33549653  1  -0.019079  -0.006984  0.012275  0.130506  -0.00734  3.974194  -0.004
C  C130  1  0.59352756  0.28915048  0.66449310  1  -0.019701  -0.006985  0.012366  0.130646  -0.007342  3.973947  -0.004
C  C131  1  0.36181240  0.58583406  0.00821451  1  0.453103  -0.010928  0.054866  0.101578  -0.012159  3.957569  -0.007
C  C132  1  0.63818688  0.41417467  0.99178217  1  0.45295  -0.010923  0.05466  0.101171  -0.012152  3.957448  -0.007
C  C133  1  0.35757588  0.53257513  0.25704863  1  0.458077  -0.004507  0.047228  0.106715  -0.00485  3.944301  -0.003
C  C134  1  0.64241142  0.46741642  0.74293545  1  0.458111  -0.004508  0.047096  0.106792  -0.004851  3.944414  -0.003
C  C135  1  0.38220566  0.43642020  0.53256720  1  1.52239  0.008347  0.217455  0.584851  0.00548  4.177016  0.009
C  C136  1  0.61780465  0.56359241  0.46745850  1  1.522436  0.008354  0.217461  0.584757  0.005486  4.177261  0.009
C  C137  1  0.19910687  0.41403756  0.00166181  1  -0.023415  0.006706  -0.081082  -0.172079  0.003006  3.94513  0.005
C  C138  1  0.80089384  0.58597507  0.99833858  1  -0.025018  0.006705  -0.081195  -0.17204  0.003005  3.945052  0.005
C  C139  1  0.23487599  0.21068545  0.58675337  1  -0.0551  0.008119  -0.022042  -0.050476  0.004067  3.999706  0.007
C  C140  1  0.76512381  0.78930532  0.41323435  1  -0.055651  0.008122  -0.021901  -0.05027  0.004069  3.999495  0.007
C  C141  1  0.89180403  0.63947865  0.25427392  1  -0.016966  0.004245  -0.085827  -0.171853  0.001955  3.94305  0.004
C  C142  1  0.10819529  0.36052384  0.74572128  1  -0.017564  0.004244  -0.085915  -0.171991  0.001954  3.942968  0.004
C  C143  1  0.22856141  0.26930413  0.17517307  1  1.516968  -0.006146  0.186423  0.527012  -0.007582  4.247547  -0.007
C  C144  1  0.77143936  0.73069209  0.82483483  1  1.516465  -0.006149  0.186442  0.52719  -0.007585  4.247318  -0.007
C  C145  1  0.35765121  0.36651112  0.72980883  1  0.057583  0.003894  -0.019446  -0.027033  0.002003  3.999239  0.003
C  C146  1  0.64233816  0.63348041  0.27018541  1  0.058169  0.003893  -0.019492  -0.027107  0.002002  3.999481  0.003
C  C147  1  0.47243875  0.15689989  0.32450499  1  -0.026112  0.00535  -0.089505  -0.189295  0.002495  3.961955  0.004
C  C148  1  0.52755308  0.84309243  0.67549006  1  -0.025633  0.00535  -0.089596  -0.189455  0.002496  3.961988  0.004
C  C149  1  0.94029933  0.63332446  0.33628207  1  -0.014605  -0.00846  0.012006  0.129101  -0.008879  3.973322  -0.005
C  C150  1  0.05969788  0.36667412  0.66370865  1  -0.01407  -0.008451  0.012118  0.129188  -0.008869  3.973316  -0.005
C  C151  1  0.34300925  0.37615284  0.58445286  1  -0.011061  0.00862  -0.025314  -0.056968  0.004325  4.015411  0.007
C  C152  1  0.65698918  0.62385040  0.41555672  1  -0.010803  0.008623  -0.025251  -0.05678  0.004326  4.014791  0.007
C  C153  1  0.14879233  0.09799163  0.53602441  1  1.531509  0.009512  0.220167  0.591905  0.006272  4.164526  0.01
C  C154  1  0.85120498  0.90199836  0.46395467  1  1.531564  0.00951  0.22021  0.592219  0.006274  4.164514  0.01
C  C155  1  0.94293982  0.26155960  0.33239393  1  -0.03987  -0.010849  0.011965  0.122982  -0.011365  3.978697  -0.007
C  C156  1  0.05705799  0.73844132  0.66760412  1  -0.039955  -0.01085  0.012  0.122987  -0.011366  3.978304  -0.007
C  C157  1  0.36415484  0.62316420  0.25338080  1  0.014127  0.004074  -0.085605  -0.167528  0.001907  3.919946  0.003
C  C158  1  0.63584939  0.37683985  0.74661183  1  0.014513  0.004073  -0.085616  -0.167647  0.001907  3.920268  0.003
C  C159  1  0.99750311  0.72530700  0.41857876  1  -0.026038  0.003845  -0.088515  -0.174451  0.001793  3.929296  0.003
C  C160  1  0.00249420  0.27468923  0.58141142  1  -0.026309  0.003843  -0.088582  -0.174557  0.001792  3.92955  0.003
C  C161  1  0.26640833  0.26922679  0.53788777  1  -0.024625  -0.000349  -0.070245  -0.079953  -0.001026  3.910859  0.0
C  C162  1  0.73358632  0.73077335  0.46210086  1  -0.024538  -0.000344  -0.070373  -0.080336  -0.001022  3.911361  0.0
C  C163  1  0.30202545  0.87501101  0.26661997  1  0.486826  -0.00149  0.077914  0.197665  -0.001553  4.058199  -0.001
C  C164  1  0.69797528  0.12499146  0.73339002  1  0.487116  -0.00149  0.077916  0.197744  -0.001553  4.058071  -0.001
C  C165  1  0.38705793  0.07046204  0.32123579  1  -0.006049  -0.011503  0.011657  0.126688  -0.01204  3.974262  -0.007
C  C166  1  0.61294285  0.92954433  0.67877094  1  -0.006644  -0.011505  0.011639  0.126669  -0.012042  3.974036  -0.007
C  C167  1  0.39199647  0.97775423  0.32111385  1  -0.020127  -0.000207  -0.016489  -0.019135  -0.000487  3.990445  0.0
C  C168  1  0.60800476  0.02225292  0.67890219  1  -0.019637  -0.000206  -0.016567  -0.019159  -0.000487  3.99071  0.0
C  C169  1  0.29951591  0.07902990  0.32187862  1  -0.02586  0.004701  -0.080707  -0.171832  0.002149  3.918054  0.004
C  C170  1  0.70048208  0.92097256  0.67812645  1  -0.025476  0.004702  -0.080678  -0.171871  0.00215  3.918101  0.004
C  C171  1  0.09144890  0.49857665  0.00277530  1  0.00234  -0.000757  -0.019746  -0.028367  -0.001076  4.031741  0.0
C  C172  1  0.90855433  0.50143051  0.99722984  1  0.003555  -0.00076  -0.019669  -0.028317  -0.001079  4.031614  0.0
C  C173  1  0.93630246  0.53721556  0.33714507  1  0.008142  -0.001552  -0.016808  -0.017124  -0.00168  3.994829  -0.001
C  C174  1  0.06369491  0.46278458  0.66284907  1  0.007464  -0.001552  -0.01686  -0.017216  -0.00168  3.994924  -0.001
C  C175  1  0.00508054  0.81667575  0.41616609  1  0.410541  -0.0059  0.040155  0.092754  -0.00657  3.936942  -0.004
C  C176  1  0.99491961  0.18332830  0.58382549  1  0.410595  -0.005891  0.04007  0.092724  -0.006562  3.937213  -0.004
C  C177  1  0.49618398  0.90694904  0.38613684  1  0.457558  -0.000414  0.0762  0.192718  -0.000439  4.063401  0.0
C  C178  1  0.50382096  0.09305500  0.61386679  1  0.458814  -0.000413  0.076269  0.192829  -0.000439  4.063217  0.0
C  C179  1  0.03104102  0.25359139  0.33306768  1  0.015653  0.004894  -0.076064  -0.157304  0.00228  3.910667  0.004
C  C180  1  0.96894691  0.74641265  0.66692736  1  0.014996  0.004894  -0.076063  -0.157439  0.00228  3.910428  0.004
C  C181  1  0.94075710  0.35646006  0.33670998  1  0.004965  -0.000704  -0.015121  -0.018178  -0.000887  3.99684  0.0
C  C182  1  0.05924414  0.64354084  0.66329736  1  0.005145  -0.000702  -0.01513  -0.018114  -0.000885  3.99658  0.0
C  C183  1  0.44223760  0.70218059  0.41893929  1  -0.015615  0.003537  -0.086799  -0.17428  0.001664  3.940126  0.003
C  C184  1  0.55776393  0.29781722  0.58104695  1  -0.014867  0.003541  -0.086933  -0.174586  0.001666  3.940194  0.003
C  C185  1  0.40587596  0.80452095  0.33194930  1  0.004468  -0.001863  -0.016316  -0.016744  -0.001987  4.000044  -0.001
C  C186  1  0.59413461  0.19547840  0.66805226  1  0.003759  -0.001862  -0.016355  -0.016653  -0.001987  3.999694  -0.001
C  C187  1  0.85635643  0.17432481  0.32676855  1  -0.01799  0.005212  -0.088075  -0.186503  0.002433  3.964688  0.004
C  C188  1  0.14363750  0.82567142  0.67322978  1  -0.018315  0.00521  -0.088094  -0.186555  0.002432  3.96511  0.004
C  C189  1  0.38678806  0.42537341  0.68081399  1  -0.018466  -0.000522  -0.068572  -0.088277  -0.001093  3.918665  0.0
C  C190  1  0.61319860  0.57461812  0.31918255  1  -0.018271  -0.000518  -0.068365  -0.088095  -0.001089  3.917926  0.0
C  C191  1  0.04624629  0.46478178  0.06028956  1  0.499722  -0.001454  0.078067  0.194281  -0.001532  4.075063  -0.001
C  C192  1  0.95374474  0.53520272  0.93970582  1  0.498884  -0.001452  0.078043  0.194352  -0.00153  4.074994  -0.001
C  C193  1  0.48803340  0.99126912  0.37899592  1  0.032377  -0.001754  -0.109811  -0.25409  -0.001869  4.013851  -0.001
C  C194  1  0.51196787  0.00873177  0.62101804  1  0.029754  -0.001755  -0.109769  -0.254083  -0.001869  4.013807  -0.001
C  C195  1  0.84316887  0.43660078  0.28099747  1  0.445532  -0.000699  0.077169  0.191203  -0.000709  4.062273  0.0
C  C196  1  0.15684109  0.56340248  0.71900848  1  0.445898  -0.000698  0.077279  0.191374  -0.000708  4.062189  0.0
C  C197  1  0.94470915  0.07042342  0.91688964  1  -0.135228  -0.003714  -0.077622  -0.118858  -0.004088  3.959619  -0.002
C  C198  1  0.05529529  0.92958217  0.08312085  1  -0.135689  -0.003714  -0.077637  -0.118911  -0.004089  3.959285  -0.002
C  C199  1  0.31084549  0.79067746  0.27233405  1  -0.047536  -0.000691  -0.110683  -0.2585  -0.000812  4.021532  0.0
C  C200  1  0.68916735  0.20932736  0.72767120  1  -0.047789  -0.00069  -0.110669  -0.258669  -0.000811  4.021605  0.0
C  C201  1  0.03218120  0.45732975  0.39645113  1  0.5106  -0.001307  0.077845  0.192043  -0.001377  4.060318  -0.001
C  C202  1  0.96781222  0.54266803  0.60354865  1  0.510455  -0.001307  0.077832  0.19205  -0.001378  4.060146  -0.001
C  C203  1  0.02860747  0.54520471  0.39515560  1  -0.019901  -0.001204  -0.108928  -0.253726  -0.001313  4.025714  -0.001
C  C204  1  0.97139543  0.45479933  0.60484570  1  -0.019719  -0.001201  -0.108919  -0.253701  -0.001311  4.025962  -0.001
C  C205  1  0.04482161  0.53315054  0.94346139  1  -0.029797  -0.001063  -0.108279  -0.25765  -0.001145  4.024456  -0.001
C  C206  1  0.95517447  0.46684334  0.05653874  1  -0.029718  -0.001061  -0.108374  -0.257792  -0.001142  4.024545  -0.001
C  C207  1  0.84711567  0.34834082  0.28103957  1  -0.001216  -0.0016  -0.109044  -0.261559  -0.001705  4.019913  -0.001
C  C208  1  0.15288116  0.65165697  0.71896108  1  -0.001895  -0.0016  -0.109097  -0.261613  -0.001705  4.020082  -0.001
C  C209  1  0.03011814  0.16113492  0.08383385  1  -0.00727  -0.00409  -0.066556  -0.07999  -0.004463  3.900967  -0.002
C  C210  1  0.96987860  0.83885504  0.91617513  1  -0.009864  -0.004092  -0.066433  -0.079911  -0.004465  3.900709  -0.002
C  C211  1  0.05481687  0.40404613  0.17986063  1  0.335161  6.8e-05  -0.14415  -0.181497  4e-06  3.871666  0.0
C  C212  1  0.94518935  0.59595401  0.82013579  1  0.334692  6.8e-05  -0.144206  -0.181609  4e-06  3.871334  0.0
C  C213  1  0.68275543  0.01788282  0.49171281  1  0.359096  -6e-05  -0.13904  -0.168067  -7.7e-05  3.892189  0.0
C  C214  1  0.31724992  0.98212200  0.50828690  1  0.358945  -6e-05  -0.139105  -0.168112  -7.7e-05  3.892613  0.0
C  C215  1  0.21433161  0.56280924  0.51308617  1  0.389985  -5.1e-05  -0.137776  -0.164029  -9.1e-05  3.890591  0.0
C  C216  1  0.78566826  0.43719167  0.48691781  1  0.390471  -5e-05  -0.13784  -0.164205  -9.1e-05  3.890775  0.0
C  C217  1  0.11669437  0.76073393  0.15984705  1  0.382189  -2e-05  -0.142044  -0.165733  -5.5e-05  3.894124  0.0
C  C218  1  0.88330590  0.23926384  0.84016711  1  0.382482  -2e-05  -0.141928  -0.165579  -5.5e-05  3.893637  0.0
C  C219  1  0.83221822  0.06917091  0.00352766  1  1.523728  5.7e-05  0.228906  0.580959  1e-05  4.110492  0.0
C  C220  1  0.16778760  0.93082450  0.99649218  1  1.52348  5.7e-05  0.22888  0.5809  1e-05  4.109854  0.0
C  C221  1  0.65346050  0.33470134  0.18361434  1  0.349882  0.000105  -0.133004  -0.171455  3.8e-05  3.89357  0.0
C  C222  1  0.34654025  0.66529487  0.81638936  1  0.350228  0.000105  -0.13308  -0.171607  3.8e-05  3.893873  0.0
C  C223  1  0.40863647  0.41790783  0.83201991  1  1.472312  -0.007527  0.190918  0.547269  -0.009449  4.20582  -0.008
C  C224  1  0.59135124  0.58207434  0.16796806  1  1.472049  -0.007527  0.190871  0.547274  -0.009448  4.205821  -0.008
N  N225  1  0.37104687  0.50304914  0.00516422  1  -1.231031  0.06054  -0.338706  -0.234674  0.032839  3.624618  0.047
N  N226  1  0.62895348  0.49696039  0.99482571  1  -1.231187  0.060547  -0.338628  -0.234416  0.032838  3.624447  0.047
N  N227  1  0.94922272  0.08258844  0.33057495  1  -1.219327  0.049298  -0.328852  -0.240262  0.026305  3.589959  0.044
N  N228  1  0.05078282  0.91741170  0.66942009  1  -1.219081  0.049301  -0.328847  -0.240197  0.026306  3.590036  0.044
N  N229  1  0.38550332  0.25414861  0.33308556  1  -1.217632  0.047426  -0.33151  -0.244002  0.025313  3.591334  0.043
N  N230  1  0.61449280  0.74584918  0.66690709  1  -1.217975  0.047428  -0.331503  -0.244026  0.025313  3.591329  0.043
N  N231  1  0.38852799  0.52366022  0.33722238  1  -1.209001  0.048598  -0.331938  -0.264104  0.025867  3.603594  0.042
N  N232  1  0.61145298  0.47632586  0.66276056  1  -1.209507  0.048607  -0.331944  -0.264107  0.02587  3.60371  0.042
N  N233  1  0.95956074  0.82199879  0.33673786  1  -1.222213  0.047116  -0.332867  -0.26371  0.025076  3.607032  0.042
N  N234  1  0.04043347  0.17800058  0.66324686  1  -1.221665  0.047113  -0.33275  -0.263468  0.025074  3.60707  0.042
O  O235  1  0.96108825  0.03516506  0.75169087  1  -1.141608  0.080822  -0.313843  -0.539844  0.041639  2.255975  0.07
O  O236  1  0.03891707  0.96484600  0.24831274  1  -1.141496  0.080867  -0.313981  -0.540034  0.041663  2.255701  0.07
O  O237  1  0.13849813  0.11823984  0.82100676  1  -1.145761  0.067506  -0.312014  -0.537288  0.034718  2.131359  0.058
O  O238  1  0.86152306  0.88177669  0.17900525  1  -1.145474  0.067527  -0.312191  -0.537416  0.03473  2.131663  0.058
O  O239  1  0.45951819  0.53197208  0.57913906  1  -1.18594  0.07354  -0.318663  -0.591466  0.037836  2.458915  0.058
O  O240  1  0.54047840  0.46801631  0.42087432  1  -1.185679  0.073533  -0.318777  -0.591716  0.037836  2.458371  0.058
O  O241  1  0.11659352  0.04882671  0.58280515  1  -1.175977  0.078508  -0.31607  -0.582574  0.040495  2.442258  0.063
O  O242  1  0.88339441  0.95115470  0.41716886  1  -1.176558  0.078529  -0.316068  -0.582718  0.040503  2.442473  0.063
O  O243  1  0.11287484  0.05612093  0.44826805  1  -1.148685  0.088165  -0.310891  -0.549346  0.045532  2.385954  0.074
O  O244  1  0.88713221  0.94387453  0.55171605  1  -1.148417  0.088193  -0.310945  -0.549578  0.045547  2.386145  0.074
O  O245  1  0.33625129  0.38974370  0.44465116  1  -1.12558  0.095736  -0.305992  -0.530299  0.049402  2.389791  0.081
O  O246  1  0.66374059  0.61026893  0.55534875  1  -1.125927  0.095667  -0.305845  -0.530017  0.049366  2.390719  0.081
O  O247  1  0.40085246  0.36168871  0.87729456  1  -1.142693  0.086225  -0.320943  -0.541977  0.044622  2.196334  0.075
O  O248  1  0.59913688  0.63829267  0.12269543  1  -1.142585  0.086219  -0.32096  -0.541964  0.044621  2.196412  0.075
O  O249  1  0.46169472  0.51781516  0.87448116  1  -1.133484  0.08409  -0.317074  -0.544439  0.043263  2.196664  0.074
O  O250  1  0.53829702  0.48216310  0.12551052  1  -1.133151  0.084088  -0.316985  -0.544486  0.04326  2.196807  0.074
O  O251  1  0.21518649  0.29777800  0.24796569  1  -1.142845  0.082072  -0.313368  -0.545705  0.042282  2.284352  0.071
O  O252  1  0.78479709  0.70220649  0.75203740  1  -1.142566  0.082079  -0.31338  -0.545708  0.042285  2.284512  0.071
O  O253  1  0.32170565  0.30362969  0.17973024  1  -1.140429  0.065672  -0.316763  -0.546486  0.033827  2.128455  0.057
O  O254  1  0.67829271  0.69636965  0.82027358  1  -1.140426  0.0657  -0.316781  -0.546579  0.033843  2.128337  0.057
O  O255  1  0.58739564  0.91642554  0.44216535  1  -1.075044  2.1e-05  -0.184926  -0.15507  1e-05  2.584683  0.0
O  O256  1  0.41261179  0.08357303  0.55783281  1  -1.074898  2.1e-05  -0.184899  -0.155092  1e-05  2.58503  0.0
O  O257  1  0.75307145  0.43259421  0.23027450  1  -1.076607  2e-06  -0.184692  -0.159105  -2.6e-05  2.607343  0.0
O  O258  1  0.24693153  0.56741372  0.76973317  1  -1.076155  2e-06  -0.184712  -0.15917  -2.6e-05  2.607807  0.0
O  O259  1  0.11998725  0.46241803  0.45339648  1  -1.07924  -9.4e-05  -0.181583  -0.151005  -6.4e-05  2.59485  0.0
O  O260  1  0.87999759  0.53757505  0.54661740  1  -1.079729  -9.5e-05  -0.181533  -0.150911  -6.4e-05  2.594991  0.0
O  O261  1  0.09666202  0.43429739  0.11792670  1  -1.082168  -0.000318  -0.184902  -0.160751  -0.000308  2.607679  0.0
O  O262  1  0.90333939  0.56570507  0.88208226  1  -1.081596  -0.000318  -0.184913  -0.160814  -0.000308  2.607173  0.0
O  O263  1  0.21013044  0.86351257  0.20941158  1  -1.085846  -0.000235  -0.183569  -0.154515  -0.00021  2.598927  0.0
O  O264  1  0.78986268  0.13648832  0.79060448  1  -1.085816  -0.000236  -0.183601  -0.154555  -0.000211  2.598898  0.0
O  O265  1  0.74314860  0.98114820  0.93215931  1  -1.112869  -2.9e-05  -0.339075  -0.470636  -4.3e-05  2.218176  0.0
O  O266  1  0.25685980  0.01887614  0.06785487  1  -1.112722  -2.9e-05  -0.339068  -0.470491  -4.3e-05  2.217862  0.0
O  O267  1  0.82410908  0.12192039  0.06587242  1  -1.142597  0.0002  -0.294101  -0.47136  9.2e-05  2.057932  0.0
O  O268  1  0.17592524  0.87806719  0.93417093  1  -1.142442  0.0002  -0.294186  -0.47143  9.2e-05  2.057549  0.0
