# generated using pymatgen
data_Ag2P2H10C12O5
_symmetry_space_group_name_H-M   'P 1'
_cell_length_a   5.86449762
_cell_length_b   8.05695734
_cell_length_c   14.71571369
_cell_angle_alpha   76.98994388
_cell_angle_beta   90.24387141
_cell_angle_gamma   89.80087357
_symmetry_Int_Tables_number   1
_chemical_formula_structural   Ag2P2H10C12O5
_chemical_formula_sum   'Ag4 P4 H20 C24 O10'
_cell_volume   677.45601925
_cell_formula_units_Z   2
loop_
 _symmetry_equiv_pos_site_id
 _symmetry_equiv_pos_as_xyz
  1  'x, y, z'
loop_
 _atom_site_type_symbol
 _atom_site_label
 _atom_site_symmetry_multiplicity
 _atom_site_fract_x
 _atom_site_fract_y
 _atom_site_fract_z
 _atom_site_occupancy
 _atom_site_hle17_bader_spin_density
 _atom_site_hle17_ddec_charge
 _atom_site_hle17_ddec_spin_density
 _atom_site_hle17_ddec_sum_bond_order
 _atom_site_hle17_magmom
 _atom_site_hse06_10hf_bader_spin_density
 _atom_site_hse06_10hf_ddec_charge
 _atom_site_hse06_10hf_ddec_spin_density
 _atom_site_hse06_10hf_ddec_sum_bond_order
 _atom_site_hse06_10hf_magmom
 _atom_site_hse06_bader_spin_density
 _atom_site_hse06_ddec_charge
 _atom_site_hse06_ddec_spin_density
 _atom_site_hse06_ddec_sum_bond_order
 _atom_site_hse06_magmom
 _atom_site_pbe_bader_spin_density
 _atom_site_pbe_cm5_charge
 _atom_site_pbe_ddec_charge
 _atom_site_pbe_ddec_spin_density
 _atom_site_pbe_ddec_sum_bond_order
 _atom_site_pbe_magmom
Ag  Ag0  1  0.40690511  0.28547799  0.97413329  1  0  0.716826  0  1.35287  0  0  0.628743  0  1.775918  0  0  0.65498  0  1.721263  0  0  0.466691  0.610364  0  1.813688  0
Ag  Ag1  1  0.59307834  0.71451541  0.02587279  1  0  0.716826  0  1.352835  0  0  0.628736  0  1.775864  0  0  0.654973  0  1.721207  0  0  0.466708  0.610358  0  1.813638  0
Ag  Ag2  1  0.14976474  0.82549356  0.09019327  1  0  0.663507  0  1.269871  0  0  0.550357  0  1.698838  0  0  0.582985  0  1.642736  0  0  0.45683  0.526821  0  1.738266  0
Ag  Ag3  1  0.85022492  0.17452167  0.90980068  1  0  0.663465  0  1.269927  0  0  0.5503  0  1.698918  0  0  0.582928  0  1.642809  0  0  0.456798  0.526763  0  1.738344  0
P  P4  1  0.62217945  0.95157134  0.17096879  1  0  1.412166  0  4.852652  0  0  1.255477  0  5.326394  0  0  1.306857  0  5.292441  0  0  0.351838  1.219836  0  5.348706  0
P  P5  1  0.37782256  0.04842982  0.82903358  1  0  1.41212  0  4.852724  0  0  1.255435  0  5.326486  0  0  1.306816  0  5.292531  0  0  0.351788  1.219805  0  5.348788  0
P  P6  1  0.85323593  0.29470352  0.10508290  1  0  1.433481  0  4.808652  0  0  1.275078  0  5.284136  0  0  1.326356  0  5.250994  0  0  0.360377  1.239465  0  5.306057  0
P  P7  1  0.14676104  0.70529379  0.89492063  1  0  1.433462  0  4.808423  0  0  1.2751  0  5.283856  0  0  1.326364  0  5.250733  0  0  0.360438  1.239486  0  5.305785  0
H  H8  1  0.83078746  0.75941791  0.34240034  1  0  0.090326  0  0.970106  0  0  0.100749  0  1.03385  0  0  0.102796  0  1.034184  0  0  0.100271  0.099275  0  1.033668  0
H  H9  1  0.16922282  0.24058469  0.65759436  1  0  0.090442  0  0.969932  0  0  0.10085  0  1.033683  0  0  0.102899  0  1.034013  0  0  0.10033  0.099373  0  1.033506  0
H  H10  1  0.70303916  0.69820198  0.50832148  1  0  0.081378  0  0.980799  0  0  0.092048  0  1.04402  0  0  0.094328  0  1.044114  0  0  0.095177  0.090398  0  1.04406  0
H  H11  1  0.29698150  0.30179300  0.49167544  1  0  0.081418  0  0.980712  0  0  0.092074  0  1.043957  0  0  0.09434  0  1.044063  0  0  0.09515  0.090418  0  1.044  0
H  H12  1  0.33385462  0.81325438  0.54876070  1  0  0.08442  0  0.962064  0  0  0.097094  0  1.021048  0  0  0.099227  0  1.020641  0  0  0.100448  0.095554  0  1.021415  0
H  H13  1  0.66616615  0.18673548  0.45123819  1  0  0.084388  0  0.962022  0  0  0.097115  0  1.02099  0  0  0.09925  0  1.020577  0  0  0.100428  0.095568  0  1.021351  0
H  H14  1  0.08793624  0.98703756  0.42404160  1  0  0.085296  0  0.95471  0  0  0.098024  0  1.013044  0  0  0.100275  0  1.013209  0  0  0.099146  0.096394  0  1.013034  0
H  H15  1  0.91206437  0.01294574  0.57596426  1  0  0.085212  0  0.954718  0  0  0.097929  0  1.013059  0  0  0.100184  0  1.013211  0  0  0.099159  0.096308  0  1.013046  0
H  H16  1  0.21619087  0.04938451  0.25905657  1  0  0.107543  0  0.952506  0  0  0.116086  0  1.015404  0  0  0.118833  0  1.014593  0  0  0.103573  0.114064  0  1.01607  0
H  H17  1  0.78379936  0.95060641  0.74094707  1  0  0.107476  0  0.952613  0  0  0.116037  0  1.015488  0  0  0.118784  0  1.014673  0  0  0.103563  0.114013  0  1.016166  0
H  H18  1  0.29275082  0.46386748  0.11348990  1  0  0.106114  0  1.003184  0  0  0.110178  0  1.075863  0  0  0.114558  0  1.071441  0  0  0.099508  0.10688  0  1.079298  0
H  H19  1  0.70725283  0.53613879  0.88651186  1  0  0.106213  0  1.00312  0  0  0.110245  0  1.075865  0  0  0.114623  0  1.071447  0  0  0.099543  0.106946  0  1.079303  0
H  H20  1  0.47135863  0.59004783  0.23491851  1  0  0.093261  0  0.98992  0  0  0.099173  0  1.058984  0  0  0.102059  0  1.058237  0  0  0.097284  0.097069  0  1.05965  0
H  H21  1  0.52863650  0.40995840  0.76508329  1  0  0.093204  0  0.989992  0  0  0.099164  0  1.058967  0  0  0.102048  0  1.05822  0  0  0.097268  0.097058  0  1.059635  0
H  H22  1  0.26886553  0.58149388  0.38450296  1  0  0.078325  0  0.985295  0  0  0.087768  0  1.049942  0  0  0.089289  0  1.05122  0  0  0.093393  0.086651  0  1.049149  0
H  H23  1  0.73112276  0.41851359  0.61549871  1  0  0.078365  0  0.985377  0  0  0.08776  0  1.050074  0  0  0.08928  0  1.051355  0  0  0.093365  0.086639  0  1.049288  0
H  H24  1  0.89202213  0.43590020  0.41340888  1  0  0.079275  0  0.962365  0  0  0.092038  0  1.020461  0  0  0.094465  0  1.019958  0  0  0.097466  0.090319  0  1.020889  0
H  H25  1  0.10796086  0.56411240  0.58658881  1  0  0.079255  0  0.962447  0  0  0.092032  0  1.020524  0  0  0.094457  0  1.020024  0  0  0.09748  0.090314  0  1.020952  0
H  H26  1  0.71357458  0.31000060  0.29118928  1  0  0.090111  0  0.946039  0  0  0.102428  0  1.006081  0  0  0.104698  0  1.005612  0  0  0.103654  0.100772  0  1.006522  0
H  H27  1  0.28641691  0.69000825  0.70880678  1  0  0.090137  0  0.946063  0  0  0.102451  0  1.006099  0  0  0.104721  0  1.005626  0  0  0.103688  0.100803  0  1.006529  0
C  C28  1  0.53228238  0.90881900  0.29083324  1  0  -0.245433  0  3.790195  0  0  -0.20058  0  4.023098  0  0  -0.211559  0  4.046595  0  0  -0.027554  -0.193306  0  4.00733  0
C  C29  1  0.46772120  0.09118604  0.70916595  1  0  -0.24534  0  3.790176  0  0  -0.200499  0  4.023102  0  0  -0.211484  0  4.046624  0  0  -0.027493  -0.19323  0  4.007344  0
C  C30  1  0.66897378  0.80949437  0.36101493  1  0  -0.040061  0  3.749073  0  0  -0.061715  0  3.986691  0  0  -0.061088  0  4.008479  0  0  -0.082399  -0.06198  0  3.971897  0
C  C31  1  0.33104352  0.19050436  0.63898496  1  0  -0.040189  0  3.749181  0  0  -0.061821  0  3.986787  0  0  -0.061194  0  4.008571  0  0  -0.082479  -0.062086  0  3.971996  0
C  C32  1  0.59631931  0.77404953  0.45350021  1  0  -0.088554  0  3.777443  0  0  -0.09827  0  4.023803  0  0  -0.102048  0  4.04546  0  0  -0.095683  -0.095712  0  4.009088  0
C  C33  1  0.40369107  0.22594669  0.54649592  1  0  -0.088522  0  3.777344  0  0  -0.098227  0  4.023742  0  0  -0.101991  0  4.045405  0  0  -0.095611  -0.095663  0  4.009021  0
C  C34  1  0.38742426  0.83778637  0.47619158  1  0  -0.066457  0  3.783439  0  0  -0.080741  0  4.029908  0  0  -0.080826  0  4.050741  0  0  -0.089286  -0.080507  0  4.015649  0
C  C35  1  0.61259319  0.16220344  0.52381005  1  0  -0.066519  0  3.783638  0  0  -0.080879  0  4.030116  0  0  -0.080967  0  4.050949  0  0  -0.089264  -0.080631  0  4.015838  0
C  C36  1  0.25080001  0.93687230  0.40647157  1  0  -0.078656  0  3.768298  0  0  -0.090642  0  4.018734  0  0  -0.094362  0  4.040856  0  0  -0.091515  -0.088139  0  4.003637  0
C  C37  1  0.74920719  0.06312253  0.59353085  1  0  -0.078518  0  3.768359  0  0  -0.090449  0  4.018764  0  0  -0.094164  0  4.040887  0  0  -0.091582  -0.087955  0  4.003675  0
C  C38  1  0.32259449  0.97285753  0.31382672  1  0  -0.036567  0  3.723155  0  0  -0.058734  0  3.964479  0  0  -0.058191  0  3.986116  0  0  -0.08001  -0.058927  0  3.94986  0
C  C39  1  0.67741609  0.02713480  0.68617395  1  0  -0.036617  0  3.723024  0  0  -0.058814  0  3.964372  0  0  -0.058271  0  3.986006  0  0  -0.080057  -0.059012  0  3.949766  0
C  C40  1  0.98867456  0.38373569  0.19314680  1  0  -0.213396  0  3.736841  0  0  -0.171037  0  3.971072  0  0  -0.181012  0  3.993648  0  0  -0.019426  -0.164529  0  3.956089  0
C  C41  1  0.01132744  0.61626042  0.80685345  1  0  -0.21324  0  3.736688  0  0  -0.170925  0  3.97096  0  0  -0.1809  0  3.993538  0  0  -0.019458  -0.164418  0  3.955983  0
C  C42  1  0.20118574  0.46338616  0.17761054  1  0  -0.059414  0  3.767558  0  0  -0.078325  0  4.007438  0  0  -0.078332  0  4.02719  0  0  -0.089082  -0.078237  0  3.994368  0
C  C43  1  0.79881627  0.53661501  0.82239183  1  0  -0.059584  0  3.76752  0  0  -0.078486  0  4.007403  0  0  -0.078491  0  4.027149  0  0  -0.089104  -0.078396  0  3.99434  0
C  C44  1  0.30232557  0.53345885  0.24674470  1  0  -0.102473  0  3.7856  0  0  -0.107343  0  4.02987  0  0  -0.112168  0  4.05218  0  0  -0.099322  -0.104134  0  4.014898  0
C  C45  1  0.69767289  0.46654743  0.75325504  1  0  -0.102398  0  3.785603  0  0  -0.10727  0  4.029815  0  0  -0.112095  0  4.052125  0  0  -0.099294  -0.104062  0  4.014847  0
C  C46  1  0.19041711  0.52516975  0.33126855  1  0  -0.06115  0  3.763314  0  0  -0.073635  0  4.004061  0  0  -0.073843  0  4.025922  0  0  -0.091454  -0.073396  0  3.989238  0
C  C47  1  0.80957274  0.47483653  0.66872851  1  0  -0.061238  0  3.763478  0  0  -0.0737  0  4.004237  0  0  -0.073911  0  4.026101  0  0  -0.091483  -0.073458  0  3.989414  0
C  C48  1  0.97914109  0.44408913  0.34720724  1  0  -0.083658  0  3.773818  0  0  -0.09325  0  4.021618  0  0  -0.096745  0  4.042735  0  0  -0.093834  -0.090951  0  4.007301  0
C  C49  1  0.02084701  0.55591717  0.65278846  1  0  -0.083531  0  3.773557  0  0  -0.093145  0  4.021359  0  0  -0.096637  0  4.042476  0  0  -0.093754  -0.090846  0  4.007045  0
C  C50  1  0.87826920  0.37345331  0.27867991  1  0  -0.024065  0  3.717726  0  0  -0.049013  0  3.96261  0  0  -0.047969  0  3.983346  0  0  -0.077723  -0.049609  0  3.948629  0
C  C51  1  0.12172932  0.62655167  0.72132135  1  0  -0.0242  0  3.717442  0  0  -0.049122  0  3.962347  0  0  -0.048076  0  3.983081  0  0  -0.077799  -0.04972  0  3.948377  0
O  O52  1  0.41734085  0.01380990  0.10878214  1  0  -0.846631  0  2.149544  0  0  -0.755459  0  2.457423  0  0  -0.786022  0  2.432738  0  0  -0.36916  -0.733876  0  2.4738  0
O  O53  1  0.58265588  0.98620144  0.89121837  1  0  -0.84656  0  2.149678  0  0  -0.755361  0  2.457485  0  0  -0.785919  0  2.432796  0  0  -0.36908  -0.733777  0  2.473861  0
O  O54  1  0.75768642  0.80159939  0.15150428  1  0  -0.829032  0  2.065996  0  0  -0.732232  0  2.35322  0  0  -0.765261  0  2.334517  0  0  -0.371226  -0.708697  0  2.365186  0
O  O55  1  0.24230351  0.19840180  0.84849338  1  0  -0.829044  0  2.065944  0  0  -0.732261  0  2.353188  0  0  -0.765287  0  2.334484  0  0  -0.371232  -0.708708  0  2.365106  0
O  O56  1  0.80472991  0.10289364  0.16710207  1  0  -0.691231  0  2.300636  0  0  -0.588734  0  2.55854  0  0  -0.613116  0  2.539566  0  0  -0.212499  -0.571531  0  2.571019  0
O  O57  1  0.19527899  0.89710120  0.83290036  1  0  -0.69127  0  2.300672  0  0  -0.58878  0  2.558577  0  0  -0.613165  0  2.539607  0  0  -0.212526  -0.571585  0  2.57108  0
O  O58  1  0.01475862  0.27922061  0.02733470  1  0  -0.82444  0  2.116492  0  0  -0.730121  0  2.421026  0  0  -0.761687  0  2.398366  0  0  -0.371723  -0.70775  0  2.435922  0
O  O59  1  0.98522972  0.72077546  0.97266493  1  0  -0.824395  0  2.116398  0  0  -0.730083  0  2.420905  0  0  -0.761648  0  2.398244  0  0  -0.371735  -0.707712  0  2.435802  0
O  O60  1  0.62822415  0.38481056  0.07740947  1  0  -0.830788  0  2.124916  0  0  -0.735378  0  2.409109  0  0  -0.767449  0  2.389887  0  0  -0.36374  -0.712558  0  2.421347  0
O  O61  1  0.37176972  0.61517646  0.92260005  1  0  -0.830839  0  2.124922  0  0  -0.735437  0  2.409145  0  0  -0.767497  0  2.389907  0  0  -0.363778  -0.712613  0  2.421387  0
