# generated using pymatgen
data_CuH15C15S3IN6
_symmetry_space_group_name_H-M   'P 1'
_cell_length_a   8.75567296
_cell_length_b   8.94849022
_cell_length_c   12.30455337
_cell_angle_alpha   87.43452830
_cell_angle_beta   85.46164896
_cell_angle_gamma   88.68211128
_symmetry_Int_Tables_number   1
_chemical_formula_structural   CuH15C15S3IN6
_chemical_formula_sum   'Cu2 H30 C30 S6 I2 N12'
_cell_volume   959.89319326
_cell_formula_units_Z   2
loop_
 _symmetry_equiv_pos_site_id
 _symmetry_equiv_pos_as_xyz
  1  'x, y, z'
loop_
 _atom_site_type_symbol
 _atom_site_label
 _atom_site_symmetry_multiplicity
 _atom_site_fract_x
 _atom_site_fract_y
 _atom_site_fract_z
 _atom_site_occupancy
 _atom_site_hle17_bader_spin_density
 _atom_site_hle17_ddec_charge
 _atom_site_hle17_ddec_spin_density
 _atom_site_hle17_ddec_sum_bond_order
 _atom_site_hle17_magmom
 _atom_site_hse06_10hf_bader_spin_density
 _atom_site_hse06_10hf_ddec_charge
 _atom_site_hse06_10hf_ddec_spin_density
 _atom_site_hse06_10hf_ddec_sum_bond_order
 _atom_site_hse06_10hf_magmom
 _atom_site_hse06_bader_spin_density
 _atom_site_hse06_ddec_charge
 _atom_site_hse06_ddec_spin_density
 _atom_site_hse06_ddec_sum_bond_order
 _atom_site_hse06_magmom
 _atom_site_pbe_bader_spin_density
 _atom_site_pbe_cm5_charge
 _atom_site_pbe_ddec_charge
 _atom_site_pbe_ddec_spin_density
 _atom_site_pbe_ddec_sum_bond_order
 _atom_site_pbe_magmom
Cu  Cu0  1  0.59711635  0.59076846  0.08884474  1  0  0.354774  0  2.13076  0  0  0.269169  0  2.599253  0  0  0.269209  0  2.555533  0  0  0.376275  0.272954  0  2.625639  0
Cu  Cu1  1  0.40288548  0.40922896  0.91114904  1  0  0.354633  0  2.130755  0  0  0.26905  0  2.599251  0  0  0.269097  0  2.555527  0  0  0.376199  0.272803  0  2.625664  0
H  H2  1  0.04295242  0.24892682  0.19977100  1  0  0.113892  0  0.966422  0  0  0.118489  0  1.036062  0  0  0.122894  0  1.033854  0  0  0.098964  0.115352  0  1.03784  0
H  H3  1  0.95703893  0.75107729  0.80022801  1  0  0.113849  0  0.966372  0  0  0.118439  0  1.036012  0  0  0.122844  0  1.033807  0  0  0.098977  0.115304  0  1.037787  0
H  H4  1  0.34032903  0.80758109  0.13978476  1  0  0.077057  0  0.956352  0  0  0.085538  0  1.023904  0  0  0.088676  0  1.020605  0  0  0.102169  0.083101  0  1.026406  0
H  H5  1  0.65968201  0.19241413  0.86021184  1  0  0.077012  0  0.956522  0  0  0.085496  0  1.02407  0  0  0.088635  0  1.020768  0  0  0.10216  0.083076  0  1.026547  0
H  H6  1  0.98799700  0.02114769  0.12430027  1  0  0.094303  0  0.962597  0  0  0.104183  0  1.035631  0  0  0.105404  0  1.03565  0  0  0.094816  0.103314  0  1.035629  0
H  H7  1  0.01200827  0.97884865  0.87570149  1  0  0.094406  0  0.962538  0  0  0.104277  0  1.035599  0  0  0.105505  0  1.035611  0  0  0.094838  0.103403  0  1.035595  0
H  H8  1  0.11928556  0.89641365  0.05201075  1  0  0.101548  0  0.943002  0  0  0.117317  0  1.004267  0  0  0.118731  0  1.003848  0  0  0.098052  0.116195  0  1.004743  0
H  H9  1  0.88072890  0.10358160  0.94799054  1  0  0.10139  0  0.943076  0  0  0.117269  0  1.004265  0  0  0.118682  0  1.00385  0  0  0.097987  0.116139  0  1.00474  0
H  H10  1  0.56383656  0.23315951  0.14877973  1  0  0.079672  0  0.947531  0  0  0.083182  0  1.01946  0  0  0.08745  0  1.013959  0  0  0.104646  0.079855  0  1.023621  0
H  H11  1  0.43617678  0.76683461  0.85122166  1  0  0.079734  0  0.94754  0  0  0.083181  0  1.019484  0  0  0.087438  0  1.013984  0  0  0.104615  0.079858  0  1.023638  0
H  H12  1  0.87645722  0.38824836  0.06665220  1  0  0.077691  0  0.951652  0  0  0.085432  0  1.020203  0  0  0.088672  0  1.016395  0  0  0.102101  0.082917  0  1.023122  0
H  H13  1  0.12353990  0.61175354  0.93334738  1  0  0.07764  0  0.951683  0  0  0.085368  0  1.020257  0  0  0.088609  0  1.016449  0  0  0.10206  0.082852  0  1.023179  0
H  H14  1  0.31855157  0.08966773  0.16714489  1  0  0.114776  0  0.957826  0  0  0.120386  0  1.025604  0  0  0.124513  0  1.024259  0  0  0.102184  0.11741  0  1.026835  0
H  H15  1  0.68145831  0.91032752  0.83285990  1  0  0.114739  0  0.957877  0  0  0.120379  0  1.025631  0  0  0.124501  0  1.024294  0  0  0.102173  0.117403  0  1.026863  0
H  H16  1  0.96219160  0.26433489  0.40019622  1  0  0.074867  0  0.957667  0  0  0.076094  0  1.03123  0  0  0.079945  0  1.026694  0  0  0.106839  0.073196  0  1.034615  0
H  H17  1  0.03780880  0.73567374  0.59980538  1  0  0.074751  0  0.957783  0  0  0.076087  0  1.031237  0  0  0.07994  0  1.026701  0  0  0.106856  0.073193  0  1.034616  0
H  H18  1  0.64919033  0.58337766  0.51481614  1  0  0.091798  0  0.962616  0  0  0.1006  0  1.035559  0  0  0.102711  0  1.033967  0  0  0.091407  0.099059  0  1.036755  0
H  H19  1  0.35080341  0.41662199  0.48518451  1  0  0.091739  0  0.962638  0  0  0.100576  0  1.035514  0  0  0.102687  0  1.033925  0  0  0.091392  0.099032  0  1.036712  0
H  H20  1  0.46023592  0.66638830  0.51271578  1  0  0.10094  0  0.963692  0  0  0.112661  0  1.032242  0  0  0.114464  0  1.031098  0  0  0.095796  0.111296  0  1.033214  0
H  H21  1  0.53975894  0.33361248  0.48728558  1  0  0.100956  0  0.963675  0  0  0.112624  0  1.032278  0  0  0.114428  0  1.031135  0  0  0.095782  0.111255  0  1.033247  0
H  H22  1  0.21451919  0.60216814  0.37308354  1  0  0.075764  0  0.936193  0  0  0.083842  0  1.000836  0  0  0.087042  0  0.997162  0  0  0.108679  0.081375  0  1.003597  0
H  H23  1  0.78547108  0.39783262  0.62691807  1  0  0.075756  0  0.936171  0  0  0.083847  0  1.000797  0  0  0.087042  0  0.997134  0  0  0.108652  0.081377  0  1.003558  0
H  H24  1  0.94337394  0.65703399  0.32368304  1  0  0.115991  0  0.978655  0  0  0.12211  0  1.04268  0  0  0.124931  0  1.043621  0  0  0.102037  0.120097  0  1.042228  0
H  H25  1  0.05661519  0.34296676  0.67631701  1  0  0.115978  0  0.978697  0  0  0.122103  0  1.042716  0  0  0.124934  0  1.043623  0  0  0.102059  0.120089  0  1.042264  0
H  H26  1  0.85333158  0.92828862  0.32184635  1  0  0.072075  0  0.924684  0  0  0.079977  0  0.990463  0  0  0.082672  0  0.987647  0  0  0.110732  0.077995  0  0.992482  0
H  H27  1  0.14666211  0.07171326  0.67815260  1  0  0.071981  0  0.924704  0  0  0.079893  0  0.990485  0  0  0.082586  0  0.987672  0  0  0.110696  0.077909  0  0.992508  0
H  H28  1  0.51616754  0.93720246  0.38429828  1  0  0.094457  0  0.966643  0  0  0.101637  0  1.043491  0  0  0.102942  0  1.043583  0  0  0.093333  0.100652  0  1.043536  0
H  H29  1  0.48382275  0.06279720  0.61570825  1  0  0.094447  0  0.966588  0  0  0.101631  0  1.043419  0  0  0.10294  0  1.043505  0  0  0.093311  0.100644  0  1.04346  0
H  H30  1  0.58284710  0.11442764  0.42009387  1  0  0.10221  0  0.928744  0  0  0.119747  0  0.985238  0  0  0.120552  0  0.985328  0  0  0.099734  0.119086  0  0.985339  0
H  H31  1  0.41714205  0.88557201  0.57991110  1  0  0.102187  0  0.928705  0  0  0.119717  0  0.985227  0  0  0.120524  0  0.985315  0  0  0.099676  0.119055  0  0.98533  0
C  C32  1  0.94330934  0.31504670  0.22808928  1  0  -0.177732  0  3.732388  0  0  -0.191943  0  3.988448  0  0  -0.202213  0  4.006888  0  0  -0.096444  -0.185771  0  3.976644  0
C  C33  1  0.05669005  0.68495633  0.77191176  1  0  -0.177665  0  3.732259  0  0  -0.191869  0  3.988354  0  0  -0.202144  0  4.006803  0  0  -0.096441  -0.185698  0  3.97655  0
C  C34  1  0.70195154  0.48498220  0.29925374  1  0  0.319578  0  3.789529  0  0  0.306217  0  4.064755  0  0  0.322979  0  4.076344  0  0  0.228469  0.294986  0  4.057001  0
C  C35  1  0.29804895  0.51502307  0.70074635  1  0  0.319741  0  3.789404  0  0  0.306327  0  4.064671  0  0  0.323091  0  4.076261  0  0  0.228553  0.295096  0  4.056917  0
C  C36  1  0.70074260  0.89829308  0.09926284  1  0  0.325112  0  3.793488  0  0  0.308146  0  4.073598  0  0  0.324851  0  4.08597  0  0  0.230159  0.297105  0  4.065289  0
C  C37  1  0.29926957  0.10170216  0.90073695  1  0  0.325078  0  3.793534  0  0  0.308133  0  4.073675  0  0  0.324858  0  4.086047  0  0  0.230099  0.297076  0  4.065366  0
C  C38  1  0.43936510  0.88049846  0.13299769  1  0  0.181783  0  3.662597  0  0  0.14632  0  3.916759  0  0  0.158058  0  3.929442  0  0  0.050374  0.138707  0  3.908721  0
C  C39  1  0.56064586  0.11950013  0.86700123  1  0  0.181842  0  3.66286  0  0  0.146409  0  3.917054  0  0  0.15816  0  3.929749  0  0  0.050393  0.13877  0  3.908991  0
C  C40  1  0.00664382  0.95290206  0.05249531  1  0  -0.144388  0  3.676555  0  0  -0.182292  0  3.941241  0  0  -0.182331  0  3.952795  0  0  -0.156741  -0.182058  0  3.933024  0
C  C41  1  0.99336726  0.04709095  0.94750786  1  0  -0.144292  0  3.676701  0  0  -0.182382  0  3.941585  0  0  -0.182413  0  3.953116  0  0  -0.156687  -0.182117  0  3.933328  0
C  C42  1  0.56433335  0.11235941  0.13883195  1  0  0.188389  0  3.676156  0  0  0.158613  0  3.936497  0  0  0.172581  0  3.946156  0  0  0.057743  0.149249  0  3.930347  0
C  C43  1  0.43568002  0.88763360  0.86117110  1  0  0.188167  0  3.676122  0  0  0.158511  0  3.936444  0  0  0.172494  0  3.946083  0  0  0.057665  0.149143  0  3.930301  0
C  C44  1  0.85347152  0.39182500  0.15505826  1  0  0.187456  0  3.66334  0  0  0.152145  0  3.917786  0  0  0.164124  0  3.929579  0  0  0.055039  0.144203  0  3.910371  0
C  C45  1  0.14652558  0.60817801  0.84494046  1  0  0.187479  0  3.663427  0  0  0.152171  0  3.917843  0  0  0.164154  0  3.92964  0  0  0.055032  0.144231  0  3.910423  0
C  C46  1  0.42821248  0.03319528  0.14863366  1  0  -0.18604  0  3.729257  0  0  -0.200803  0  3.987041  0  0  -0.211675  0  4.006411  0  0  -0.097348  -0.194293  0  3.974784  0
C  C47  1  0.57179974  0.96679772  0.85136782  1  0  -0.185939  0  3.7292  0  0  -0.20076  0  3.987014  0  0  -0.211625  0  4.006375  0  0  -0.097301  -0.194253  0  3.974767  0
C  C48  1  0.89992406  0.32636914  0.33880553  1  0  0.176705  0  3.695392  0  0  0.148419  0  3.95308  0  0  0.161082  0  3.963779  0  0  0.05537  0.140073  0  3.945911  0
C  C49  1  0.10007525  0.67363725  0.66119459  1  0  0.176816  0  3.695383  0  0  0.14844  0  3.953079  0  0  0.161101  0  3.963785  0  0  0.055373  0.140093  0  3.945911  0
C  C50  1  0.53602133  0.57490755  0.48374224  1  0  -0.14729  0  3.683007  0  0  -0.183217  0  3.943788  0  0  -0.183412  0  3.954767  0  0  -0.160117  -0.182872  0  3.935965  0
C  C51  1  0.46397579  0.42509435  0.51625815  1  0  -0.14719  0  3.682954  0  0  -0.183044  0  3.943673  0  0  -0.183245  0  3.954659  0  0  -0.160075  -0.182724  0  3.935932  0
C  C52  1  0.20219606  0.96395469  0.39084929  1  0  0.330618  0  3.82312  0  0  0.318107  0  4.103839  0  0  0.334713  0  4.116561  0  0  0.236471  0.306917  0  4.09509  0
C  C53  1  0.79779526  0.03605055  0.60915049  1  0  0.330637  0  3.823266  0  0  0.318163  0  4.103935  0  0  0.334742  0  4.116695  0  0  0.236426  0.306975  0  4.095177  0
C  C54  1  0.16688466  0.71595544  0.37101387  1  0  0.186167  0  3.7017  0  0  0.156437  0  3.960637  0  0  0.167106  0  3.973811  0  0  0.060342  0.149569  0  3.951831  0
C  C55  1  0.83310792  0.28404532  0.62898437  1  0  0.186044  0  3.701735  0  0  0.156298  0  3.960681  0  0  0.166964  0  3.973865  0  0  0.060268  0.14943  0  3.951869  0
C  C56  1  0.01758895  0.74562160  0.34380523  1  0  -0.202271  0  3.734391  0  0  -0.215199  0  3.988751  0  0  -0.225833  0  4.009564  0  0  -0.099356  -0.208637  0  3.975062  0
C  C57  1  0.98240588  0.25438138  0.65618549  1  0  -0.202256  0  3.734344  0  0  -0.215209  0  3.988735  0  0  -0.225836  0  4.009552  0  0  -0.099408  -0.208647  0  3.975047  0
C  C58  1  0.96874402  0.89519571  0.34269624  1  0  0.177823  0  3.73901  0  0  0.146118  0  4.006913  0  0  0.15686  0  4.020749  0  0  0.058589  0.139228  0  3.997421  0
C  C59  1  0.03124965  0.10480728  0.65729942  1  0  0.177977  0  3.739079  0  0  0.146273  0  4.006964  0  0  0.157016  0  4.020804  0  0  0.058655  0.13938  0  3.997474  0
C  C60  1  0.49667979  0.02837561  0.44091660  1  0  -0.144509  0  3.676056  0  0  -0.181573  0  3.941826  0  0  -0.180748  0  3.952708  0  0  -0.154053  -0.18206  0  3.93418  0
C  C61  1  0.50330702  0.97162626  0.55908680  1  0  -0.14452  0  3.676029  0  0  -0.181534  0  3.941707  0  0  -0.180713  0  3.952592  0  0  -0.154011  -0.182016  0  3.934058  0
S  S62  1  0.55246256  0.60916448  0.33724958  1  0  0.013115  0  2.485679  0  0  0.003728  0  2.852196  0  0  0.000333  0  2.849315  0  0  0.030851  0.005991  0  2.85393  0
S  S63  1  0.44753339  0.39083853  0.66275084  1  0  0.013038  0  2.485843  0  0  0.003648  0  2.852344  0  0  0.000255  0  2.849464  0  0  0.030829  0.005912  0  2.854082  0
S  S64  1  0.87222902  0.80053522  0.06588966  1  0  0.00859  0  2.412271  0  0  0.004682  0  2.769565  0  0  0.001901  0  2.766765  0  0  0.032487  0.006384  0  2.771286  0
S  S65  1  0.12777986  0.19945441  0.93410888  1  0  0.008573  0  2.412486  0  0  0.004679  0  2.769873  0  0  0.001896  0  2.767066  0  0  0.0325  0.006383  0  2.771564  0
S  S66  1  0.31368716  0.11732315  0.41651982  1  0  -0.010392  0  2.361678  0  0  -0.009764  0  2.700535  0  0  -0.01887  0  2.702743  0  0  0.038391  -0.002926  0  2.698585  0
S  S67  1  0.68630418  0.88268097  0.58348162  1  0  -0.010396  0  2.361629  0  0  -0.009796  0  2.700464  0  0  -0.018893  0  2.702684  0  0  0.0384  -0.002966  0  2.698513  0
I  I68  1  0.69103635  0.51183958  0.88880683  1  0  -0.534972  0  1.416343  0  0  -0.489749  0  1.824179  0  0  -0.511512  0  1.793943  0  0  -0.246979  -0.473278  0  1.84293  0
I  I69  1  0.30896314  0.48816007  0.11118863  1  0  -0.534947  0  1.416303  0  0  -0.489721  0  1.824155  0  0  -0.511488  0  1.793923  0  0  -0.246947  -0.473247  0  1.842903  0
N  N70  1  0.73048442  0.47544423  0.18918537  1  0  -0.375304  0  3.353528  0  0  -0.305539  0  3.643716  0  0  -0.319339  0  3.647249  0  0  -0.365985  -0.297399  0  3.641453  0
N  N71  1  0.26951037  0.52455990  0.81081426  1  0  -0.375325  0  3.353629  0  0  -0.305512  0  3.643796  0  0  -0.319318  0  3.647327  0  0  -0.365971  -0.297369  0  3.641529  0
N  N72  1  0.57482833  0.81105292  0.10721589  1  0  -0.374215  0  3.367641  0  0  -0.303953  0  3.660329  0  0  -0.31759  0  3.664179  0  0  -0.365599  -0.296012  0  3.657662  0
N  N73  1  0.42518391  0.18894007  0.89277991  1  0  -0.373988  0  3.36762  0  0  -0.303859  0  3.660449  0  0  -0.317556  0  3.664367  0  0  -0.365479  -0.295862  0  3.657709  0
N  N74  1  0.78034116  0.41218074  0.37476792  1  0  -0.38021  0  3.078371  0  0  -0.335982  0  3.338236  0  0  -0.352719  0  3.351528  0  0  -0.320732  -0.324798  0  3.32909  0
N  N75  1  0.21966039  0.58782788  0.62523118  1  0  -0.380292  0  3.078248  0  0  -0.336059  0  3.338186  0  0  -0.352798  0  3.351484  0  0  -0.320788  -0.324876  0  3.329047  0
N  N76  1  0.70070944  0.04518166  0.11499470  1  0  -0.386293  0  3.06904  0  0  -0.34149  0  3.330989  0  0  -0.35904  0  3.345164  0  0  -0.321181  -0.329863  0  3.321432  0
N  N77  1  0.29930281  0.95481023  0.88500764  1  0  -0.386288  0  3.068864  0  0  -0.341487  0  3.330757  0  0  -0.359039  0  3.344922  0  0  -0.321142  -0.329866  0  3.321209  0
N  N78  1  0.26074352  0.82449825  0.39528765  1  0  -0.383024  0  3.060511  0  0  -0.339571  0  3.326562  0  0  -0.355771  0  3.340352  0  0  -0.317435  -0.328818  0  3.31729  0
N  N79  1  0.73924665  0.17550698  0.60471300  1  0  -0.382883  0  3.060901  0  0  -0.339392  0  3.326847  0  0  -0.355584  0  3.340649  0  0  -0.317256  -0.328639  0  3.317565  0
N  N80  1  0.05995361  0.00551744  0.36559666  1  0  -0.390515  0  3.051651  0  0  -0.348228  0  3.317162  0  0  -0.364346  0  3.330032  0  0  -0.320073  -0.337473  0  3.308396  0
N  N81  1  0.94004113  0.99448892  0.63440127  1  0  -0.390604  0  3.051675  0  0  -0.348358  0  3.317226  0  0  -0.364467  0  3.330105  0  0  -0.32012  -0.337608  0  3.308463  0
