# generated using pymatgen
data_CdH18C26SN4O7
_symmetry_space_group_name_H-M   'P 1'
_cell_length_a   9.50857081
_cell_length_b   12.90609157
_cell_length_c   26.61902675
_cell_angle_alpha   96.86653909
_cell_angle_beta   89.99996007
_cell_angle_gamma   90.00007503
_symmetry_Int_Tables_number   1
_chemical_formula_structural   CdH18C26SN4O7
_chemical_formula_sum   'Cd4 H72 C104 S4 N16 O28'
_cell_volume   3243.21608241
_cell_formula_units_Z   4
loop_
 _symmetry_equiv_pos_site_id
 _symmetry_equiv_pos_as_xyz
  1  'x, y, z'
loop_
 _atom_site_type_symbol
 _atom_site_label
 _atom_site_symmetry_multiplicity
 _atom_site_fract_x
 _atom_site_fract_y
 _atom_site_fract_z
 _atom_site_occupancy
 _atom_site_pbe_bader_charge
 _atom_site_pbe_bader_spin_density
 _atom_site_pbe_cm5_charge
 _atom_site_pbe_ddec_charge
 _atom_site_pbe_ddec_spin_density
 _atom_site_pbe_ddec_sum_bond_order
 _atom_site_pbe_magmom
Cd  Cd0  1  0.60427362  0.87755866  0.96722406  1  1.272566  0  0.770735  0.866879  0  2.251574  0
Cd  Cd1  1  0.60427337  0.12244214  0.53277544  1  1.27259  0  0.770744  0.86694  0  2.251551  0
Cd  Cd2  1  0.39572832  0.12244247  0.03277488  1  1.272616  0  0.770728  0.866891  0  2.251565  0
Cd  Cd3  1  0.39572857  0.87755898  0.46722426  1  1.272533  0  0.770739  0.866918  0  2.251524  0
H  H4  1  0.98822752  0.18153173  0.01710015  1  0.135929  0  0.1113  0.125937  0  1.04163  0
H  H5  1  0.98822659  0.81846791  0.48289986  1  0.135931  0  0.11129  0.125948  0  1.041636  0
H  H6  1  0.01176390  0.81846940  0.98289804  1  0.135962  0  0.111284  0.12593  0  1.041772  0
H  H7  1  0.01177114  0.18153009  0.51710153  1  0.135889  0  0.111314  0.125999  0  1.041668  0
H  H8  1  0.64963728  0.03528769  0.88779739  1  0.10587  0  0.12801  0.106395  0  0.962766  0
H  H9  1  0.64963943  0.96471237  0.61220243  1  0.10589  0  0.12802  0.106422  0  0.96278  0
H  H10  1  0.35036361  0.96471110  0.11219991  1  0.105954  0  0.128022  0.10643  0  0.962741  0
H  H11  1  0.35036251  0.03528953  0.38779807  1  0.105897  0  0.128017  0.106406  0  0.962768  0
H  H12  1  0.85057893  0.02209796  0.02491220  1  0.098906  0  0.115938  0.081995  0  1.017456  0
H  H13  1  0.85058145  0.97790312  0.47508756  1  0.099148  0  0.115947  0.082023  0  1.017377  0
H  H14  1  0.14941670  0.97790238  0.97508745  1  0.099024  0  0.115932  0.081993  0  1.017384  0
H  H15  1  0.14941944  0.02209489  0.52491195  1  0.09898  0  0.115935  0.082006  0  1.017368  0
H  H16  1  0.24935044  0.56490636  0.91316467  1  0.125047  0  0.111868  0.120761  0  1.033817  0
H  H17  1  0.24935170  0.43509413  0.58683528  1  0.125067  0  0.111866  0.12076  0  1.033848  0
H  H18  1  0.75065150  0.43509633  0.08683512  1  0.125322  0  0.111866  0.12076  0  1.033816  0
H  H19  1  0.75064814  0.56490544  0.41316470  1  0.12504  0  0.111853  0.120755  0  1.03385  0
H  H20  1  0.53224778  0.73216383  0.05478883  1  0.12508  0  0.119769  0.101615  0  0.993676  0
H  H21  1  0.53224909  0.26783462  0.44521048  1  0.125034  0  0.119791  0.101641  0  0.993636  0
H  H22  1  0.46775626  0.26783573  0.94521152  1  0.124817  0  0.119732  0.101565  0  0.993727  0
H  H23  1  0.46775075  0.73216339  0.55478829  1  0.125082  0  0.119779  0.101659  0  0.993694  0
H  H24  1  0.39262517  0.57196988  0.06763714  1  0.117313  0  0.11748  0.131419  0  0.970732  0
H  H25  1  0.39262363  0.42803079  0.43236270  1  0.11722  0  0.117464  0.131386  0  0.970762  0
H  H26  1  0.60737571  0.42803047  0.93236288  1  0.117306  0  0.117473  0.131402  0  0.97075  0
H  H27  1  0.60737410  0.57196878  0.56763728  1  0.117296  0  0.117463  0.131399  0  0.970749  0
H  H28  1  0.26811908  0.84678435  0.85737442  1  0.0921  0  0.110541  0.117545  0  0.994622  0
H  H29  1  0.26811341  0.15321303  0.64262534  1  0.092133  0  0.110555  0.117586  0  0.99462  0
H  H30  1  0.73188181  0.15321288  0.14262505  1  0.092124  0  0.110543  0.117577  0  0.99462  0
H  H31  1  0.73188432  0.84678654  0.35737276  1  0.092097  0  0.110567  0.117585  0  0.994641  0
H  H32  1  0.78002296  0.19952778  0.87374624  1  0.122008  0  0.120155  0.133211  0  0.98229  0
H  H33  1  0.78002059  0.80047085  0.62625271  1  0.122012  0  0.120149  0.133159  0  0.982363  0
H  H34  1  0.21997897  0.80047179  0.12625148  1  0.122071  0  0.120163  0.133179  0  0.982388  0
H  H35  1  0.21998030  0.19953028  0.37374849  1  0.122028  0  0.120163  0.133172  0  0.982363  0
H  H36  1  0.24461019  0.42366563  0.03119304  1  0.131664  0  0.117984  0.094925  0  1.003389  0
H  H37  1  0.24461095  0.57633490  0.46880796  1  0.131684  0  0.117968  0.094889  0  1.00347  0
H  H38  1  0.75539175  0.57633472  0.96880773  1  0.131679  0  0.117959  0.09489  0  1.003444  0
H  H39  1  0.75538783  0.42366545  0.53119131  1  0.131715  0  0.117981  0.094915  0  1.003472  0
H  H40  1  0.10683479  0.48208920  0.85476211  1  0.135877  0  0.107584  0.115381  0  1.024168  0
H  H41  1  0.10683398  0.51791350  0.64523800  1  0.135847  0  0.10761  0.115426  0  1.024195  0
H  H42  1  0.89316399  0.51790958  0.14523857  1  0.135869  0  0.107568  0.115378  0  1.024214  0
H  H43  1  0.89316375  0.48208685  0.35476240  1  0.135837  0  0.107607  0.115419  0  1.024178  0
H  H44  1  0.08598451  0.83828769  0.78904592  1  0.130055  0  0.108604  0.112053  0  1.020707  0
H  H45  1  0.08598503  0.16171187  0.71095401  1  0.130071  0  0.108604  0.112055  0  1.020677  0
H  H46  1  0.91401427  0.16171110  0.21095364  1  0.130082  0  0.108606  0.11206  0  1.020663  0
H  H47  1  0.91401796  0.83828848  0.28904489  1  0.130051  0  0.108588  0.112028  0  1.020682  0
H  H48  1  0.95510660  0.66350886  0.73978568  1  0.088707  0  0.112875  0.121494  0  0.981862  0
H  H49  1  0.95510629  0.33649305  0.76021417  1  0.088446  0  0.112862  0.121452  0  0.981859  0
H  H50  1  0.04489744  0.33648914  0.26021495  1  0.08898  0  0.112872  0.121444  0  0.981856  0
H  H51  1  0.04489144  0.66350808  0.23978665  1  0.088459  0  0.112884  0.121459  0  0.981911  0
H  H52  1  0.20760988  0.17801163  0.88888852  1  0.101891  0  0.105872  0.113572  0  1.000903  0
H  H53  1  0.20760863  0.82198569  0.61111163  1  0.10189  0  0.10585  0.113577  0  1.000891  0
H  H54  1  0.79238785  0.82198715  0.11111217  1  0.101857  0  0.105848  0.113561  0  1.000912  0
H  H55  1  0.79239226  0.17801231  0.38888864  1  0.10189  0  0.105868  0.11356  0  1.000915  0
H  H56  1  0.96431069  0.58979878  0.91934600  1  0.052107  0  0.099179  0.092757  0  1.045283  0
H  H57  1  0.96431191  0.41020236  0.58065343  1  0.052077  0  0.099166  0.092724  0  1.045279  0
H  H58  1  0.03568704  0.41020079  0.08065360  1  0.052095  0  0.099178  0.092732  0  1.0453  0
H  H59  1  0.03568582  0.58979721  0.41934768  1  0.05203  0  0.099142  0.092696  0  1.045303  0
H  H60  1  0.80122757  0.76516679  0.80394895  1  0.158183  0  0.110031  0.12672  0  1.00189  0
H  H61  1  0.80122825  0.23483419  0.69605089  1  0.158213  0  0.110044  0.126747  0  1.001867  0
H  H62  1  0.19877647  0.23483512  0.19605042  1  0.15815  0  0.110043  0.126734  0  1.001903  0
H  H63  1  0.19876948  0.76516537  0.30395022  1  0.158273  0  0.11006  0.126772  0  1.001878  0
H  H64  1  0.39604772  0.72438141  0.90692160  1  0.114748  0  0.123744  0.101949  0  0.984893  0
H  H65  1  0.39604552  0.27561687  0.59307780  1  0.114709  0  0.12376  0.102003  0  0.98486  0
H  H66  1  0.60395843  0.27561894  0.09307918  1  0.114779  0  0.123729  0.101982  0  0.984881  0
H  H67  1  0.60395221  0.72438192  0.40692176  1  0.114659  0  0.123745  0.101942  0  0.984882  0
H  H68  1  0.02691086  0.17168406  0.81972619  1  0.113555  0  0.111624  0.118678  0  1.002502  0
H  H69  1  0.02691369  0.82831544  0.68027488  1  0.113541  0  0.11162  0.118653  0  1.002551  0
H  H70  1  0.97308687  0.82831473  0.18027412  1  0.113559  0  0.111596  0.118586  0  1.002536  0
H  H71  1  0.97309035  0.17168568  0.31972632  1  0.113532  0  0.111629  0.118663  0  1.002494  0
H  H72  1  0.09400073  0.30161404  0.00026650  1  0.526883  0  0.310687  0.266414  0  1.017822  0
H  H73  1  0.09400165  0.69838558  0.49973336  1  0.526888  0  0.310677  0.266395  0  1.017835  0
H  H74  1  0.90600016  0.69838787  0.99973324  1  0.526873  0  0.310666  0.26632  0  1.017875  0
H  H75  1  0.90599714  0.30161321  0.50026732  1  0.526877  0  0.310675  0.266361  0  1.017901  0
C  C76  1  0.91365488  0.15386617  0.98733191  1  -0.004435  0  -0.079193  -0.151143  0  3.916308  0
C  C77  1  0.91365386  0.84613413  0.51266786  1  -0.004444  0  -0.079229  -0.151238  0  3.916421  0
C  C78  1  0.08633759  0.84613418  0.01266662  1  -0.004518  0  -0.079257  -0.151223  0  3.916418  0
C  C79  1  0.08634071  0.15386465  0.48733207  1  -0.004301  0  -0.079254  -0.151281  0  3.916455  0
C  C80  1  0.96585113  0.30369684  0.93443448  1  1.375081  0  0.239997  0.429206  0  4.135644  0
C  C81  1  0.96584869  0.69630195  0.56556556  1  1.375139  0  0.239952  0.429183  0  4.135673  0
C  C82  1  0.03414344  0.69630818  0.06556582  1  1.375172  0  0.240076  0.429254  0  4.136021  0
C  C83  1  0.03415219  0.30369840  0.43443334  1  1.375142  0  0.23994  0.429156  0  4.13592  0
C  C84  1  0.72454444  0.07165233  0.91550564  1  0.491702  0  0.054851  0.102721  0  3.92621  0
C  C85  1  0.72454448  0.92834702  0.58449375  1  0.491702  0  0.054844  0.102669  0  3.926232  0
C  C86  1  0.27545645  0.92834646  0.08449242  1  0.490936  0  0.054838  0.102644  0  3.926162  0
C  C87  1  0.27545641  0.07165254  0.41550698  1  0.491729  0  0.054773  0.102621  0  3.926309  0
C  C88  1  0.30847912  0.55565474  0.99119026  1  -0.050433  0  0.006187  0.110468  0  4.044872  0
C  C89  1  0.30847844  0.44434424  0.50880958  1  -0.050429  0  0.006209  0.110528  0  4.044917  0
C  C90  1  0.69152282  0.44434561  0.00880977  1  -0.050446  0  0.006201  0.110496  0  4.044903  0
C  C91  1  0.69152560  0.55565611  0.49119082  1  -0.050401  0  0.006219  0.110529  0  4.04475  0
C  C92  1  0.83666005  0.06395073  0.99206030  1  0.466499  0  0.047609  0.101587  0  3.953438  0
C  C93  1  0.83666236  0.93604872  0.50793906  1  0.466197  0  0.04767  0.10163  0  3.953314  0
C  C94  1  0.16333453  0.93604727  0.00793884  1  0.466153  0  0.047744  0.101655  0  3.95343  0
C  C95  1  0.16333643  0.06395084  0.49206092  1  0.466219  0  0.047707  0.10165  0  3.953304  0
C  C96  1  0.89278432  0.20491341  0.94437993  1  -0.016408  0  0.007513  0.019286  0  3.963108  0
C  C97  1  0.89278313  0.79508532  0.55561937  1  -0.016398  0  0.007527  0.01932  0  3.963032  0
C  C98  1  0.10721130  0.79508850  0.05561981  1  -0.016613  0  0.007559  0.019312  0  3.963209  0
C  C99  1  0.10721460  0.20491268  0.44438051  1  -0.016575  0  0.007529  0.019301  0  3.963092  0
C  C100  1  0.30997154  0.60000906  0.94542024  1  0.012173  0  -0.076359  -0.163737  0  3.922643  0
C  C101  1  0.30997069  0.39999069  0.55457927  1  0.011759  0  -0.076381  -0.163766  0  3.922809  0
C  C102  1  0.69002619  0.39999362  0.05458030  1  0.011859  0  -0.076396  -0.163744  0  3.922831  0
C  C103  1  0.69003230  0.60001199  0.44542089  1  0.011737  0  -0.076424  -0.163872  0  3.922644  0
C  C104  1  0.04631112  0.00450590  0.80139188  1  -0.263105  0  -0.018302  -0.073172  0  3.975394  0
C  C105  1  0.04631211  0.99549361  0.69860843  1  -0.263105  0  -0.018324  -0.073225  0  3.975658  0
C  C106  1  0.95368766  0.99549210  0.19860800  1  -0.2631  0  -0.018348  -0.073293  0  3.975681  0
C  C107  1  0.95369088  0.00450673  0.30139122  1  -0.263118  0  -0.018284  -0.073186  0  3.97572  0
C  C108  1  0.46797103  0.69186670  0.02462731  1  0.446796  0  0.047781  0.092674  0  3.960615  0
C  C109  1  0.46797024  0.30813169  0.47537201  1  0.446775  0  0.047863  0.092794  0  3.960635  0
C  C110  1  0.53203406  0.30813286  0.97537267  1  0.447108  0  0.047931  0.092817  0  3.960599  0
C  C111  1  0.53202959  0.69186553  0.52462783  1  0.446789  0  0.047893  0.092751  0  3.960677  0
C  C112  1  0.39034098  0.60328282  0.03137470  1  -0.027354  0  -0.080152  -0.176778  0  3.94463  0
C  C113  1  0.39034037  0.39671629  0.46862430  1  -0.027261  0  -0.080143  -0.176791  0  3.944529  0
C  C114  1  0.60966201  0.39671675  0.96862490  1  -0.027357  0  -0.080181  -0.176801  0  3.944631  0
C  C115  1  0.60966262  0.60328406  0.53137535  1  -0.027357  0  -0.080193  -0.176834  0  3.944708  0
C  C116  1  0.21369562  0.91693882  0.84899815  1  -0.035724  0  -0.075258  -0.073849  0  3.931116  0
C  C117  1  0.21369822  0.08305851  0.65100312  1  -0.035856  0  -0.075255  -0.073925  0  3.931082  0
C  C118  1  0.78630316  0.08305840  0.15100282  1  -0.035535  0  -0.075235  -0.073852  0  3.931313  0
C  C119  1  0.78630687  0.91693950  0.34899639  1  -0.035574  0  -0.075288  -0.073957  0  3.931167  0
C  C120  1  0.79680775  0.16187510  0.90775688  1  -0.025754  0  -0.066543  -0.13334  0  3.929305  0
C  C121  1  0.79680446  0.83812354  0.59224282  1  -0.025759  0  -0.066566  -0.133269  0  3.929278  0
C  C122  1  0.20319103  0.83812369  0.09224155  1  -0.025482  0  -0.066584  -0.133263  0  3.929397  0
C  C123  1  0.20319432  0.16187602  0.40775716  1  -0.025565  0  -0.066533  -0.133256  0  3.929289  0
C  C124  1  0.22705985  0.46249763  0.99720973  1  0.555257  0  0.057622  -0.009811  0  3.92509  0
C  C125  1  0.22706040  0.53750205  0.50279092  1  0.555462  0  0.057647  -0.009794  0  3.925272  0
C  C126  1  0.77293998  0.53750350  0.00279071  1  0.55523  0  0.057678  -0.009769  0  3.925134  0
C  C127  1  0.77294364  0.46249752  0.49720793  1  0.555276  0  0.057656  -0.009823  0  3.925319  0
C  C128  1  0.78606850  0.75051418  0.90380664  1  1.53664  0  0.19441  0.560041  0  4.217667  0
C  C129  1  0.78606940  0.24948601  0.59619315  1  1.536532  0  0.194411  0.560025  0  4.217682  0
C  C130  1  0.21393449  0.24948694  0.09619306  1  1.536473  0  0.194348  0.559941  0  4.217877  0
C  C131  1  0.21393043  0.75051356  0.40380720  1  1.536548  0  0.194433  0.56005  0  4.217764  0
C  C132  1  0.24679124  0.01273352  0.87713911  1  -0.044907  0  -0.014557  -0.030029  0  3.958099  0
C  C133  1  0.24679762  0.98726227  0.62286244  1  -0.044844  0  -0.014567  -0.029927  0  3.95799  0
C  C134  1  0.75320754  0.98726604  0.12286087  1  -0.045095  0  -0.014553  -0.029996  0  3.958106  0
C  C135  1  0.75321168  0.01273417  0.37713923  1  -0.045118  0  -0.014532  -0.029921  0  3.957945  0
C  C136  1  0.87500719  0.68546376  0.86576105  1  -0.069579  0  -0.014098  -0.025875  0  3.959126  0
C  C137  1  0.87500813  0.31453807  0.63423845  1  -0.069263  0  -0.014076  -0.025804  0  3.959149  0
C  C138  1  0.12499580  0.31453815  0.13423907  1  -0.069194  0  -0.014067  -0.02577  0  3.95902  0
C  C139  1  0.12498855  0.68546227  0.36576195  1  -0.069258  0  -0.014066  -0.025841  0  3.959183  0
C  C140  1  0.04379699  0.54662131  0.84434414  1  0.049441  0  -0.080747  -0.088365  0  3.981199  0
C  C141  1  0.04379920  0.45337899  0.65565547  1  0.049463  0  -0.080753  -0.088443  0  3.981296  0
C  C142  1  0.95620074  0.45337591  0.15565608  1  0.049528  0  -0.080807  -0.088577  0  3.981411  0
C  C143  1  0.95620064  0.54662136  0.34434455  1  0.049494  0  -0.080742  -0.088454  0  3.98126  0
C  C144  1  0.11288134  0.91228528  0.81100039  1  -0.024792  0  -0.077711  -0.083592  0  3.968986  0
C  C145  1  0.11288177  0.08771351  0.68900024  1  -0.024761  0  -0.077714  -0.083586  0  3.969194  0
C  C146  1  0.88711639  0.08771350  0.18899992  1  -0.024797  0  -0.077747  -0.083626  0  3.969189  0
C  C147  1  0.88712016  0.91228762  0.31099833  1  -0.024637  0  -0.077711  -0.083558  0  3.969204  0
C  C148  1  0.04274328  0.56971435  0.79451082  1  -0.25703  0  -0.019397  -0.073345  0  3.978046  0
C  C149  1  0.04274324  0.43028829  0.70548893  1  -0.257079  0  -0.019464  -0.073511  0  3.978083  0
C  C150  1  0.95725761  0.43028521  0.20548991  1  -0.25716  0  -0.019376  -0.07319  0  3.977956  0
C  C151  1  0.95725449  0.56971362  0.29451194  1  -0.25709  0  -0.019469  -0.073452  0  3.978024  0
C  C152  1  0.95563134  0.64757194  0.77912906  1  0.026005  0  -0.078823  -0.091108  0  3.974837  0
C  C153  1  0.95563008  0.35243075  0.72087083  1  0.026564  0  -0.078743  -0.090891  0  3.974557  0
C  C154  1  0.04437270  0.35242763  0.22087129  1  0.025819  0  -0.07882  -0.091042  0  3.974802  0
C  C155  1  0.04436765  0.64757038  0.27912924  1  0.026254  0  -0.078756  -0.09091  0  3.974585  0
C  C156  1  0.17974340  0.10442939  0.86669098  1  -0.038875  0  -0.081035  -0.082467  0  3.946435  0
C  C157  1  0.17974749  0.89556947  0.63331039  1  -0.039212  0  -0.080964  -0.082445  0  3.94645  0
C  C158  1  0.82025223  0.89556862  0.13331003  1  -0.03924  0  -0.080972  -0.082447  0  3.946357  0
C  C159  1  0.82025655  0.10442931  0.36669105  1  -0.038866  0  -0.080979  -0.082437  0  3.946453  0
C  C160  1  0.96164788  0.60646017  0.88019698  1  -0.015875  0  -0.082786  -0.086913  0  3.962533  0
C  C161  1  0.96164795  0.39354174  0.61980287  1  -0.015875  0  -0.082778  -0.086816  0  3.962587  0
C  C162  1  0.03834985  0.39354017  0.11980304  1  -0.015913  0  -0.082753  -0.086798  0  3.962502  0
C  C163  1  0.03834978  0.60645860  0.38019828  1  -0.015915  0  -0.082795  -0.086823  0  3.962594  0
C  C164  1  0.87003490  0.70420031  0.81483612  1  -0.049687  0  -0.074195  -0.078553  0  3.928983  0
C  C165  1  0.87003571  0.29580074  0.68516332  1  -0.050257  0  -0.074268  -0.078719  0  3.929038  0
C  C166  1  0.12996599  0.29580160  0.18516362  1  -0.050035  0  -0.074218  -0.07863  0  3.929057  0
C  C167  1  0.12996097  0.70420038  0.31483750  1  -0.049973  0  -0.074235  -0.078671  0  3.929032  0
C  C168  1  0.39083551  0.68798164  0.94178880  1  0.459172  0  0.04531  0.090522  0  3.956144  0
C  C169  1  0.39083344  0.31201663  0.55821061  1  0.459662  0  0.045326  0.090452  0  3.956001  0
C  C170  1  0.60916748  0.31202105  0.05821137  1  0.459123  0  0.04533  0.090398  0  3.956329  0
C  C171  1  0.60916639  0.68798138  0.44178890  1  0.459674  0  0.045334  0.090576  0  3.956055  0
C  C172  1  0.35122014  0.01612125  0.91967795  1  1.582238  0  0.205102  0.567619  0  4.261275  0
C  C173  1  0.35122450  0.98388010  0.58032352  1  1.582183  0  0.205174  0.567691  0  4.261072  0
C  C174  1  0.64877969  0.98387754  0.08032198  1  1.582213  0  0.205047  0.567435  0  4.261349  0
C  C175  1  0.64878165  0.01611556  0.41967698  1  1.581837  0  0.205148  0.567666  0  4.261015  0
C  C176  1  0.07947810  0.10096252  0.82842225  1  0.049956  0  -0.079033  -0.090748  0  3.979546  0
C  C177  1  0.07948213  0.89903546  0.67157871  1  0.05032  0  -0.079044  -0.090763  0  3.979619  0
C  C178  1  0.92051647  0.89903704  0.17157848  1  0.0503  0  -0.079008  -0.090609  0  3.979633  0
C  C179  1  0.92052297  0.10096488  0.32842169  1  0.049931  0  -0.07909  -0.090756  0  3.979591  0
S  S180  1  0.92561666  0.99999701  0.74999973  1  2.497134  0  0.470407  0.954917  0  5.78442  0
S  S181  1  0.07438528  0.00000490  0.24999964  1  2.497139  0  0.470391  0.954927  0  5.784272  0
S  S182  1  0.15882379  0.50000098  0.74999965  1  2.491183  0  0.462387  0.959482  0  5.7863  0
S  S183  1  0.84117709  0.49999858  0.25000070  1  2.491215  0  0.462371  0.959387  0  5.786352  0
N  N184  1  0.06659927  0.34039630  0.96952607  1  -0.811632  0  -0.283539  -0.235932  0  3.637638  0
N  N185  1  0.06659999  0.65960324  0.53047387  1  -0.811602  0  -0.283521  -0.235888  0  3.637587  0
N  N186  1  0.93339635  0.65960639  0.03047372  1  -0.811639  0  -0.283569  -0.235836  0  3.637654  0
N  N187  1  0.93340090  0.34039398  0.46952673  1  -0.811597  0  -0.283573  -0.235948  0  3.637558  0
N  N188  1  0.13723458  0.42813949  0.96255870  1  -0.704687  0  -0.190142  -0.083424  0  3.342008  0
N  N189  1  0.13723617  0.57185933  0.53744117  1  -0.704948  0  -0.190143  -0.083412  0  3.342162  0
N  N190  1  0.86276420  0.57186164  0.03744137  1  -0.704719  0  -0.190093  -0.083344  0  3.342052  0
N  N191  1  0.86276681  0.42813945  0.46255913  1  -0.704824  0  -0.19008  -0.083299  0  3.342118  0
N  N192  1  0.74290043  0.02390784  0.95733429  1  -1.227487  0  -0.324268  -0.239772  0  3.514494  0
N  N193  1  0.74290063  0.97609231  0.54266514  1  -1.227504  0  -0.324307  -0.239819  0  3.514417  0
N  N194  1  0.25709520  0.97609017  0.04266297  1  -1.226783  0  -0.324362  -0.239815  0  3.514584  0
N  N195  1  0.25709815  0.02390803  0.45733526  1  -1.227525  0  -0.324306  -0.239782  0  3.514529  0
N  N196  1  0.46857380  0.73360344  0.98068440  1  -1.218337  0  -0.334614  -0.240946  0  3.509242  0
N  N197  1  0.46857278  0.26639491  0.51931424  1  -1.218341  0  -0.334769  -0.241095  0  3.509357  0
N  N198  1  0.53143129  0.26639613  0.01931596  1  -1.218286  0  -0.334722  -0.240978  0  3.509327  0
N  N199  1  0.53142705  0.73360310  0.48068490  1  -1.218285  0  -0.334731  -0.241036  0  3.509285  0
O  O200  1  0.81502233  0.75369261  0.95121279  1  -1.204139  0  -0.338239  -0.601517  0  2.253247  0
O  O201  1  0.81502333  0.24630683  0.54878620  1  -1.204058  0  -0.338288  -0.601579  0  2.253224  0
O  O202  1  0.18498171  0.24630930  0.04878620  1  -1.204052  0  -0.338245  -0.601529  0  2.253275  0
O  O203  1  0.18497756  0.75369117  0.45121444  1  -1.204088  0  -0.338303  -0.60161  0  2.253289  0
O  O204  1  0.41373614  0.93155330  0.92537892  1  -1.175945  0  -0.326792  -0.566989  0  2.354382  0
O  O205  1  0.41374096  0.06844421  0.57462193  1  -1.175934  0  -0.32679  -0.566961  0  2.354476  0
O  O206  1  0.58626370  0.06844549  0.07462063  1  -1.175901  0  -0.326776  -0.56692  0  2.354429  0
O  O207  1  0.58626413  0.93155068  0.42537665  1  -1.175905  0  -0.326825  -0.566998  0  2.354442  0
O  O208  1  0.36525385  0.10308548  0.94749219  1  -1.180351  0  -0.33517  -0.576994  0  2.329057  0
O  O209  1  0.36525179  0.89691355  0.55250689  1  -1.180286  0  -0.335268  -0.577168  0  2.328831  0
O  O210  1  0.63474599  0.89691330  0.05250737  1  -1.180357  0  -0.33514  -0.576908  0  2.328955  0
O  O211  1  0.63474384  0.10308446  0.44749262  1  -1.179873  0  -0.335228  -0.577101  0  2.328823  0
O  O212  1  0.68412054  0.80111889  0.88792473  1  -1.145932  0  -0.327593  -0.530564  0  2.171819  0
O  O213  1  0.68412237  0.19888121  0.61207471  1  -1.14591  0  -0.32754  -0.530518  0  2.171874  0
O  O214  1  0.31588140  0.19888302  0.11207463  1  -1.145854  0  -0.327552  -0.530548  0  2.171979  0
O  O215  1  0.31587641  0.80111679  0.38792556  1  -1.145872  0  -0.327562  -0.530513  0  2.171938  0
O  O216  1  0.84999112  0.90168637  0.74547054  1  -1.298101  0  -0.316819  -0.517864  0  2.145828  0
O  O217  1  0.84998934  0.09831388  0.75452886  1  -1.297996  0  -0.316837  -0.517907  0  2.145504  0
O  O218  1  0.15000871  0.09831476  0.25452803  1  -1.298147  0  -0.316771  -0.517815  0  2.145829  0
O  O219  1  0.15001260  0.90168569  0.24547112  1  -1.29799  0  -0.316844  -0.517925  0  2.145344  0
O  O220  1  0.93577834  0.34783409  0.89727374  1  -1.108568  0  -0.276933  -0.448239  0  2.114163  0
O  O221  1  0.93577470  0.65216702  0.60272569  1  -1.108617  0  -0.276872  -0.448204  0  2.114251  0
O  O222  1  0.06421623  0.65217406  0.10272712  1  -1.108571  0  -0.276998  -0.448333  0  2.114465  0
O  O223  1  0.06422303  0.34783332  0.39727621  1  -1.108613  0  -0.276854  -0.448142  0  2.114526  0
O  O224  1  0.23466809  0.57563317  0.72414156  1  -1.294556  0  -0.334414  -0.52588  0  2.094685  0
O  O225  1  0.23466475  0.42436652  0.77585872  1  -1.29449  0  -0.334404  -0.525849  0  2.094619  0
O  O226  1  0.76533279  0.42436484  0.27585871  1  -1.29456  0  -0.33438  -0.525839  0  2.094701  0
O  O227  1  0.76533613  0.57563226  0.22414159  1  -1.294511  0  -0.334413  -0.525853  0  2.094635  0
