# generated using pymatgen
data_DyH7(C3O4)2
_symmetry_space_group_name_H-M   'P 1'
_cell_length_a   9.47746156
_cell_length_b   14.45210622
_cell_length_c   14.56058628
_cell_angle_alpha   89.99997187
_cell_angle_beta   91.21017870
_cell_angle_gamma   89.99995174
_symmetry_Int_Tables_number   1
_chemical_formula_structural   DyH7(C3O4)2
_chemical_formula_sum   'Dy8 H56 C48 O64'
_cell_volume   1993.90819126
_cell_formula_units_Z   8
loop_
 _symmetry_equiv_pos_site_id
 _symmetry_equiv_pos_as_xyz
  1  'x, y, z'
loop_
 _atom_site_type_symbol
 _atom_site_label
 _atom_site_symmetry_multiplicity
 _atom_site_fract_x
 _atom_site_fract_y
 _atom_site_fract_z
 _atom_site_occupancy
 _atom_site_pbe_bader_charge
 _atom_site_pbe_bader_spin_density
 _atom_site_pbe_cm5_charge
 _atom_site_pbe_ddec_charge
 _atom_site_pbe_ddec_spin_density
 _atom_site_pbe_ddec_sum_bond_order
 _atom_site_pbe_magmom
Dy  Dy0  1  0.80487677  0.35172060  0.90704712  1  2.192899  0  1.508333  2.103755  0  2.071962  0
Dy  Dy1  1  0.69512435  0.85172119  0.59295295  1  2.192982  0  1.508347  2.103732  0  2.072065  0
Dy  Dy2  1  0.19512702  0.64828052  0.09295406  1  2.192821  0  1.508323  2.103745  0  2.071975  0
Dy  Dy3  1  0.30487416  0.14827993  0.40704611  1  2.192825  0  1.508309  2.103763  0  2.071937  0
Dy  Dy4  1  0.01811119  0.16473774  0.74483818  1  2.170966  0  1.490145  2.050701  0  2.079475  0
Dy  Dy5  1  0.48188870  0.66473739  0.75516125  1  2.170935  0  1.490143  2.050671  0  2.079494  0
Dy  Dy6  1  0.98188944  0.83526200  0.25516296  1  2.170968  0  1.490124  2.050671  0  2.079493  0
Dy  Dy7  1  0.51810980  0.33526235  0.24483712  1  2.17096  0  1.490144  2.050663  0  2.079492  0
H  H8  1  0.84882491  0.38694596  0.70577097  1  0.630153  0  0.318379  0.411719  0  0.891784  0
H  H9  1  0.65117616  0.88694577  0.79422908  1  0.630152  0  0.318392  0.411733  0  0.891757  0
H  H10  1  0.15117782  0.61305447  0.29423020  1  0.630147  0  0.318389  0.411716  0  0.891779  0
H  H11  1  0.34882340  0.11305465  0.20576999  1  0.630146  0  0.318403  0.411745  0  0.891738  0
H  H12  1  0.72277773  0.45735164  0.72842331  1  0.654939  0  0.300481  0.415663  0  0.910805  0
H  H13  1  0.77722326  0.95735140  0.77157671  1  0.65494  0  0.300466  0.415607  0  0.910882  0
H  H14  1  0.27722501  0.54264810  0.27157786  1  0.654933  0  0.300484  0.415679  0  0.910781  0
H  H15  1  0.22277525  0.04264834  0.22842166  1  0.65493  0  0.30048  0.415681  0  0.910781  0
H  H16  1  0.76658091  0.56061889  0.88932659  1  0.672263  0  0.305693  0.414269  0  0.914023  0
H  H17  1  0.73341953  0.06061918  0.61067362  1  0.672264  0  0.305697  0.414302  0  0.913978  0
H  H18  1  0.23341971  0.43938154  0.11067318  1  0.672258  0  0.305698  0.414301  0  0.913981  0
H  H19  1  0.26658004  0.93938125  0.38932682  1  0.672265  0  0.305707  0.414316  0  0.913961  0
H  H20  1  0.85161662  0.53882340  0.98241439  1  0.634835  0  0.302267  0.406145  0  0.927157  0
H  H21  1  0.64838385  0.03882310  0.51758582  1  0.634858  0  0.302202  0.405979  0  0.927382  0
H  H22  1  0.14838295  0.46117841  0.01758605  1  0.634867  0  0.302219  0.40601  0  0.927326  0
H  H23  1  0.35161571  0.96117802  0.48241393  1  0.63487  0  0.302251  0.406108  0  0.927207  0
H  H24  1  0.30965415  0.30017667  0.99739965  1  0.105869  0  0.120636  0.146174  0  0.97363  0
H  H25  1  0.19034663  0.80017385  0.50260247  1  0.105969  0  0.120648  0.146201  0  0.973606  0
H  H26  1  0.69035282  0.69982583  0.00260431  1  0.105983  0  0.120611  0.14617  0  0.973573  0
H  H27  1  0.80964765  0.19982451  0.49739448  1  0.106031  0  0.120612  0.146122  0  0.973634  0
H  H28  1  0.02734418  0.26986848  0.56448385  1  0.664473  0  0.298861  0.409112  0  0.919627  0
H  H29  1  0.47265663  0.76986874  0.93551623  1  0.664477  0  0.29885  0.409081  0  0.919669  0
H  H30  1  0.97265433  0.73013195  0.43551658  1  0.664466  0  0.298912  0.409203  0  0.919517  0
H  H31  1  0.52734716  0.23013169  0.06448358  1  0.664465  0  0.298918  0.409204  0  0.919516  0
H  H32  1  0.07287461  0.33269596  0.64948814  1  0.619698  0  0.32751  0.411264  0  0.8777  0
H  H33  1  0.42712612  0.83269491  0.85051191  1  0.619709  0  0.327517  0.411259  0  0.877711  0
H  H34  1  0.92712602  0.66730447  0.35051232  1  0.619709  0  0.327528  0.411274  0  0.877679  0
H  H35  1  0.57287450  0.16730483  0.14948786  1  0.619704  0  0.32752  0.411262  0  0.877713  0
H  H36  1  0.99875416  0.00839143  0.61426840  1  0.652722  0  0.305011  0.406857  0  0.920944  0
H  H37  1  0.50124741  0.50839059  0.88573253  1  0.652717  0  0.305023  0.406862  0  0.920937  0
H  H38  1  0.00124646  0.99160900  0.38573205  1  0.652717  0  0.305009  0.406862  0  0.92094  0
H  H39  1  0.49875427  0.49160915  0.11426794  1  0.652728  0  0.305006  0.40686  0  0.920939  0
H  H40  1  0.12533697  0.07758436  0.58790893  1  0.63153  0  0.299873  0.382829  0  0.964779  0
H  H41  1  0.37466303  0.57758399  0.91209123  1  0.631529  0  0.299881  0.382819  0  0.964795  0
H  H42  1  0.87466154  0.92241676  0.41209150  1  0.631517  0  0.299864  0.382842  0  0.96477  0
H  H43  1  0.62533759  0.42241643  0.08790923  1  0.63152  0  0.299868  0.382838  0  0.964774  0
H  H44  1  0.49734625  0.19888763  0.79755392  1  0.115555  0  0.119586  0.142339  0  0.988791  0
H  H45  1  0.00265042  0.69888688  0.70244546  1  0.115562  0  0.119595  0.142367  0  0.988781  0
H  H46  1  0.50265015  0.80111487  0.20244717  1  0.115604  0  0.119599  0.142359  0  0.988806  0
H  H47  1  0.99734915  0.30111285  0.29755430  1  0.115578  0  0.119599  0.142357  0  0.988765  0
H  H48  1  0.13171256  0.06221234  0.04264094  1  0.123316  0  0.115286  0.135805  0  0.975947  0
H  H49  1  0.36828873  0.56221195  0.45735996  1  0.123291  0  0.115285  0.135786  0  0.975973  0
H  H50  1  0.86828701  0.93778671  0.95736019  1  0.123345  0  0.115292  0.135789  0  0.975957  0
H  H51  1  0.63171189  0.43778640  0.54263981  1  0.12336  0  0.115291  0.135781  0  0.976001  0
H  H52  1  0.31050424  0.39173362  0.80477188  1  0.155042  0  0.118069  0.14306  0  1.013156  0
H  H53  1  0.18949641  0.89173070  0.69522951  1  0.1551  0  0.118068  0.143055  0  1.013159  0
H  H54  1  0.68949850  0.60826681  0.19523135  1  0.155049  0  0.118047  0.143012  0  1.013176  0
H  H55  1  0.81049997  0.10826696  0.30476609  1  0.155038  0  0.118068  0.143014  0  1.013214  0
H  H56  1  0.54640989  0.15729442  0.59264327  1  0.123984  0  0.117839  0.123611  0  1.03942  0
H  H57  1  0.95359043  0.65729471  0.90735757  1  0.123979  0  0.117841  0.123597  0  1.039439  0
H  H58  1  0.45359073  0.84270531  0.40735856  1  0.12404  0  0.11785  0.123582  0  1.03945  0
H  H59  1  0.04641019  0.34270503  0.09264288  1  0.123993  0  0.117833  0.123564  0  1.039418  0
H  H60  1  0.85566665  0.13432617  0.12570836  1  0.104253  0  0.11352  0.130915  0  0.990987  0
H  H61  1  0.64433391  0.63432665  0.37429253  1  0.104254  0  0.113541  0.130942  0  0.990944  0
H  H62  1  0.14433397  0.86567564  0.87429210  1  0.104278  0  0.113531  0.130923  0  0.991005  0
H  H63  1  0.35566459  0.36567517  0.62570584  1  0.104244  0  0.113542  0.130934  0  0.990947  0
C  C64  1  0.50603822  0.33242246  0.92602115  1  1.512935  0  0.205079  0.615949  0  4.221079  0
C  C65  1  0.99396188  0.83242081  0.57397960  1  1.512889  0  0.2051  0.61603  0  4.221035  0
C  C66  1  0.49396557  0.66757866  0.07398003  1  1.513234  0  0.205093  0.616015  0  4.221103  0
C  C67  1  0.00603557  0.16757754  0.42601875  1  1.512879  0  0.205083  0.616044  0  4.221097  0
C  C68  1  0.71028074  0.18872436  0.73879572  1  1.573352  0  0.226245  0.67027  0  4.132993  0
C  C69  1  0.78971847  0.68872343  0.76120304  1  1.573333  0  0.226341  0.670387  0  4.132622  0
C  C70  1  0.28971777  0.81127745  0.26120609  1  1.573365  0  0.226293  0.670353  0  4.132851  0
C  C71  1  0.21028214  0.31127631  0.23879467  1  1.573359  0  0.226229  0.6703  0  4.132962  0
C  C72  1  0.00329178  0.16962555  0.97362469  1  1.571429  0  0.228271  0.681017  0  4.158729  0
C  C73  1  0.49670810  0.66962531  0.52637543  1  1.571424  0  0.228329  0.681065  0  4.158617  0
C  C74  1  0.99670990  0.83037280  0.02637647  1  1.571014  0  0.228255  0.680959  0  4.158797  0
C  C75  1  0.50329041  0.33037304  0.47362294  1  1.571543  0  0.228333  0.681013  0  4.158689  0
C  C76  1  0.35121978  0.33108705  0.93521910  1  0.030976  0  -0.074992  -0.173676  0  3.865836  0
C  C77  1  0.14878096  0.83108491  0.56478301  1  0.030923  0  -0.075014  -0.173789  0  3.865903  0
C  C78  1  0.64878403  0.66891407  0.06478483  1  0.030985  0  -0.075002  -0.173812  0  3.865728  0
C  C79  1  0.85121543  0.16891344  0.43521328  1  0.03097  0  -0.075058  -0.17386  0  3.865868  0
C  C80  1  0.55428214  0.18627770  0.73453638  1  0.000739  0  -0.069995  -0.17094  0  3.831789  0
C  C81  1  0.94571708  0.68627806  0.76546306  1  0.000789  0  -0.070002  -0.171007  0  3.831818  0
C  C82  1  0.44571638  0.81372480  0.26546543  1  0.000841  0  -0.069994  -0.17096  0  3.831687  0
C  C83  1  0.05428353  0.31372306  0.23453533  1  0.000827  0  -0.069992  -0.17098  0  3.831783  0
C  C84  1  0.03857473  0.10553131  0.05053853  1  -0.038849  0  -0.075179  -0.173828  0  3.857022  0
C  C85  1  0.46142545  0.60553088  0.44946233  1  -0.038848  0  -0.075187  -0.173822  0  3.857011  0
C  C86  1  0.96142695  0.89446705  0.94946331  1  -0.038826  0  -0.075166  -0.173747  0  3.857003  0
C  C87  1  0.53857306  0.39446609  0.55053741  1  -0.038856  0  -0.075196  -0.173771  0  3.857087  0
C  C88  1  0.26690974  0.36343809  0.86756417  1  -0.133175  0  -0.063128  -0.151328  0  3.839686  0
C  C89  1  0.23309306  0.86343517  0.63243795  1  -0.133231  0  -0.063114  -0.15122  0  3.83961  0
C  C90  1  0.73309617  0.63656303  0.13243910  1  -0.133252  0  -0.063057  -0.151136  0  3.839415  0
C  C91  1  0.76690333  0.13656249  0.36756040  1  -0.133317  0  -0.063028  -0.151013  0  3.839503  0
C  C92  1  0.48669771  0.16900206  0.65447591  1  -0.089223  0  -0.062454  -0.151941  0  3.857134  0
C  C93  1  0.01330005  0.66900193  0.84552349  1  -0.089278  0  -0.062445  -0.151906  0  3.85719  0
C  C94  1  0.51330186  0.83099837  0.34552591  1  -0.089401  0  -0.062487  -0.151892  0  3.857064  0
C  C95  1  0.98669740  0.33099781  0.15447555  1  -0.089321  0  -0.062482  -0.151873  0  3.857098  0
C  C96  1  0.95165873  0.09316191  0.12094570  1  -0.083372  0  -0.074637  -0.159821  0  3.883874  0
C  C97  1  0.54834083  0.59316174  0.37905519  1  -0.083351  0  -0.074666  -0.159842  0  3.883825  0
C  C98  1  0.04833979  0.90683714  0.87905473  1  -0.083474  0  -0.074661  -0.15986  0  3.883919  0
C  C99  1  0.45165978  0.40683661  0.62094458  1  -0.083468  0  -0.074678  -0.159882  0  3.883902  0
C  C100  1  0.11132447  0.36070635  0.87214324  1  1.591195  0  0.227921  0.667593  0  4.156013  0
C  C101  1  0.38867727  0.86070473  0.62785612  1  1.591199  0  0.22791  0.667577  0  4.155837  0
C  C102  1  0.88868037  0.63929339  0.12785727  1  1.591229  0  0.227923  0.66761  0  4.155739  0
C  C103  1  0.61132229  0.13929431  0.37214226  1  1.591196  0  0.227898  0.667532  0  4.155918  0
C  C104  1  0.33151027  0.15908867  0.64244632  1  1.576553  0  0.242641  0.693  0  4.106982  0
C  C105  1  0.16848856  0.65908914  0.85755241  1  1.576867  0  0.242649  0.693027  0  4.106986  0
C  C106  1  0.66849140  0.84091037  0.35755277  1  1.576869  0  0.242653  0.692972  0  4.107131  0
C  C107  1  0.83150995  0.34091060  0.14244802  1  1.576852  0  0.242667  0.693031  0  4.107096  0
C  C108  1  0.96746931  0.01407722  0.18434035  1  1.545748  0  0.190889  0.609123  0  4.23241  0
C  C109  1  0.53253035  0.51407709  0.31565989  1  1.545749  0  0.190888  0.60908  0  4.232409  0
C  C110  1  0.03253131  0.98592252  0.81566010  1  1.545756  0  0.190873  0.609068  0  4.232472  0
C  C111  1  0.46746921  0.48592126  0.68433918  1  1.54574  0  0.190987  0.609249  0  4.232203  0
O  O112  1  0.58358282  0.27295358  0.96819168  1  -1.172764  0  -0.334868  -0.608414  0  2.214122  0
O  O113  1  0.91641524  0.77295339  0.53180908  1  -1.172848  0  -0.33491  -0.608468  0  2.214112  0
O  O114  1  0.41641992  0.72704754  0.03181086  1  -1.172724  0  -0.334899  -0.608432  0  2.214175  0
O  O115  1  0.08357904  0.22704635  0.46818993  1  -1.172687  0  -0.334866  -0.608434  0  2.214201  0
O  O116  1  0.56346874  0.39283994  0.87409358  1  -1.189243  0  -0.371397  -0.632944  0  2.2598  0
O  O117  1  0.93653339  0.89283969  0.62590649  1  -1.189186  0  -0.371397  -0.632951  0  2.259798  0
O  O118  1  0.43653294  0.60716118  0.12590689  1  -1.18959  0  -0.371398  -0.632937  0  2.259812  0
O  O119  1  0.06346617  0.10716005  0.37409190  1  -1.189242  0  -0.371417  -0.632965  0  2.259752  0
O  O120  1  0.80186589  0.41914680  0.75539648  1  -1.268903  0  -0.635656  -0.848774  0  2.045601  0
O  O121  1  0.69813514  0.91914523  0.74460356  1  -1.26889  0  -0.635652  -0.848729  0  2.045697  0
O  O122  1  0.19813790  0.58085501  0.24460539  1  -1.268883  0  -0.635659  -0.848774  0  2.045616  0
O  O123  1  0.30186231  0.08085450  0.25539548  1  -1.268878  0  -0.63567  -0.848809  0  2.045584  0
O  O124  1  0.79607916  0.50965052  0.93147752  1  -1.286582  0  -0.673277  -0.880013  0  2.122572  0
O  O125  1  0.70392029  0.00964947  0.56852270  1  -1.286586  0  -0.673227  -0.879888  0  2.122695  0
O  O126  1  0.20392146  0.49035129  0.06852294  1  -1.28658  0  -0.673239  -0.879928  0  2.122697  0
O  O127  1  0.29607927  0.99035096  0.43147774  1  -1.286601  0  -0.673279  -0.880039  0  2.122567  0
O  O128  1  0.77610803  0.22564628  0.80745031  1  -1.203394  0  -0.416886  -0.744873  0  2.388435  0
O  O129  1  0.72388797  0.72564611  0.69254770  1  -1.203431  0  -0.416946  -0.744912  0  2.388224  0
O  O130  1  0.22388943  0.77435761  0.19255080  1  -1.203218  0  -0.416899  -0.7449  0  2.388418  0
O  O131  1  0.27611158  0.27435778  0.30744931  1  -1.203246  0  -0.416869  -0.744841  0  2.388423  0
O  O132  1  0.04987799  0.39691837  0.94032443  1  -1.176669  0  -0.339183  -0.602645  0  2.261426  0
O  O133  1  0.45012369  0.89691883  0.55967354  1  -1.176708  0  -0.33917  -0.602674  0  2.261316  0
O  O134  1  0.95012579  0.60308068  0.05967400  1  -1.17671  0  -0.339175  -0.602675  0  2.261292  0
O  O135  1  0.54987587  0.10308160  0.44032553  1  -1.176673  0  -0.339145  -0.602625  0  2.261384  0
O  O136  1  0.03936925  0.32249465  0.80726697  1  -1.205465  0  -0.384356  -0.712057  0  2.351282  0
O  O137  1  0.46063148  0.82249435  0.69273171  1  -1.20547  0  -0.384344  -0.71205  0  2.35125  0
O  O138  1  0.96063348  0.67750439  0.19273283  1  -1.205505  0  -0.384351  -0.712072  0  2.351193  0
O  O139  1  0.53936596  0.17750470  0.30726665  1  -1.205513  0  -0.384353  -0.712074  0  2.351246  0
O  O140  1  0.78943375  0.38348920  0.06939867  1  -1.183767  0  -0.365454  -0.643113  0  2.283467  0
O  O141  1  0.71056859  0.88348891  0.43060005  1  -1.183769  0  -0.365434  -0.643071  0  2.283528  0
O  O142  1  0.21056687  0.61651054  0.93060178  1  -1.183821  0  -0.365447  -0.643127  0  2.283418  0
O  O143  1  0.28943202  0.11651082  0.56939766  1  -1.183545  0  -0.365454  -0.64311  0  2.283437  0
O  O144  1  0.90352413  0.22738228  0.98382010  1  -1.179622  0  -0.398752  -0.676595  0  2.335433  0
O  O145  1  0.59647504  0.72738227  0.51618070  1  -1.179608  0  -0.398769  -0.676616  0  2.335393  0
O  O146  1  0.09647755  0.77261677  0.01618105  1  -1.179145  0  -0.398724  -0.67653  0  2.335419  0
O  O147  1  0.40352346  0.27261678  0.48381836  1  -1.179647  0  -0.39876  -0.676593  0  2.335461  0
O  O148  1  0.00038001  0.28920406  0.62869173  1  -1.269537  0  -0.616027  -0.827409  0  2.022995  0
O  O149  1  0.49962076  0.78920364  0.87130765  1  -1.269547  0  -0.616022  -0.827377  0  2.023019  0
O  O150  1  0.99961955  0.71079637  0.37130871  1  -1.269545  0  -0.616086  -0.827494  0  2.022923  0
O  O151  1  0.50037985  0.21079609  0.12869143  1  -1.269544  0  -0.616089  -0.827489  0  2.022947  0
O  O152  1  0.02534960  0.07449971  0.60830257  1  -1.265536  0  -0.645205  -0.842288  0  2.111676  0
O  O153  1  0.47465040  0.57449999  0.89169759  1  -1.265511  0  -0.645218  -0.842285  0  2.111701  0
O  O154  1  0.97464891  0.92550072  0.39169717  1  -1.26551  0  -0.645178  -0.842312  0  2.111702  0
O  O155  1  0.52535233  0.42550113  0.10830289  1  -1.265506  0  -0.645194  -0.842314  0  2.111701  0
O  O156  1  0.78248123  0.15325133  0.67466727  1  -1.188549  0  -0.352329  -0.605133  0  2.2637  0
O  O157  1  0.71751381  0.65325040  0.82533145  1  -1.188563  0  -0.352419  -0.605218  0  2.263674  0
O  O158  1  0.21751730  0.84674772  0.32533659  1  -1.188695  0  -0.352376  -0.605209  0  2.263587  0
O  O159  1  0.28248257  0.34674726  0.17466483  1  -1.188649  0  -0.352338  -0.605195  0  2.26366  0
O  O160  1  0.91108327  0.02497307  0.80190126  1  -1.186224  0  -0.379604  -0.646262  0  2.236658  0
O  O161  1  0.58891616  0.52497228  0.69809826  1  -1.186208  0  -0.379625  -0.646333  0  2.236589  0
O  O162  1  0.08891630  0.97502805  0.19809987  1  -1.186222  0  -0.3796  -0.6463  0  2.236663  0
O  O163  1  0.41108340  0.47502815  0.30190150  1  -1.186238  0  -0.379594  -0.646268  0  2.236693  0
O  O164  1  0.14290711  0.01950004  0.78097921  1  -1.148306  0  -0.360132  -0.597306  0  2.180119  0
O  O165  1  0.35709190  0.51949909  0.71901959  1  -1.148264  0  -0.360191  -0.597392  0  2.179978  0
O  O166  1  0.85709140  0.98049970  0.21902053  1  -1.148325  0  -0.360145  -0.59733  0  2.180062  0
O  O167  1  0.64290872  0.48049996  0.28098086  1  -1.14831  0  -0.360144  -0.597319  0  2.180023  0
O  O168  1  0.24992623  0.18922892  0.70366885  1  -1.190227  0  -0.394149  -0.657069  0  2.250345  0
O  O169  1  0.25007256  0.68922868  0.79632987  1  -1.190232  0  -0.394163  -0.657072  0  2.25033  0
O  O170  1  0.75007227  0.81077012  0.29633021  1  -1.190287  0  -0.394193  -0.657103  0  2.250395  0
O  O171  1  0.74992805  0.31077036  0.20366852  1  -1.190255  0  -0.394151  -0.657079  0  2.250427  0
O  O172  1  0.07461593  0.15973979  0.90122234  1  -1.196284  0  -0.394849  -0.664676  0  2.286879  0
O  O173  1  0.42538397  0.65973956  0.59877847  1  -1.196301  0  -0.394877  -0.664672  0  2.28682  0
O  O174  1  0.92538365  0.84025994  0.09878017  1  -1.196286  0  -0.394876  -0.664693  0  2.286898  0
O  O175  1  0.57461664  0.34025880  0.40121924  1  -1.196312  0  -0.394895  -0.664669  0  2.286782  0
