# generated using pymatgen
data_Zn4H30C48O13
_symmetry_space_group_name_H-M   'P 1'
_cell_length_a   19.69689444
_cell_length_b   24.13057275
_cell_length_c   30.84321987
_cell_angle_alpha   89.99979253
_cell_angle_beta   89.99976817
_cell_angle_gamma   89.99967292
_symmetry_Int_Tables_number   1
_chemical_formula_structural   Zn4H30C48O13
_chemical_formula_sum   'Zn16 H120 C192 O52'
_cell_volume   14659.70048814
_cell_formula_units_Z   4
loop_
 _symmetry_equiv_pos_site_id
 _symmetry_equiv_pos_as_xyz
  1  'x, y, z'
loop_
 _atom_site_type_symbol
 _atom_site_label
 _atom_site_symmetry_multiplicity
 _atom_site_fract_x
 _atom_site_fract_y
 _atom_site_fract_z
 _atom_site_occupancy
 _atom_site_pbe_bader_charge
 _atom_site_pbe_bader_spin_density
 _atom_site_pbe_cm5_charge
 _atom_site_pbe_ddec_charge
 _atom_site_pbe_ddec_spin_density
 _atom_site_pbe_ddec_sum_bond_order
 _atom_site_pbe_magmom
Zn  Zn0  1  0.30345386  0.06741892  0.10736735  1  1.315106  0  0.66966  0.969345  0  2.347541  0
Zn  Zn1  1  0.69654735  0.06742077  0.89263149  1  1.315081  0  0.669648  0.969311  0  2.347646  0
Zn  Zn2  1  0.80345638  0.43258332  0.39263212  1  1.315301  0  0.669642  0.969341  0  2.347423  0
Zn  Zn3  1  0.19654632  0.43258051  0.60736600  1  1.314982  0  0.669662  0.969332  0  2.347616  0
Zn  Zn4  1  0.69654380  0.93258423  0.89263123  1  1.315458  0  0.669655  0.969322  0  2.347614  0
Zn  Zn5  1  0.30345234  0.93258280  0.10736839  1  1.314952  0  0.669654  0.969363  0  2.347525  0
Zn  Zn6  1  0.19654280  0.56741817  0.60736937  1  1.3152  0  0.669611  0.969286  0  2.34761  0
Zn  Zn7  1  0.80345540  0.56742264  0.39262999  1  1.315257  0  0.669673  0.969307  0  2.347617  0
Zn  Zn8  1  0.18587988  0.00000275  0.05826119  1  1.304032  0  0.663785  0.940047  0  2.432243  0
Zn  Zn9  1  0.81411520  0.00000134  0.94174044  1  1.303856  0  0.663744  0.939915  0  2.432406  0
Zn  Zn10  1  0.68588669  0.50000335  0.44174119  1  1.303855  0  0.663752  0.93987  0  2.432418  0
Zn  Zn11  1  0.31411756  0.50000021  0.55826258  1  1.303974  0  0.663808  0.94013  0  2.432188  0
Zn  Zn12  1  0.18786211  0.00000044  0.15907848  1  1.315846  0  0.668494  0.957603  0  2.411641  0
Zn  Zn13  1  0.81213349  0.00000034  0.84092218  1  1.315853  0  0.668483  0.957484  0  2.41176  0
Zn  Zn14  1  0.68787057  0.50000151  0.34092357  1  1.315894  0  0.668426  0.957349  0  2.411803  0
Zn  Zn15  1  0.31213622  0.49999999  0.65907825  1  1.315826  0  0.668483  0.95766  0  2.411675  0
H  H16  1  0.33937262  0.18387050  0.00840957  1  0.087326  0  0.108546  0.114007  0  0.989996  0
H  H17  1  0.66062929  0.18387496  0.99158991  1  0.087329  0  0.108576  0.114056  0  0.989986  0
H  H18  1  0.83937331  0.31613613  0.49159078  1  0.087303  0  0.108532  0.113994  0  0.989967  0
H  H19  1  0.16063174  0.31613476  0.50840573  1  0.087521  0  0.108523  0.114057  0  0.989977  0
H  H20  1  0.66062148  0.81613803  0.99159160  1  0.087219  0  0.108524  0.113943  0  0.989974  0
H  H21  1  0.33937649  0.81613647  0.00840835  1  0.08784  0  0.108523  0.113971  0  0.989929  0
H  H22  1  0.16061826  0.68386578  0.50841039  1  0.087719  0  0.108571  0.114068  0  0.989986  0
H  H23  1  0.83937709  0.68387129  0.49159091  1  0.087932  0  0.108555  0.114047  0  0.989991  0
H  H24  1  0.34711483  0.24565137  0.94379496  1  0.057696  0  0.10165  0.099291  0  0.998004  0
H  H25  1  0.65288970  0.24565436  0.05620468  1  0.057706  0  0.101642  0.099314  0  0.998088  0
H  H26  1  0.84711312  0.25435169  0.55620312  1  0.057811  0  0.10163  0.099319  0  0.99802  0
H  H27  1  0.15289084  0.25435148  0.44379390  1  0.057923  0  0.101656  0.099366  0  0.998006  0
H  H28  1  0.65288385  0.75435136  0.05620362  1  0.05787  0  0.101669  0.099371  0  0.997973  0
H  H29  1  0.34711456  0.75435169  0.94379585  1  0.057934  0  0.101671  0.099355  0  0.997931  0
H  H30  1  0.15288200  0.74564732  0.44379481  1  0.05799  0  0.10168  0.099342  0  0.997991  0
H  H31  1  0.84711494  0.74565126  0.55620631  1  0.057667  0  0.10167  0.099334  0  0.997974  0
H  H32  1  0.17093370  0.16521246  0.88900627  1  0.045893  0  0.103098  0.102751  0  1.001111  0
H  H33  1  0.82907291  0.16521396  0.11099067  1  0.045835  0  0.103139  0.102827  0  1.000911  0
H  H34  1  0.67093311  0.33478852  0.61099323  1  0.04589  0  0.103061  0.102693  0  1.001113  0
H  H35  1  0.32907180  0.33478609  0.38900517  1  0.045773  0  0.103132  0.102809  0  1.001008  0
H  H36  1  0.82906446  0.83478821  0.11099328  1  0.045936  0  0.103084  0.102752  0  1.001083  0
H  H37  1  0.17093185  0.83479126  0.88900758  1  0.045808  0  0.103034  0.102652  0  1.001176  0
H  H38  1  0.32906911  0.66521422  0.38901248  1  0.045942  0  0.103065  0.10278  0  1.001085  0
H  H39  1  0.67093144  0.66521167  0.61098919  1  0.045929  0  0.103064  0.102771  0  1.001068  0
H  H40  1  0.16451037  0.10432981  0.95297310  1  0.11078  0  0.103686  0.105795  0  1.02406  0
H  H41  1  0.83549312  0.10433158  0.04702434  1  0.110791  0  0.103695  0.105826  0  1.02406  0
H  H42  1  0.66451229  0.39567534  0.54702901  1  0.110639  0  0.103647  0.105809  0  1.024014  0
H  H43  1  0.33549321  0.39567135  0.45296857  1  0.11067  0  0.103672  0.105757  0  1.024057  0
H  H44  1  0.83548374  0.89567707  0.04703034  1  0.11063  0  0.103648  0.105822  0  1.024024  0
H  H45  1  0.16451215  0.89567820  0.95297197  1  0.110713  0  0.103657  0.105823  0  1.024164  0
H  H46  1  0.33549044  0.60432698  0.45297573  1  0.110745  0  0.103626  0.105762  0  1.024163  0
H  H47  1  0.66450953  0.60433015  0.54702223  1  0.110888  0  0.10365  0.105752  0  1.024113  0
H  H48  1  0.30910030  0.27682369  0.87739139  1  0.017416  0  0.100313  0.094789  0  1.011898  0
H  H49  1  0.69090299  0.27682371  0.12260653  1  0.01725  0  0.100354  0.094799  0  1.011969  0
H  H50  1  0.80909687  0.22317499  0.62260614  1  0.017239  0  0.10034  0.094813  0  1.011946  0
H  H51  1  0.19090679  0.22317657  0.37739356  1  0.017371  0  0.100368  0.094818  0  1.011945  0
H  H52  1  0.69090446  0.72317490  0.12260622  1  0.017241  0  0.100362  0.094844  0  1.011946  0
H  H53  1  0.30909721  0.72317613  0.87739334  1  0.01726  0  0.100357  0.094805  0  1.011912  0
H  H54  1  0.19090180  0.77682194  0.37739407  1  0.017147  0  0.100356  0.094854  0  1.0119  0
H  H55  1  0.80909746  0.77682327  0.62260664  1  0.017174  0  0.100359  0.094818  0  1.011939  0
H  H56  1  0.97366051  0.99999298  0.03977785  1  0.121468  0  0.107283  0.113083  0  1.000523  0
H  H57  1  0.02633871  0.99999679  0.96022805  1  0.121617  0  0.107334  0.113154  0  1.000579  0
H  H58  1  0.47366079  0.49999800  0.46022786  1  0.121624  0  0.107356  0.113192  0  1.000592  0
H  H59  1  0.52633737  0.49999396  0.53977720  1  0.121412  0  0.107282  0.113146  0  1.000419  0
H  H60  1  0.84811380  0.99999451  0.04158976  1  0.086102  0  0.102599  0.109272  0  1.032498  0
H  H61  1  0.15188541  0.99999982  0.95841323  1  0.086032  0  0.102591  0.10923  0  1.032562  0
H  H62  1  0.34811512  0.49999581  0.45841401  1  0.085935  0  0.102555  0.109228  0  1.032633  0
H  H63  1  0.65188406  0.49999740  0.54158684  1  0.08597  0  0.102597  0.109268  0  1.032509  0
H  H64  1  0.85387518  0.99999045  0.18149765  1  0.034584  0  0.099292  0.09816  0  1.00111  0
H  H65  1  0.14611032  0.99999560  0.81850437  1  0.034483  0  0.099392  0.098399  0  1.001077  0
H  H66  1  0.35388957  0.49998948  0.31850611  1  0.034627  0  0.099362  0.098342  0  1.001175  0
H  H67  1  0.64612332  0.49999170  0.68149572  1  0.034743  0  0.099311  0.098265  0  1.001094  0
H  H68  1  0.98044286  0.99998726  0.17905449  1  0.121079  0  0.106082  0.111851  0  0.996221  0
H  H69  1  0.01954011  0.99999174  0.82095239  1  0.121114  0  0.106172  0.111966  0  0.996347  0
H  H70  1  0.48045824  0.49998836  0.32095413  1  0.121213  0  0.106183  0.111971  0  0.996399  0
H  H71  1  0.51955464  0.49998247  0.67905158  1  0.120926  0  0.106071  0.111868  0  0.996236  0
H  H72  1  0.75003506  0.99999739  0.14938311  1  0.014897  0  0.097178  0.090485  0  1.020486  0
H  H73  1  0.24995295  0.00000079  0.85061645  1  0.014875  0  0.097254  0.090501  0  1.020492  0
H  H74  1  0.25004518  0.49999794  0.35061865  1  0.015  0  0.09719  0.090505  0  1.02044  0
H  H75  1  0.74995705  0.49999775  0.64938285  1  0.014909  0  0.097191  0.090476  0  1.020382  0
H  H76  1  0.32808293  0.39593546  0.76374936  1  0.087354  0  0.106831  0.112071  0  0.995739  0
H  H77  1  0.67191546  0.39593587  0.23625179  1  0.087226  0  0.106854  0.112123  0  0.995642  0
H  H78  1  0.82808571  0.10406645  0.73624552  1  0.087364  0  0.106823  0.112026  0  0.995704  0
H  H79  1  0.17191981  0.10406201  0.26375322  1  0.087316  0  0.106852  0.112126  0  0.995622  0
H  H80  1  0.67191929  0.60406686  0.23624598  1  0.087399  0  0.106871  0.112138  0  0.995683  0
H  H81  1  0.32807865  0.60406521  0.76375522  1  0.08739  0  0.106867  0.112175  0  0.995667  0
H  H82  1  0.17191651  0.89593422  0.26375112  1  0.087397  0  0.10683  0.112097  0  0.99573  0
H  H83  1  0.82808242  0.89593576  0.73624763  1  0.087286  0  0.106834  0.112081  0  0.995701  0
H  H84  1  0.32071834  0.33358911  0.82715302  1  0.059332  0  0.101504  0.099968  0  1.005908  0
H  H85  1  0.67928049  0.33359061  0.17284765  1  0.059293  0  0.101528  0.100036  0  1.005861  0
H  H86  1  0.82071245  0.16641242  0.67284188  1  0.059339  0  0.101512  0.09996  0  1.005985  0
H  H87  1  0.17928502  0.16641138  0.32715441  1  0.059384  0  0.101516  0.100019  0  1.005953  0
H  H88  1  0.67928693  0.66641611  0.17284394  1  0.059402  0  0.101497  0.099982  0  1.005952  0
H  H89  1  0.32070803  0.66641213  0.82715709  1  0.059397  0  0.101453  0.09993  0  1.006008  0
H  H90  1  0.17928318  0.83358701  0.32715346  1  0.059317  0  0.101513  0.10001  0  1.005934  0
H  H91  1  0.82071213  0.83359177  0.67284449  1  0.05981  0  0.1015  0.10004  0  1.006008  0
H  H92  1  0.15175057  0.24897209  0.76734702  1  0.052401  0  0.101902  0.100611  0  0.996653  0
H  H93  1  0.84825089  0.24897460  0.23265098  1  0.052507  0  0.101926  0.100674  0  0.996631  0
H  H94  1  0.65174726  0.25102774  0.73265123  1  0.05237  0  0.101956  0.100677  0  0.996659  0
H  H95  1  0.34824911  0.25102660  0.26734741  1  0.052446  0  0.101913  0.100611  0  0.996654  0
H  H96  1  0.84825318  0.75103024  0.23265058  1  0.052322  0  0.10191  0.100546  0  0.996756  0
H  H97  1  0.15174880  0.75103394  0.76734533  1  0.052439  0  0.101931  0.100643  0  0.996665  0
H  H98  1  0.34824888  0.74897003  0.26734735  1  0.052329  0  0.101895  0.1006  0  0.996677  0
H  H99  1  0.65175261  0.74897447  0.73265279  1  0.052493  0  0.101913  0.100621  0  0.996674  0
H  H100  1  0.16057478  0.31197859  0.70351085  1  0.116075  0  0.108683  0.113975  0  0.991004  0
H  H101  1  0.83942572  0.31197795  0.29648762  1  0.114732  0  0.10869  0.114014  0  0.990885  0
H  H102  1  0.66057456  0.18802160  0.79648900  1  0.116103  0  0.108678  0.113991  0  0.990921  0
H  H103  1  0.33942581  0.18802081  0.20351209  1  0.114718  0  0.10868  0.114003  0  0.990913  0
H  H104  1  0.83942846  0.68802332  0.29648773  1  0.114745  0  0.108645  0.113921  0  0.990894  0
H  H105  1  0.16057701  0.68802603  0.70351064  1  0.116001  0  0.108642  0.113893  0  0.991038  0
H  H106  1  0.33942564  0.81197699  0.20351120  1  0.114695  0  0.108675  0.113981  0  0.990925  0
H  H107  1  0.66057591  0.81197737  0.79648973  1  0.116114  0  0.108674  0.113991  0  0.990909  0
H  H108  1  0.18578018  0.21926928  0.83572510  1  0.06134  0  0.101404  0.097164  0  1.007471  0
H  H109  1  0.81421996  0.21927144  0.16427428  1  0.061416  0  0.101435  0.097173  0  1.007436  0
H  H110  1  0.68577964  0.28073163  0.66427177  1  0.061316  0  0.101425  0.097168  0  1.00754  0
H  H111  1  0.31422210  0.28073283  0.33572387  1  0.061345  0  0.10138  0.097118  0  1.007496  0
H  H112  1  0.81422154  0.78073387  0.16427121  1  0.061205  0  0.101407  0.097146  0  1.007537  0
H  H113  1  0.18578176  0.78073668  0.83572592  1  0.061262  0  0.101381  0.09716  0  1.007535  0
H  H114  1  0.31422005  0.71926738  0.33572746  1  0.061278  0  0.101431  0.097192  0  1.00748  0
H  H115  1  0.68578114  0.71926991  0.66427374  1  0.061357  0  0.101418  0.097136  0  1.007499  0
H  H116  1  0.52526454  0.99999580  0.16857011  1  0.073021  0  0.106629  0.107702  0  0.985812  0
H  H117  1  0.47472398  0.00000155  0.83142912  1  0.073572  0  0.106671  0.107727  0  0.985965  0
H  H118  1  0.02527884  0.50000057  0.33142606  1  0.073626  0  0.10665  0.107695  0  0.985901  0
H  H119  1  0.97472542  0.50000175  0.66857122  1  0.073514  0  0.106705  0.107788  0  0.985986  0
H  H120  1  0.64922116  0.99999180  0.16033605  1  0.065492  0  0.10192  0.09912  0  1.007736  0
H  H121  1  0.35076939  0.00000472  0.83965961  1  0.065657  0  0.101893  0.099057  0  1.007831  0
H  H122  1  0.14923440  0.49999612  0.33966240  1  0.065321  0  0.101859  0.099023  0  1.007836  0
H  H123  1  0.85077240  0.49999832  0.66034007  1  0.065903  0  0.10188  0.099049  0  1.007776  0
H  H124  1  0.62734709  0.99999175  0.02110094  1  0.017399  0  0.101154  0.101945  0  0.996484  0
H  H125  1  0.37265006  0.00000808  0.97889667  1  0.017525  0  0.10116  0.10198  0  0.996437  0
H  H126  1  0.12734523  0.49999751  0.47890016  1  0.017516  0  0.101168  0.101995  0  0.99643  0
H  H127  1  0.87265142  0.49999196  0.52110491  1  0.017572  0  0.101099  0.101936  0  0.996487  0
H  H128  1  0.50181915  0.99999327  0.03003337  1  0.040677  0  0.099781  0.096668  0  1.039418  0
H  H129  1  0.49817546  0.00000905  0.96996034  1  0.042074  0  0.099762  0.096615  0  1.039517  0
H  H130  1  0.00181785  0.50000238  0.46996092  1  0.04087  0  0.099737  0.096598  0  1.039464  0
H  H131  1  0.99817828  0.49999331  0.53003864  1  0.042217  0  0.099743  0.096579  0  1.039396  0
H  H132  1  0.73869348  0.99999599  0.04983742  1  0.078654  0  0.100367  0.100915  0  1.020523  0
H  H133  1  0.26130367  0.00000053  0.95016278  1  0.07863  0  0.100356  0.100923  0  1.020424  0
H  H134  1  0.23869688  0.49999566  0.45016696  1  0.078599  0  0.100366  0.100904  0  1.020434  0
H  H135  1  0.76130687  0.49999588  0.54983551  1  0.078584  0  0.100353  0.100913  0  1.020571  0
C  C136  1  0.24725123  0.10256428  0.02269982  1  1.515691  0  0.223952  0.59897  0  4.171641  0
C  C137  1  0.75274414  0.10256590  0.97730087  1  1.515722  0  0.223912  0.598913  0  4.171483  0
C  C138  1  0.74725804  0.39744278  0.47730304  1  1.515361  0  0.224039  0.599181  0  4.171648  0
C  C139  1  0.25274847  0.39744340  0.52269453  1  1.514604  0  0.223944  0.59879  0  4.171809  0
C  C140  1  0.75274084  0.89744301  0.97730557  1  1.515639  0  0.224045  0.599131  0  4.171349  0
C  C141  1  0.24725656  0.89744471  0.02269707  1  1.514933  0  0.22406  0.599257  0  4.171503  0
C  C142  1  0.25273860  0.60256079  0.52269813  1  1.515524  0  0.223926  0.599015  0  4.171276  0
C  C143  1  0.74725935  0.60256845  0.47729886  1  1.515728  0  0.22381  0.598667  0  4.171882  0
C  C144  1  0.25147461  0.14042068  0.98472870  1  -0.062928  0  -0.021207  -0.04806  0  3.979986  0
C  C145  1  0.74852710  0.14042424  0.01527123  1  -0.062614  0  -0.021182  -0.04809  0  3.979981  0
C  C146  1  0.75147496  0.35958324  0.51527221  1  -0.062567  0  -0.02113  -0.048044  0  3.979986  0
C  C147  1  0.24853130  0.35958199  0.48472644  1  -0.062245  0  -0.021039  -0.047918  0  3.980095  0
C  C148  1  0.74851848  0.85958289  0.01527442  1  -0.062683  0  -0.021115  -0.047926  0  3.979827  0
C  C149  1  0.25147817  0.85958513  0.98472735  1  -0.062352  0  -0.021072  -0.04795  0  3.979753  0
C  C150  1  0.24851711  0.64041950  0.48472864  1  -0.062464  0  -0.021144  -0.047825  0  3.980002  0
C  C151  1  0.75147600  0.64042407  0.51527084  1  -0.062847  0  -0.021228  -0.048067  0  3.980015  0
C  C152  1  0.30286735  0.18045070  0.98200318  1  -0.00106  0  -0.081271  -0.083305  0  3.98785  0
C  C153  1  0.69713459  0.18045448  0.01799599  1  -0.002352  0  -0.081261  -0.083303  0  3.987889  0
C  C154  1  0.80286847  0.31955423  0.51799695  1  -0.000784  0  -0.08133  -0.083272  0  3.987724  0
C  C155  1  0.19713959  0.31955364  0.48200214  1  -0.001131  0  -0.081407  -0.083513  0  3.987921  0
C  C156  1  0.69712523  0.81955411  0.01799929  1  -0.000768  0  -0.081268  -0.08322  0  3.987735  0
C  C157  1  0.30287069  0.81955530  0.98200194  1  -0.001445  0  -0.081328  -0.083294  0  3.98758  0
C  C158  1  0.19712462  0.68044934  0.48200390  1  -0.002123  0  -0.081232  -0.083428  0  3.987878  0
C  C159  1  0.80287279  0.68045117  0.51799741  1  -0.002322  0  -0.081191  -0.083293  0  3.987922  0
C  C160  1  0.30683599  0.21469240  0.94590702  1  -0.055797  0  -0.088619  -0.135299  0  3.972444  0
C  C161  1  0.69316469  0.21469272  0.05409302  1  -0.054915  0  -0.088691  -0.135434  0  3.972721  0
C  C162  1  0.80683509  0.28531127  0.55409213  1  -0.056112  0  -0.088599  -0.135396  0  3.972424  0
C  C163  1  0.19316864  0.28531293  0.44590642  1  -0.055871  0  -0.088632  -0.135464  0  3.972731  0
C  C164  1  0.69316217  0.78531034  0.05409350  1  -0.056001  0  -0.088637  -0.135461  0  3.972532  0
C  C165  1  0.30683652  0.78531250  0.94590653  1  -0.056172  0  -0.0886  -0.13535  0  3.972362  0
C  C166  1  0.19316155  0.71469064  0.44590678  1  -0.055585  0  -0.08869  -0.135387  0  3.972411  0
C  C167  1  0.80683714  0.71469270  0.55409313  1  -0.055377  0  -0.08869  -0.135399  0  3.972488  0
C  C168  1  0.25984952  0.21031515  0.91152222  1  0.020249  0  -0.005733  0.118581  0  4.040229  0
C  C169  1  0.74015424  0.21031676  0.08847556  1  0.020293  0  -0.005722  0.118597  0  4.040272  0
C  C170  1  0.75984482  0.28968459  0.58847575  1  0.020295  0  -0.005727  0.118554  0  4.040282  0
C  C171  1  0.24015635  0.28968537  0.41152149  1  0.02018  0  -0.005698  0.118735  0  4.040436  0
C  C172  1  0.74015220  0.78968676  0.08847603  1  0.020067  0  -0.005716  0.11864  0  4.040225  0
C  C173  1  0.25984494  0.78968722  0.91152367  1  0.020347  0  -0.005816  0.118381  0  4.040328  0
C  C174  1  0.24015233  0.71031276  0.41152413  1  0.020064  0  -0.005758  0.118595  0  4.040332  0
C  C175  1  0.75984892  0.71031530  0.58847677  1  0.020239  0  -0.005746  0.118538  0  4.040219  0
C  C176  1  0.20829381  0.16989102  0.91483394  1  -0.014006  0  -0.086065  -0.125169  0  3.949583  0
C  C177  1  0.79170973  0.16989323  0.08516462  1  -0.013937  0  -0.086115  -0.125264  0  3.949423  0
C  C178  1  0.70829189  0.33011061  0.58516450  1  -0.01394  0  -0.086045  -0.125104  0  3.949793  0
C  C179  1  0.29171153  0.33010782  0.41483230  1  -0.014092  0  -0.086211  -0.125506  0  3.949764  0
C  C180  1  0.79170486  0.83011213  0.08516594  1  -0.013992  0  -0.086075  -0.125197  0  3.949644  0
C  C181  1  0.20829148  0.83011365  0.91483591  1  -0.013815  0  -0.085971  -0.124971  0  3.949596  0
C  C182  1  0.29170881  0.66989089  0.41483927  1  -0.01381  0  -0.08608  -0.12531  0  3.949633  0
C  C183  1  0.70829222  0.66989326  0.58516336  1  -0.013934  0  -0.086079  -0.125265  0  3.949721  0
C  C184  1  0.20426628  0.13555235  0.95073232  1  -0.049429  0  -0.080212  -0.079256  0  3.979126  0
C  C185  1  0.79573598  0.13555430  0.04926633  1  -0.049505  0  -0.080196  -0.079203  0  3.979078  0
C  C186  1  0.70426688  0.36445095  0.54926807  1  -0.049632  0  -0.080182  -0.079251  0  3.979131  0
C  C187  1  0.29573680  0.36444922  0.45072960  1  -0.049549  0  -0.0801  -0.078906  0  3.979183  0
C  C188  1  0.79572884  0.86445287  0.04926853  1  -0.049412  0  -0.080238  -0.079368  0  3.97913  0
C  C189  1  0.20426777  0.86445507  0.95073290  1  -0.049914  0  -0.08025  -0.079363  0  3.979135  0
C  C190  1  0.29573433  0.63555137  0.45073797  1  -0.049851  0  -0.080223  -0.079316  0  3.979006  0
C  C191  1  0.70426593  0.63555393  0.54926606  1  -0.049542  0  -0.080133  -0.079078  0  3.979127  0
C  C192  1  0.26700596  0.24745938  0.87468392  1  -0.000613  0  -0.086704  -0.125268  0  3.995675  0
C  C193  1  0.73299855  0.24746127  0.12531409  1  -0.000355  0  -0.086845  -0.125374  0  3.995692  0
C  C194  1  0.76700180  0.25253866  0.62531339  1  -0.000375  0  -0.086803  -0.125368  0  3.995733  0
C  C195  1  0.23300268  0.25253923  0.37468395  1  -0.000369  0  -0.086803  -0.125364  0  3.995868  0
C  C196  1  0.73299677  0.75254045  0.12531336  1  -0.000389  0  -0.086805  -0.12537  0  3.995739  0
C  C197  1  0.26700063  0.75253981  0.87468612  1  -0.000399  0  -0.086799  -0.125243  0  3.995682  0
C  C198  1  0.23299789  0.74745993  0.37468714  1  -0.000284  0  -0.086807  -0.125383  0  3.995703  0
C  C199  1  0.76700310  0.74746061  0.62531430  1  -0.000327  0  -0.086805  -0.125321  0  3.995605  0
C  C200  1  0.06016907  0.99998997  0.10836169  1  1.523896  0  0.22163  0.597837  0  4.177838  0
C  C201  1  0.93981999  0.99999442  0.89164518  1  1.523568  0  0.221403  0.597565  0  4.178621  0
C  C202  1  0.56018074  0.49999754  0.39164509  1  1.523767  0  0.221466  0.597598  0  4.178388  0
C  C203  1  0.43982809  0.49998572  0.60836419  1  1.523658  0  0.221803  0.598208  0  4.177649  0
C  C204  1  0.98479199  0.99998907  0.10934224  1  -0.020368  0  -0.026098  -0.056031  0  3.998106  0
C  C205  1  0.01520164  0.99999491  0.89066496  1  -0.02053  0  -0.026037  -0.055895  0  3.998046  0
C  C206  1  0.48479729  0.49999647  0.39066572  1  -0.020354  0  -0.026043  -0.055887  0  3.998078  0
C  C207  1  0.51520596  0.49998637  0.60934129  1  -0.020437  0  -0.026186  -0.056155  0  3.998102  0
C  C208  1  0.94687040  0.99998842  0.07069295  1  -0.032631  0  -0.080048  -0.081052  0  3.969344  0
C  C209  1  0.05312679  0.99999680  0.92931101  1  -0.032904  0  -0.080135  -0.081231  0  3.969685  0
C  C210  1  0.44687088  0.49999689  0.42931186  1  -0.032914  0  -0.080087  -0.081186  0  3.969661  0
C  C211  1  0.55312779  0.49999217  0.57069223  1  -0.032648  0  -0.080015  -0.08117  0  3.969365  0
C  C212  1  0.87645574  0.99999272  0.07190433  1  -0.084059  0  -0.086816  -0.131444  0  3.94495  0
C  C213  1  0.12354297  0.99999498  0.92809704  1  -0.083978  0  -0.08675  -0.131384  0  3.945061  0
C  C214  1  0.37645572  0.49999457  0.42809840  1  -0.084001  0  -0.086772  -0.131471  0  3.945151  0
C  C215  1  0.62354295  0.49999615  0.57190310  1  -0.083956  0  -0.086787  -0.131409  0  3.945024  0
C  C216  1  0.84150848  0.99999685  0.11192257  1  0.017664  0  -0.005245  0.12387  0  4.037444  0
C  C217  1  0.15848562  0.00000008  0.88807763  1  0.017082  0  -0.005213  0.124146  0  4.037266  0
C  C218  1  0.34151430  0.49999888  0.38807798  1  0.016539  0  -0.005161  0.124255  0  4.037353  0
C  C219  1  0.65848742  0.49999971  0.61192158  1  0.017683  0  -0.005246  0.124057  0  4.037488  0
C  C220  1  0.88033174  0.99999212  0.15039905  1  0.004513  0  -0.09465  -0.147332  0  3.992571  0
C  C221  1  0.11965834  0.99999932  0.84960297  1  0.005766  0  -0.094881  -0.147928  0  3.99259  0
C  C222  1  0.38034288  0.49999349  0.34960334  1  0.006185  0  -0.094815  -0.147734  0  3.992716  0
C  C223  1  0.61966442  0.49999349  0.65039815  1  0.004493  0  -0.094684  -0.14758  0  3.992557  0
C  C224  1  0.95071035  0.99999278  0.14928429  1  -0.122004  0  -0.085767  -0.087629  0  4.006711  0
C  C225  1  0.04927719  0.99999492  0.85072097  1  -0.122209  0  -0.085807  -0.087636  0  4.006507  0
C  C226  1  0.45072301  0.49999457  0.35072279  1  -0.122447  0  -0.085909  -0.087846  0  4.006976  0
C  C227  1  0.54928684  0.49999159  0.64928195  1  -0.121835  0  -0.085707  -0.087537  0  4.006633  0
C  C228  1  0.76811213  0.99999784  0.11586032  1  -0.019178  0  -0.094071  -0.142093  0  4.009338  0
C  C229  1  0.23188096  0.00000116  0.88413891  1  -0.018856  0  -0.094125  -0.142056  0  4.009222  0
C  C230  1  0.26811949  0.49999865  0.38414171  1  -0.018776  0  -0.094187  -0.142235  0  4.00954  0
C  C231  1  0.73188324  0.49999870  0.61585946  1  -0.019202  0  -0.094106  -0.142089  0  4.009256  0
C  C232  1  0.24990434  0.39640575  0.69220408  1  1.53973  0  0.224156  0.601615  0  4.173757  0
C  C233  1  0.75009354  0.39640506  0.30779415  1  1.539883  0  0.224108  0.601496  0  4.173907  0
C  C234  1  0.74991022  0.10359528  0.80779230  1  1.53997  0  0.223997  0.601342  0  4.173874  0
C  C235  1  0.25009429  0.10359743  0.19220709  1  1.539787  0  0.224066  0.601381  0  4.174354  0
C  C236  1  0.75009027  0.60359699  0.30779321  1  1.539739  0  0.223971  0.601119  0  4.174604  0
C  C237  1  0.24990513  0.60359934  0.69220605  1  1.539777  0  0.224146  0.601673  0  4.173948  0
C  C238  1  0.25009099  0.89640249  0.19220563  1  1.539717  0  0.224075  0.601442  0  4.174223  0
C  C239  1  0.74990794  0.89640613  0.80779279  1  1.540006  0  0.224038  0.601438  0  4.173777  0
C  C240  1  0.24499190  0.35768840  0.72967331  1  0.002009  0  -0.021047  -0.045899  0  3.980244  0
C  C241  1  0.75500777  0.35768952  0.27032405  1  -0.003581  0  -0.021109  -0.045989  0  3.98044  0
C  C242  1  0.74499166  0.14231099  0.77032081  1  -0.003448  0  -0.021195  -0.046211  0  3.98049  0
C  C243  1  0.25500953  0.14231005  0.22967879  1  -0.003528  0  -0.021132  -0.045919  0  3.980475  0
C  C244  1  0.75501083  0.64231268  0.27032137  1  -0.003466  0  -0.021078  -0.045938  0  3.980508  0
C  C245  1  0.24499192  0.64231364  0.72967550  1  -0.003275  0  -0.021109  -0.046145  0  3.980605  0
C  C246  1  0.25500854  0.85768760  0.22967615  1  -0.003515  0  -0.021055  -0.045985  0  3.980593  0
C  C247  1  0.74499219  0.85768730  0.77032173  1  -0.0034  0  -0.021091  -0.046166  0  3.980415  0
C  C248  1  0.28988210  0.36333126  0.76486121  1  -0.031187  0  -0.082601  -0.087387  0  3.993773  0
C  C249  1  0.71011652  0.36333358  0.23513646  1  -0.025445  0  -0.082595  -0.087414  0  3.993586  0
C  C250  1  0.78988212  0.13666875  0.73513345  1  -0.025554  0  -0.082501  -0.087133  0  3.993445  0
C  C251  1  0.21012114  0.13666620  0.26486650  1  -0.025233  0  -0.082504  -0.087248  0  3.993494  0
C  C252  1  0.71012114  0.63666940  0.23513380  1  -0.025447  0  -0.082558  -0.087335  0  3.993431  0
C  C253  1  0.28987657  0.63666750  0.76486536  1  -0.025297  0  -0.082517  -0.087329  0  3.993669  0
C  C254  1  0.21011909  0.86333150  0.26486384  1  -0.025508  0  -0.082575  -0.087352  0  3.993804  0
C  C255  1  0.78988159  0.86333240  0.73513273  1  -0.025515  0  -0.082574  -0.087167  0  3.993536  0
C  C256  1  0.28532149  0.32824251  0.80029725  1  -0.006705  0  -0.088562  -0.129891  0  3.964941  0
C  C257  1  0.71467687  0.32824289  0.19970214  1  -0.006564  0  -0.088611  -0.129977  0  3.964981  0
C  C258  1  0.78531793  0.17175877  0.69969871  1  -0.007259  0  -0.088517  -0.129916  0  3.964819  0
C  C259  1  0.21468153  0.17175686  0.30030016  1  -0.007303  0  -0.088629  -0.130128  0  3.965021  0
C  C260  1  0.71468175  0.67176106  0.19969971  1  -0.007438  0  -0.088562  -0.130017  0  3.964758  0
C  C261  1  0.28531521  0.67175860  0.80029936  1  -0.007982  0  -0.088527  -0.129884  0  3.964835  0
C  C262  1  0.21467972  0.82824148  0.30029890  1  -0.006951  0  -0.08857  -0.130006  0  3.964909  0
C  C263  1  0.78531664  0.82824339  0.69969874  1  -0.00763  0  -0.088509  -0.130096  0  3.965159  0
C  C264  1  0.23543052  0.28626227  0.80205011  1  -0.010795  0  -0.005925  0.119464  0  4.039826  0
C  C265  1  0.76456763  0.28626243  0.19795005  1  -0.01066  0  -0.005956  0.119411  0  4.039859  0
C  C266  1  0.73542769  0.21373965  0.69794825  1  -0.010858  0  -0.006071  0.119422  0  4.03982  0
C  C267  1  0.26457249  0.21373792  0.30205115  1  -0.01095  0  -0.006053  0.119379  0  4.040004  0
C  C268  1  0.76457323  0.71374088  0.19794782  1  -0.010924  0  -0.006071  0.119479  0  4.039769  0
C  C269  1  0.23542749  0.71374321  0.80205015  1  -0.010599  0  -0.006044  0.119437  0  4.039787  0
C  C270  1  0.26457098  0.78625894  0.30205260  1  -0.010918  0  -0.005989  0.119539  0  4.03972  0
C  C271  1  0.73542771  0.78626233  0.69794775  1  -0.011019  0  -0.006082  0.119398  0  4.040076  0
C  C272  1  0.19076676  0.28109556  0.76648774  1  -0.071712  0  -0.08937  -0.13821  0  3.971844  0
C  C273  1  0.80923295  0.28109743  0.23351179  1  -0.071838  0  -0.089434  -0.138333  0  3.971862  0
C  C274  1  0.69076672  0.21890657  0.73351073  1  -0.071548  0  -0.089476  -0.13841  0  3.9719  0
C  C275  1  0.30923343  0.21890313  0.26648865  1  -0.071584  0  -0.089385  -0.138172  0  3.971917  0
C  C276  1  0.80923344  0.71890842  0.23351084  1  -0.07136  0  -0.089371  -0.138208  0  3.971972  0
C  C277  1  0.19076776  0.71891070  0.76648647  1  -0.071272  0  -0.089411  -0.138374  0  3.972026  0
C  C278  1  0.30923247  0.78109327  0.26648882  1  -0.071486  0  -0.08938  -0.138272  0  3.971809  0
C  C279  1  0.69076778  0.78109670  0.73351090  1  -0.071574  0  -0.089396  -0.138238  0  3.97193  0
C  C280  1  0.19536341  0.31606745  0.73079492  1  -0.065982  0  -0.0817  -0.083625  0  3.986699  0
C  C281  1  0.80463757  0.31607000  0.26920289  1  -0.064613  0  -0.081618  -0.083552  0  3.986598  0
C  C282  1  0.69536237  0.18393175  0.76920258  1  -0.065961  0  -0.081583  -0.083458  0  3.986504  0
C  C283  1  0.30463802  0.18393099  0.23079691  1  -0.06463  0  -0.081628  -0.083651  0  3.986602  0
C  C284  1  0.80463932  0.68393404  0.26920204  1  -0.064614  0  -0.081624  -0.083475  0  3.98656  0
C  C285  1  0.19536466  0.68393688  0.73079504  1  -0.066119  0  -0.081598  -0.083359  0  3.98667  0
C  C286  1  0.30463782  0.81606684  0.23079698  1  -0.064596  0  -0.081635  -0.083535  0  3.986652  0
C  C287  1  0.69536218  0.81606801  0.76920265  1  -0.06607  0  -0.081607  -0.083507  0  3.986597  0
C  C288  1  0.22775877  0.24871688  0.83864461  1  -0.074775  0  -0.087825  -0.127924  0  3.992459  0
C  C289  1  0.77224066  0.24871801  0.16135534  1  -0.075245  0  -0.087773  -0.127804  0  3.992339  0
C  C290  1  0.72775794  0.25128590  0.66135345  1  -0.074636  0  -0.087747  -0.127806  0  3.992444  0
C  C291  1  0.27224502  0.25128355  0.33864357  1  -0.074921  0  -0.0877  -0.127736  0  3.992567  0
C  C292  1  0.77224295  0.75128793  0.16135300  1  -0.074553  0  -0.08775  -0.127856  0  3.992469  0
C  C293  1  0.22776055  0.75128929  0.83864454  1  -0.074644  0  -0.087755  -0.127909  0  3.992522  0
C  C294  1  0.27223972  0.74871269  0.33864643  1  -0.074672  0  -0.087771  -0.12789  0  3.992564  0
C  C295  1  0.72775873  0.74871670  0.66135501  1  -0.074637  0  -0.087768  -0.127816  0  3.992528  0
C  C296  1  0.42961004  0.00000084  0.10386927  1  1.598311  0  0.233329  0.623028  0  4.158281  0
C  C297  1  0.57039216  0.00000118  0.89612749  1  1.598408  0  0.233286  0.622853  0  4.158645  0
C  C298  1  0.92960952  0.50000662  0.39612534  1  1.598812  0  0.233255  0.622957  0  4.158626  0
C  C299  1  0.07039067  0.50000067  0.60387421  1  1.598367  0  0.233407  0.623105  0  4.158361  0
C  C300  1  0.50550526  0.00000026  0.09957682  1  -0.085704  0  -0.011256  -0.010256  0  3.968266  0
C  C301  1  0.49449490  0.00000218  0.90041962  1  -0.085746  0  -0.011336  -0.010415  0  3.968703  0
C  C302  1  0.00550749  0.50000336  0.40041986  1  -0.085685  0  -0.011338  -0.01054  0  3.968592  0
C  C303  1  0.99449423  0.49999813  0.59958294  1  -0.085873  0  -0.011342  -0.010468  0  3.96882  0
C  C304  1  0.54758745  0.99999955  0.13620284  1  -0.025461  0  -0.087394  -0.111049  0  4.009101  0
C  C305  1  0.45240923  0.99999851  0.86379723  1  -0.02608  0  -0.087428  -0.111145  0  4.009515  0
C  C306  1  0.04759190  0.49999962  0.36379587  1  -0.025877  0  -0.087367  -0.111023  0  4.009486  0
C  C307  1  0.95240779  0.49999980  0.63620465  1  -0.025986  0  -0.08744  -0.11116  0  4.009668  0
C  C308  1  0.61765841  0.99999318  0.13132485  1  -0.053475  0  -0.085464  -0.117577  0  3.962978  0
C  C309  1  0.38233823  0.00000541  0.86867048  1  -0.054451  0  -0.085504  -0.117437  0  3.96294  0
C  C310  1  0.11766232  0.49999779  0.36867141  1  -0.054242  0  -0.085455  -0.117436  0  3.962997  0
C  C311  1  0.88233990  0.49999790  0.63132912  1  -0.054823  0  -0.085452  -0.117444  0  3.962971  0
C  C312  1  0.64826387  0.99999238  0.08993744  1  -0.006854  0  -0.010785  0.102972  0  4.042867  0
C  C313  1  0.35172871  0.00000539  0.91005823  1  -0.006159  0  -0.010689  0.102985  0  4.042757  0
C  C314  1  0.14827108  0.49999638  0.41006004  1  -0.006136  0  -0.01074  0.102958  0  4.042551  0
C  C315  1  0.85173267  0.49999475  0.58994081  1  -0.006144  0  -0.01071  0.103055  0  4.042582  0
C  C316  1  0.60508764  0.99999298  0.05353889  1  0.025191  0  -0.086279  -0.121415  0  3.969023  0
C  C317  1  0.39490850  0.00000769  0.94645774  1  0.025144  0  -0.086255  -0.121441  0  3.968789  0
C  C318  1  0.10509157  0.49999805  0.44645999  1  0.02502  0  -0.086273  -0.121469  0  3.968757  0
C  C319  1  0.89491117  0.49999308  0.55354280  1  0.02516  0  -0.086275  -0.121621  0  3.969012  0
C  C320  1  0.53483442  0.99999437  0.05833128  1  0.019139  0  -0.090003  -0.111269  0  4.005781  0
C  C321  1  0.46516070  0.00000671  0.94166341  1  0.019411  0  -0.090022  -0.111145  0  4.006142  0
C  C322  1  0.03483939  0.50000154  0.44166551  1  0.019232  0  -0.090002  -0.111087  0  4.006068  0
C  C323  1  0.96516538  0.49999291  0.55833793  1  0.019274  0  -0.089963  -0.110961  0  4.005874  0
C  C324  1  0.72157545  0.99999347  0.08357743  1  -0.06365  0  -0.083512  -0.110587  0  3.9731  0
C  C325  1  0.27841764  0.00000306  0.91642147  1  -0.064069  0  -0.08363  -0.110777  0  3.973211  0
C  C326  1  0.22158312  0.49999495  0.41642472  1  -0.064171  0  -0.083525  -0.110653  0  3.973163  0
C  C327  1  0.77842063  0.49999577  0.58357646  1  -0.063547  0  -0.083552  -0.110723  0  3.973098  0
O  O328  1  0.24725386  0.00000167  0.10801726  1  -1.238114  0  -0.572358  -1.025741  0  2.537709  0
O  O329  1  0.75273868  0.00000160  0.89198307  1  -1.23821  0  -0.572392  -1.02571  0  2.537806  0
O  O330  1  0.74726099  0.50000457  0.39198463  1  -1.238147  0  -0.572391  -1.025664  0  2.537692  0
O  O331  1  0.25274377  0.50000024  0.60801816  1  -1.238193  0  -0.572346  -1.025741  0  2.537836  0
O  O332  1  0.28792655  0.11112048  0.05434042  1  -1.165457  0  -0.317574  -0.550845  0  2.326871  0
O  O333  1  0.71206877  0.11112119  0.94565992  1  -1.165598  0  -0.317617  -0.550892  0  2.326742  0
O  O334  1  0.78793108  0.38888763  0.44566104  1  -1.165821  0  -0.317672  -0.551005  0  2.327018  0
O  O335  1  0.21207447  0.38888706  0.55433656  1  -1.165489  0  -0.317643  -0.550796  0  2.326917  0
O  O336  1  0.71207212  0.88888805  0.94566205  1  -1.166127  0  -0.317711  -0.550987  0  2.32689  0
O  O337  1  0.28793041  0.88888942  0.05433802  1  -1.166014  0  -0.317646  -0.55099  0  2.327042  0
O  O338  1  0.21206455  0.61111593  0.55433948  1  -1.165749  0  -0.31761  -0.550922  0  2.326643  0
O  O339  1  0.78793486  0.61112397  0.44565813  1  -1.165942  0  -0.317468  -0.550696  0  2.326828  0
O  O340  1  0.20306624  0.06380319  0.02046249  1  -1.160909  0  -0.317741  -0.553954  0  2.377005  0
O  O341  1  0.79693144  0.06380625  0.97953701  1  -1.160785  0  -0.317676  -0.553856  0  2.376954  0
O  O342  1  0.70307276  0.43620366  0.47954308  1  -1.16069  0  -0.317697  -0.553973  0  2.376947  0
O  O343  1  0.29693550  0.43620161  0.52045762  1  -1.160044  0  -0.317738  -0.553945  0  2.377011  0
O  O344  1  0.79692482  0.93620493  0.97954387  1  -1.160664  0  -0.317716  -0.554036  0  2.376893  0
O  O345  1  0.20307180  0.93620436  0.02046027  1  -1.159904  0  -0.317748  -0.554103  0  2.376976  0
O  O346  1  0.29692846  0.56380322  0.52046360  1  -1.160647  0  -0.317627  -0.553921  0  2.376901  0
O  O347  1  0.70307383  0.56380693  0.47953674  1  -1.160607  0  -0.317708  -0.553789  0  2.377166  0
O  O348  1  0.08876710  0.99998791  0.07108118  1  -1.159584  0  -0.3173  -0.542537  0  2.336988  0
O  O349  1  0.91122044  0.99999938  0.92892505  1  -1.158776  0  -0.317067  -0.542266  0  2.337788  0
O  O350  1  0.58877802  0.49999946  0.42892586  1  -1.158927  0  -0.31709  -0.542306  0  2.337711  0
O  O351  1  0.41122928  0.49999416  0.57108440  1  -1.159308  0  -0.317391  -0.542698  0  2.336975  0
O  O352  1  0.09095909  0.99999934  0.14489578  1  -1.174061  0  -0.318972  -0.551864  0  2.349781  0
O  O353  1  0.90903809  0.99999748  0.85511078  1  -1.174596  0  -0.318855  -0.551702  0  2.350005  0
O  O354  1  0.59096388  0.49999838  0.35511093  1  -1.174584  0  -0.318884  -0.551662  0  2.349912  0
O  O355  1  0.40903885  0.49998736  0.64489803  1  -1.17413  0  -0.319006  -0.552024  0  2.349947  0
O  O356  1  0.29454270  0.43467037  0.69499972  1  -1.185324  0  -0.318723  -0.550655  0  2.35401  0
O  O357  1  0.70545288  0.43466742  0.30500035  1  -1.185605  0  -0.318681  -0.550526  0  2.353977  0
O  O358  1  0.79455090  0.06533335  0.80499784  1  -1.185691  0  -0.318609  -0.550408  0  2.35366  0
O  O359  1  0.20545845  0.06533072  0.19500166  1  -1.185466  0  -0.3187  -0.550573  0  2.354075  0
O  O360  1  0.70545749  0.56532905  0.30499530  1  -1.18549  0  -0.318606  -0.55034  0  2.35416  0
O  O361  1  0.29455138  0.56533864  0.69499888  1  -1.185388  0  -0.318747  -0.55071  0  2.353757  0
O  O362  1  0.20545589  0.93466981  0.19500268  1  -1.185449  0  -0.318693  -0.550543  0  2.354008  0
O  O363  1  0.79455140  0.93466538  0.80499855  1  -1.185666  0  -0.318668  -0.550513  0  2.35372  0
O  O364  1  0.20928943  0.38860046  0.66037478  1  -1.156589  0  -0.317769  -0.550633  0  2.325997  0
O  O365  1  0.79071053  0.38860358  0.33962315  1  -1.15645  0  -0.317722  -0.550548  0  2.326053  0
O  O366  1  0.70929151  0.11139288  0.83962008  1  -1.156227  0  -0.317675  -0.550454  0  2.326423  0
O  O367  1  0.29071041  0.11139706  0.16037864  1  -1.156267  0  -0.317713  -0.550537  0  2.326304  0
O  O368  1  0.79070873  0.61139854  0.33962056  1  -1.156173  0  -0.317644  -0.550353  0  2.326407  0
O  O369  1  0.20928662  0.61140040  0.66037803  1  -1.156354  0  -0.317715  -0.55059  0  2.326107  0
O  O370  1  0.29070971  0.88860364  0.16037752  1  -1.156274  0  -0.317714  -0.550542  0  2.32624  0
O  O371  1  0.70929131  0.88860941  0.83962189  1  -1.156415  0  -0.317674  -0.55045  0  2.326282  0
O  O372  1  0.40092869  0.04726170  0.10523259  1  -1.163861  0  -0.31342  -0.546309  0  2.300591  0
O  O373  1  0.59907164  0.04726398  0.89476534  1  -1.16393  0  -0.3134  -0.546198  0  2.300572  0
O  O374  1  0.90092903  0.45274300  0.39475950  1  -1.164089  0  -0.313404  -0.546223  0  2.30045  0
O  O375  1  0.09907201  0.45273774  0.60523273  1  -1.163821  0  -0.313436  -0.546322  0  2.300496  0
O  O376  1  0.59906998  0.95273648  0.89476210  1  -1.163971  0  -0.313387  -0.546166  0  2.300629  0
O  O377  1  0.40092551  0.95274000  0.10523746  1  -1.163859  0  -0.313526  -0.546372  0  2.300478  0
O  O378  1  0.09906964  0.54726388  0.60524135  1  -1.164035  0  -0.313461  -0.546253  0  2.300603  0
O  O379  1  0.90093174  0.54726914  0.39476164  1  -1.164237  0  -0.31338  -0.546217  0  2.300804  0
