# generated using pymatgen
data_ZnH11C14NO5
_symmetry_space_group_name_H-M   'P 1'
_cell_length_a   11.76767649
_cell_length_b   11.76765991
_cell_length_c   14.11942176
_cell_angle_alpha   69.28923506
_cell_angle_beta   69.28919484
_cell_angle_gamma   69.90690541
_symmetry_Int_Tables_number   1
_chemical_formula_structural   ZnH11C14NO5
_chemical_formula_sum   'Zn4 H44 C56 N4 O20'
_cell_volume   1656.49815400
_cell_formula_units_Z   4
loop_
 _symmetry_equiv_pos_site_id
 _symmetry_equiv_pos_as_xyz
  1  'x, y, z'
loop_
 _atom_site_type_symbol
 _atom_site_label
 _atom_site_symmetry_multiplicity
 _atom_site_fract_x
 _atom_site_fract_y
 _atom_site_fract_z
 _atom_site_occupancy
 _atom_site_hle17_bader_spin_density
 _atom_site_hle17_ddec_charge
 _atom_site_hle17_ddec_spin_density
 _atom_site_hle17_ddec_sum_bond_order
 _atom_site_hle17_magmom
 _atom_site_hse06_10hf_bader_spin_density
 _atom_site_hse06_10hf_ddec_charge
 _atom_site_hse06_10hf_ddec_spin_density
 _atom_site_hse06_10hf_ddec_sum_bond_order
 _atom_site_hse06_10hf_magmom
 _atom_site_hse06_bader_spin_density
 _atom_site_hse06_ddec_charge
 _atom_site_hse06_ddec_spin_density
 _atom_site_hse06_ddec_sum_bond_order
 _atom_site_hse06_magmom
 _atom_site_pbe_bader_spin_density
 _atom_site_pbe_cm5_charge
 _atom_site_pbe_ddec_charge
 _atom_site_pbe_ddec_spin_density
 _atom_site_pbe_ddec_sum_bond_order
 _atom_site_pbe_magmom
Zn  Zn0  1  0.00297574  0.63179010  0.96007577  1  0  1.037851  0  1.875826  0  0  0.866391  0  2.351814  0  0  0.919399  0  2.285317  0  0  0.669581  0.829476  0  2.397307  0
Zn  Zn1  1  0.63179055  0.00297509  0.46007562  1  0  1.03786  0  1.875793  0  0  0.866404  0  2.351777  0  0  0.919411  0  2.285281  0  0  0.669599  0.829489  0  2.39727  0
Zn  Zn2  1  0.99702575  0.36820901  0.03992400  1  0  1.037855  0  1.875784  0  0  0.866392  0  2.351767  0  0  0.919401  0  2.285271  0  0  0.669602  0.829479  0  2.397254  0
Zn  Zn3  1  0.36820822  0.99702401  0.53992496  1  0  1.03787  0  1.875757  0  0  0.866403  0  2.351745  0  0  0.919411  0  2.285248  0  0  0.669611  0.829487  0  2.397242  0
H  H4  1  0.20666099  0.76252900  0.87135645  1  0  0.088597  0  0.929808  0  0  0.09858  0  0.991616  0  0  0.10088  0  0.988854  0  0  0.121966  0.096803  0  0.993768  0
H  H5  1  0.76252483  0.20666216  0.37135715  1  0  0.0886  0  0.92984  0  0  0.098617  0  0.991616  0  0  0.100919  0  0.988851  0  0  0.121995  0.09684  0  0.993766  0
H  H6  1  0.79334089  0.23747575  0.12864227  1  0  0.088569  0  0.929879  0  0  0.098569  0  0.991675  0  0  0.100871  0  0.98891  0  0  0.121985  0.096792  0  0.993826  0
H  H7  1  0.23747342  0.79334257  0.62864335  1  0  0.088558  0  0.92982  0  0  0.098558  0  0.991613  0  0  0.100859  0  0.988848  0  0  0.121962  0.09678  0  0.993765  0
H  H8  1  0.23009693  0.98257981  0.80004449  1  0  0.146477  0  0.929429  0  0  0.156835  0  0.984393  0  0  0.160919  0  0.982676  0  0  0.119942  0.15387  0  0.985868  0
H  H9  1  0.98257552  0.23009915  0.30004552  1  0  0.146463  0  0.929428  0  0  0.156822  0  0.984392  0  0  0.160907  0  0.982674  0  0  0.119938  0.153856  0  0.985867  0
H  H10  1  0.76990313  0.01742493  0.19995477  1  0  0.14648  0  0.92946  0  0  0.156833  0  0.98442  0  0  0.160919  0  0.982702  0  0  0.119951  0.153867  0  0.985896  0
H  H11  1  0.01742297  0.76990465  0.69995234  1  0  0.146495  0  0.929466  0  0  0.156848  0  0.984432  0  0  0.160931  0  0.982719  0  0  0.11995  0.153882  0  0.985907  0
H  H12  1  0.82443777  0.10661427  0.90090367  1  0  0.116468  0  0.955187  0  0  0.130515  0  1.008157  0  0  0.133676  0  1.007827  0  0  0.110752  0.128272  0  1.008535  0
H  H13  1  0.10661314  0.82444073  0.40090427  1  0  0.116486  0  0.955137  0  0  0.130525  0  1.008121  0  0  0.133686  0  1.00779  0  0  0.110753  0.128282  0  1.0085  0
H  H14  1  0.17556235  0.89338672  0.09909383  1  0  0.116462  0  0.955123  0  0  0.13051  0  1.008096  0  0  0.133671  0  1.007764  0  0  0.110746  0.128266  0  1.008475  0
H  H15  1  0.89338420  0.17556400  0.59909224  1  0  0.1165  0  0.955234  0  0  0.130559  0  1.008181  0  0  0.133721  0  1.007849  0  0  0.110782  0.128316  0  1.008557  0
H  H16  1  0.81931000  0.88188938  0.96465362  1  0  0.091201  0  0.903245  0  0  0.104756  0  0.95463  0  0  0.107411  0  0.951785  0  0  0.127482  0.102692  0  0.956829  0
H  H17  1  0.88188920  0.81931090  0.46465205  1  0  0.091186  0  0.903242  0  0  0.104745  0  0.954626  0  0  0.107395  0  0.951787  0  0  0.127489  0.10268  0  0.956825  0
H  H18  1  0.18069192  0.11811161  0.03534689  1  0  0.091228  0  0.90324  0  0  0.10475  0  0.954657  0  0  0.107431  0  0.951782  0  0  0.127487  0.102684  0  0.956859  0
H  H19  1  0.11810972  0.18069477  0.53534797  1  0  0.091208  0  0.903286  0  0  0.104735  0  0.954696  0  0  0.10741  0  0.951829  0  0  0.12749  0.102671  0  0.956895  0
H  H20  1  0.55209374  0.51758967  0.60827237  1  0  0.094341  0  0.936791  0  0  0.106608  0  0.989672  0  0  0.109337  0  0.989626  0  0  0.102269  0.10464  0  0.989839  0
H  H21  1  0.51759018  0.55209250  0.10827127  1  0  0.094275  0  0.936741  0  0  0.106552  0  0.989624  0  0  0.109285  0  0.989577  0  0  0.102225  0.104583  0  0.989793  0
H  H22  1  0.44790914  0.48240757  0.39172826  1  0  0.094313  0  0.936807  0  0  0.106589  0  0.989681  0  0  0.109322  0  0.989635  0  0  0.102254  0.104621  0  0.989849  0
H  H23  1  0.48240907  0.44790472  0.89173043  1  0  0.094318  0  0.93683  0  0  0.1066  0  0.989691  0  0  0.109332  0  0.989645  0  0  0.102262  0.104632  0  0.989859  0
H  H24  1  0.23654631  0.26657400  0.73139258  1  0  0.117527  0  0.956849  0  0  0.118822  0  1.032341  0  0  0.124168  0  1.026869  0  0  0.104775  0.114942  0  1.036309  0
H  H25  1  0.26657585  0.23654322  0.23139443  1  0  0.117508  0  0.956855  0  0  0.118804  0  1.032345  0  0  0.12415  0  1.026873  0  0  0.104771  0.114924  0  1.036313  0
H  H26  1  0.76345614  0.73342136  0.26860872  1  0  0.117517  0  0.956881  0  0  0.118804  0  1.032378  0  0  0.12415  0  1.026906  0  0  0.104764  0.114924  0  1.036346  0
H  H27  1  0.73342431  0.76345401  0.76860558  1  0  0.117529  0  0.956851  0  0  0.118824  0  1.032342  0  0  0.12417  0  1.026871  0  0  0.104773  0.114944  0  1.036309  0
H  H28  1  0.34081862  0.58325990  0.72833672  1  0  0.088947  0  0.984519  0  0  0.098719  0  1.049661  0  0  0.102092  0  1.046487  0  0  0.100348  0.096184  0  1.052169  0
H  H29  1  0.58326040  0.34081822  0.22833666  1  0  0.088986  0  0.984469  0  0  0.098758  0  1.049613  0  0  0.102131  0  1.046439  0  0  0.100361  0.096221  0  1.052121  0
H  H30  1  0.65918379  0.41673922  0.27166137  1  0  0.088966  0  0.984449  0  0  0.098715  0  1.049629  0  0  0.102088  0  1.046452  0  0  0.100346  0.09618  0  1.052134  0
H  H31  1  0.41674181  0.65917808  0.77166231  1  0  0.088936  0  0.984554  0  0  0.098733  0  1.049671  0  0  0.102105  0  1.046497  0  0  0.100356  0.096198  0  1.052178  0
H  H32  1  0.59749769  0.33077706  0.54231309  1  0  0.094291  0  0.953908  0  0  0.103831  0  1.015481  0  0  0.10741  0  1.012819  0  0  0.101587  0.101232  0  1.017449  0
H  H33  1  0.33077589  0.59749464  0.04231455  1  0  0.094297  0  0.953947  0  0  0.103846  0  1.015502  0  0  0.107424  0  1.012842  0  0  0.101598  0.101247  0  1.017472  0
H  H34  1  0.40250586  0.66922112  0.45768635  1  0  0.094317  0  0.95394  0  0  0.103863  0  1.015498  0  0  0.107442  0  1.012837  0  0  0.101606  0.101264  0  1.017468  0
H  H35  1  0.66922288  0.40250445  0.95768816  1  0  0.094268  0  0.953953  0  0  0.103829  0  1.015505  0  0  0.107407  0  1.012843  0  0  0.101577  0.101229  0  1.017472  0
H  H36  1  0.87736070  0.28078413  0.76109499  1  0  0.072664  0  0.935134  0  0  0.089549  0  1.00247  0  0  0.089635  0  1.002165  0  0  0.095111  0.089387  0  1.002766  0
H  H37  1  0.28078142  0.87736435  0.26109438  1  0  0.072701  0  0.935113  0  0  0.089581  0  1.002443  0  0  0.089668  0  1.002138  0  0  0.09511  0.08942  0  1.002741  0
H  H38  1  0.12263736  0.71921778  0.23890426  1  0  0.072709  0  0.935102  0  0  0.089593  0  1.00244  0  0  0.08968  0  1.002135  0  0  0.095116  0.08943  0  1.002739  0
H  H39  1  0.71921617  0.12263945  0.73890304  1  0  0.072707  0  0.935119  0  0  0.089588  0  1.002451  0  0  0.089675  0  1.002146  0  0  0.095114  0.089425  0  1.002748  0
H  H40  1  0.97276693  0.36753041  0.76784311  1  0  0.109855  0  0.91454  0  0  0.131546  0  0.96722  0  0  0.131456  0  0.967967  0  0  0.114474  0.131517  0  0.96674  0
H  H41  1  0.36752740  0.97277107  0.26784315  1  0  0.109883  0  0.914513  0  0  0.131581  0  0.967183  0  0  0.13149  0  0.967928  0  0  0.114473  0.131552  0  0.966704  0
H  H42  1  0.02722998  0.63247244  0.23215550  1  0  0.109869  0  0.914492  0  0  0.131594  0  0.967139  0  0  0.131504  0  0.967885  0  0  0.114494  0.131564  0  0.966659  0
H  H43  1  0.63247109  0.02723272  0.73215542  1  0  0.109902  0  0.91452  0  0  0.131591  0  0.967196  0  0  0.131501  0  0.967942  0  0  0.114486  0.131563  0  0.966715  0
H  H44  1  0.88353073  0.28440441  0.88621855  1  0  0.094037  0  0.958193  0  0  0.107747  0  1.02983  0  0  0.10813  0  1.029692  0  0  0.10053  0.107414  0  1.029985  0
H  H45  1  0.28440299  0.88353302  0.38621867  1  0  0.09405  0  0.95817  0  0  0.107756  0  1.029816  0  0  0.108138  0  1.02968  0  0  0.100538  0.107423  0  1.029975  0
H  H46  1  0.11646800  0.71559845  0.11378023  1  0  0.094088  0  0.958164  0  0  0.107781  0  1.029824  0  0  0.108164  0  1.029685  0  0  0.100538  0.107452  0  1.029977  0
H  H47  1  0.71559459  0.11647077  0.61377946  1  0  0.094093  0  0.958189  0  0  0.107799  0  1.029816  0  0  0.108182  0  1.029677  0  0  0.100553  0.107461  0  1.029976  0
C  C48  1  0.12487193  0.84207557  0.87608590  1  0  0.141292  0  3.722817  0  0  0.10847  0  3.979752  0  0  0.117744  0  3.997745  0  0  0.044685  0.102544  0  3.967494  0
C  C49  1  0.84207253  0.12487333  0.37608612  1  0  0.141217  0  3.722891  0  0  0.10838  0  3.979828  0  0  0.117655  0  3.99782  0  0  0.044647  0.102456  0  3.967564  0
C  C50  1  0.87512952  0.15792730  0.12391279  1  0  0.141362  0  3.722765  0  0  0.108523  0  3.979709  0  0  0.117798  0  3.997699  0  0  0.044703  0.102598  0  3.967447  0
C  C51  1  0.15792501  0.87513421  0.62391305  1  0  0.141306  0  3.722804  0  0  0.108485  0  3.97974  0  0  0.117761  0  3.997732  0  0  0.044694  0.10256  0  3.96748  0
C  C52  1  0.13782615  0.96361160  0.83772895  1  0  -0.228655  0  3.703542  0  0  -0.251008  0  3.961822  0  0  -0.262016  0  3.981057  0  0  -0.09238  -0.244002  0  3.949075  0
C  C53  1  0.96360902  0.13782940  0.33772844  1  0  -0.228611  0  3.703557  0  0  -0.250993  0  3.961861  0  0  -0.262  0  3.981092  0  0  -0.092419  -0.243987  0  3.949114  0
C  C54  1  0.86217100  0.03639031  0.16227199  1  0  -0.22868  0  3.703539  0  0  -0.251049  0  3.961806  0  0  -0.262057  0  3.981038  0  0  -0.092432  -0.244044  0  3.949058  0
C  C55  1  0.03638789  0.86217345  0.66227158  1  0  -0.228637  0  3.70335  0  0  -0.251017  0  3.961651  0  0  -0.262026  0  3.980887  0  0  -0.092402  -0.244008  0  3.948903  0
C  C56  1  0.02894731  0.06280335  0.84392232  1  0  0.327203  0  3.80491  0  0  0.311016  0  4.067102  0  0  0.328676  0  4.080936  0  0  0.107535  0.299204  0  4.057476  0
C  C57  1  0.06280159  0.02894905  0.34392240  1  0  0.32722  0  3.805097  0  0  0.311063  0  4.067243  0  0  0.328723  0  4.081078  0  0  0.107603  0.29925  0  4.05762  0
C  C58  1  0.97105256  0.93719858  0.15607781  1  0  0.327215  0  3.805007  0  0  0.311086  0  4.067084  0  0  0.328747  0  4.080919  0  0  0.107583  0.299276  0  4.057458  0
C  C59  1  0.93719599  0.97105475  0.65607715  1  0  0.327244  0  3.804951  0  0  0.311082  0  4.067109  0  0  0.328742  0  4.080944  0  0  0.107598  0.29927  0  4.057484  0
C  C60  1  0.91166289  0.03392878  0.89201231  1  0  -0.271356  0  3.754046  0  0  -0.289724  0  4.009714  0  0  -0.301866  0  4.030848  0  0  -0.107085  -0.281811  0  3.995469  0
C  C61  1  0.03392871  0.91166500  0.39201222  1  0  -0.271435  0  3.75411  0  0  -0.289811  0  4.009783  0  0  -0.301952  0  4.030913  0  0  -0.107104  -0.2819  0  3.995541  0
C  C62  1  0.08833698  0.96607315  0.10798499  1  0  -0.271349  0  3.754012  0  0  -0.28975  0  4.009662  0  0  -0.301897  0  4.030808  0  0  -0.1071  -0.281833  0  3.995405  0
C  C63  1  0.96607112  0.08834068  0.60798470  1  0  -0.271403  0  3.75409  0  0  -0.289804  0  4.009743  0  0  -0.301948  0  4.030885  0  0  -0.107139  -0.281891  0  3.9955  0
C  C64  1  0.90825307  0.90862408  0.92815042  1  0  0.16934  0  3.701232  0  0  0.134006  0  3.957917  0  0  0.145275  0  3.972891  0  0  0.053415  0.126739  0  3.9476  0
C  C65  1  0.90862364  0.90825423  0.42814958  1  0  0.169424  0  3.701062  0  0  0.134087  0  3.957756  0  0  0.145358  0  3.972728  0  0  0.053415  0.12682  0  3.94744  0
C  C66  1  0.09174795  0.09137691  0.07184894  1  0  0.169316  0  3.701261  0  0  0.134021  0  3.95793  0  0  0.145269  0  3.972904  0  0  0.053418  0.126754  0  3.947617  0
C  C67  1  0.09137642  0.09175051  0.57184896  1  0  0.169341  0  3.701191  0  0  0.134041  0  3.957873  0  0  0.145291  0  3.972848  0  0  0.053382  0.126774  0  3.947555  0
C  C68  1  0.48298387  0.46304870  0.63439531  1  0  -0.080287  0  3.79625  0  0  -0.089959  0  4.050763  0  0  -0.094934  0  4.073411  0  0  -0.09284  -0.086749  0  4.035362  0
C  C69  1  0.46304815  0.48298189  0.13439615  1  0  -0.080151  0  3.79624  0  0  -0.089828  0  4.050745  0  0  -0.094806  0  4.073398  0  0  -0.092793  -0.086617  0  4.035342  0
C  C70  1  0.51701877  0.53694948  0.36560440  1  0  -0.080205  0  3.796315  0  0  -0.089877  0  4.050813  0  0  -0.094855  0  4.073466  0  0  -0.092809  -0.086667  0  4.035412  0
C  C71  1  0.53695248  0.51701346  0.86560498  1  0  -0.080166  0  3.796107  0  0  -0.089847  0  4.05062  0  0  -0.094823  0  4.073271  0  0  -0.092802  -0.086635  0  4.035217  0
C  C72  1  0.16405367  0.46123754  0.82527485  1  0  0.660564  0  3.893411  0  0  0.610872  0  4.181111  0  0  0.646548  0  4.173484  0  0  0.211628  0.586716  0  4.185502  0
C  C73  1  0.46123951  0.16405013  0.32527455  1  0  0.660453  0  3.893569  0  0  0.610733  0  4.181309  0  0  0.64641  0  4.173687  0  0  0.211585  0.586577  0  4.185698  0
C  C74  1  0.83595083  0.53875689  0.17472825  1  0  0.660392  0  3.893701  0  0  0.61069  0  4.181405  0  0  0.646367  0  4.173781  0  0  0.21148  0.586534  0  4.185794  0
C  C75  1  0.53875635  0.83594614  0.67472913  1  0  0.660456  0  3.89356  0  0  0.610769  0  4.181265  0  0  0.646448  0  4.173636  0  0  0.211528  0.586614  0  4.185659  0
C  C76  1  0.27891323  0.42718493  0.74018050  1  0  -0.068801  0  3.770429  0  0  -0.042059  0  4.002052  0  0  -0.051483  0  4.025424  0  0  -0.02192  -0.036138  0  3.986289  0
C  C77  1  0.42718595  0.27891158  0.24018070  1  0  -0.06891  0  3.770506  0  0  -0.042144  0  4.002115  0  0  -0.051571  0  4.025489  0  0  -0.021956  -0.036222  0  3.986351  0
C  C78  1  0.72109008  0.57281419  0.25981945  1  0  -0.068891  0  3.770601  0  0  -0.042127  0  4.002182  0  0  -0.051551  0  4.025556  0  0  -0.021936  -0.036205  0  3.986418  0
C  C79  1  0.57281693  0.72108566  0.75981851  1  0  -0.068898  0  3.770533  0  0  -0.042149  0  4.002168  0  0  -0.051574  0  4.025539  0  0  -0.021952  -0.036229  0  3.98641  0
C  C80  1  0.44255090  0.18803193  0.58006477  1  0  0.657938  0  3.893287  0  0  0.608991  0  4.178565  0  0  0.644559  0  4.171715  0  0  0.212287  0.584863  0  4.182479  0
C  C81  1  0.18803293  0.44254598  0.08006754  1  0  0.657838  0  3.893356  0  0  0.608921  0  4.178603  0  0  0.64449  0  4.171751  0  0  0.212213  0.584792  0  4.182516  0
C  C82  1  0.55744448  0.81196621  0.41993708  1  0  0.657885  0  3.893426  0  0  0.608899  0  4.178747  0  0  0.644468  0  4.171894  0  0  0.212227  0.584772  0  4.182661  0
C  C83  1  0.81196732  0.55744373  0.91993677  1  0  0.657869  0  3.893419  0  0  0.608908  0  4.178718  0  0  0.644479  0  4.171863  0  0  0.212214  0.58478  0  4.182627  0
C  C84  1  0.41786555  0.29126144  0.62920018  1  0  -0.075413  0  3.76048  0  0  -0.048518  0  3.991055  0  0  -0.058474  0  4.014971  0  0  -0.022583  -0.042208  0  3.975035  0
C  C85  1  0.29126084  0.41786283  0.12920201  1  0  -0.075395  0  3.760452  0  0  -0.048501  0  3.991019  0  0  -0.05846  0  4.014937  0  0  -0.022583  -0.042189  0  3.974997  0
C  C86  1  0.58213437  0.70873673  0.37079892  1  0  -0.075374  0  3.76046  0  0  -0.048436  0  3.99101  0  0  -0.058391  0  4.014924  0  0  -0.022604  -0.042129  0  3.97499  0
C  C87  1  0.70873980  0.58213252  0.87079912  1  0  -0.075391  0  3.760435  0  0  -0.04847  0  3.991001  0  0  -0.058429  0  4.014917  0  0  -0.022567  -0.042161  0  3.974977  0
C  C88  1  0.30438431  0.32285371  0.70339680  1  0  -0.069688  0  3.684028  0  0  -0.10593  0  3.929862  0  0  -0.102507  0  3.94681  0  0  -0.079608  -0.107878  0  3.918491  0
C  C89  1  0.32285461  0.30438141  0.20339817  1  0  -0.069611  0  3.683946  0  0  -0.105866  0  3.929775  0  0  -0.10244  0  3.946723  0  0  -0.079584  -0.107816  0  3.918405  0
C  C90  1  0.69561833  0.67714447  0.29660291  1  0  -0.069665  0  3.684047  0  0  -0.105926  0  3.92986  0  0  -0.1025  0  3.946806  0  0  -0.0796  -0.107873  0  3.91849  0
C  C91  1  0.67714645  0.69561582  0.79660228  1  0  -0.069615  0  3.683988  0  0  -0.105871  0  3.929821  0  0  -0.102446  0  3.946771  0  0  -0.079578  -0.107818  0  3.918451  0
C  C92  1  0.36642422  0.49944641  0.70193641  1  0  -0.062873  0  3.739709  0  0  -0.092623  0  3.989867  0  0  -0.091097  0  4.009858  0  0  -0.084547  -0.093189  0  3.976199  0
C  C93  1  0.49944665  0.36642233  0.20193692  1  0  -0.062907  0  3.739831  0  0  -0.092657  0  3.989986  0  0  -0.091131  0  4.009976  0  0  -0.084541  -0.093222  0  3.976316  0
C  C94  1  0.63357932  0.50055177  0.29806374  1  0  -0.062884  0  3.739832  0  0  -0.09263  0  3.989996  0  0  -0.091105  0  4.00999  0  0  -0.084551  -0.093195  0  3.976327  0
C  C95  1  0.50055442  0.63357491  0.79806282  1  0  -0.062889  0  3.739627  0  0  -0.092659  0  3.989791  0  0  -0.091135  0  4.009782  0  0  -0.084534  -0.093226  0  3.976125  0
C  C96  1  0.50874298  0.35865748  0.59820835  1  0  -0.06904  0  3.751703  0  0  -0.094254  0  3.99872  0  0  -0.092302  0  4.018556  0  0  -0.085303  -0.095334  0  3.985279  0
C  C97  1  0.35865703  0.50874137  0.09820770  1  0  -0.069081  0  3.751738  0  0  -0.094303  0  3.998765  0  0  -0.09235  0  4.018603  0  0  -0.085311  -0.095384  0  3.985325  0
C  C98  1  0.49125785  0.64134069  0.40179260  1  0  -0.069102  0  3.751778  0  0  -0.094336  0  3.998804  0  0  -0.092385  0  4.01864  0  0  -0.085313  -0.095415  0  3.985364  0
C  C99  1  0.64134336  0.49125492  0.90179322  1  0  -0.069109  0  3.751813  0  0  -0.09435  0  3.998842  0  0  -0.092398  0  4.018678  0  0  -0.085345  -0.095428  0  3.985396  0
C  C100  1  0.93692236  0.28346935  0.80498994  1  0  -0.073337  0  3.614117  0  0  -0.173523  0  3.881562  0  0  -0.165992  0  3.886485  0  0  -0.137039  -0.178397  0  3.877959  0
C  C101  1  0.28346704  0.93692769  0.30498875  1  0  -0.073428  0  3.614148  0  0  -0.173607  0  3.881568  0  0  -0.166081  0  3.886502  0  0  -0.137037  -0.178474  0  3.877951  0
C  C102  1  0.06307455  0.71653350  0.19500937  1  0  -0.07346  0  3.614079  0  0  -0.173686  0  3.881554  0  0  -0.166157  0  3.886477  0  0  -0.137092  -0.178558  0  3.877944  0
C  C103  1  0.71653098  0.06307799  0.69500800  1  0  -0.073473  0  3.614173  0  0  -0.173663  0  3.881606  0  0  -0.166132  0  3.886528  0  0  -0.137089  -0.17853  0  3.878008  0
N  N104  1  0.01215197  0.81369361  0.91984182  1  0  -0.340369  0  3.278054  0  0  -0.262075  0  3.559609  0  0  -0.283469  0  3.573424  0  0  -0.342267  -0.247763  0  3.550014  0
N  N105  1  0.81369099  0.01215299  0.41984128  1  0  -0.340354  0  3.277984  0  0  -0.262062  0  3.559534  0  0  -0.283455  0  3.573347  0  0  -0.342256  -0.24775  0  3.549936  0
N  N106  1  0.98785062  0.18630832  0.08015751  1  0  -0.340397  0  3.278054  0  0  -0.262116  0  3.559616  0  0  -0.283512  0  3.573444  0  0  -0.342293  -0.247803  0  3.55002  0
N  N107  1  0.18630678  0.98785362  0.58015880  1  0  -0.340423  0  3.278191  0  0  -0.262099  0  3.559643  0  0  -0.283493  0  3.573466  0  0  -0.342275  -0.247787  0  3.550049  0
O  O108  1  0.12576412  0.57597724  0.82716468  1  0  -0.637245  0  2.063599  0  0  -0.574235  0  2.323691  0  0  -0.603329  0  2.311205  0  0  -0.318502  -0.553925  0  2.331574  0
O  O109  1  0.57597867  0.12575869  0.32716289  1  0  -0.637139  0  2.063672  0  0  -0.574113  0  2.32377  0  0  -0.603213  0  2.311298  0  0  -0.318471  -0.553803  0  2.331653  0
O  O110  1  0.87424171  0.42401907  0.17283960  1  0  -0.637142  0  2.063747  0  0  -0.574108  0  2.323815  0  0  -0.603211  0  2.31135  0  0  -0.318442  -0.553799  0  2.3317  0
O  O111  1  0.42401948  0.87423572  0.67283783  1  0  -0.63712  0  2.063658  0  0  -0.574131  0  2.323776  0  0  -0.603223  0  2.311285  0  0  -0.318416  -0.553822  0  2.331663  0
O  O112  1  0.11731589  0.37174736  0.89121844  1  0  -0.63116  0  2.061812  0  0  -0.5689  0  2.324605  0  0  -0.597328  0  2.31087  0  0  -0.316421  -0.549153  0  2.333329  0
O  O113  1  0.37174742  0.11731530  0.39121855  1  0  -0.631118  0  2.061815  0  0  -0.568859  0  2.324622  0  0  -0.597279  0  2.310877  0  0  -0.316399  -0.549113  0  2.333347  0
O  O114  1  0.88268379  0.62825175  0.10877975  1  0  -0.631086  0  2.061819  0  0  -0.568806  0  2.324582  0  0  -0.597235  0  2.310852  0  0  -0.316327  -0.549058  0  2.333304  0
O  O115  1  0.62825135  0.88268380  0.60878131  1  0  -0.631141  0  2.06176  0  0  -0.568885  0  2.324542  0  0  -0.59731  0  2.310798  0  0  -0.316409  -0.549135  0  2.333267  0
O  O116  1  0.55353480  0.15518897  0.52353896  1  0  -0.649029  0  2.107254  0  0  -0.583445  0  2.373561  0  0  -0.613141  0  2.361449  0  0  -0.317604  -0.562789  0  2.381102  0
O  O117  1  0.15518735  0.55352961  0.02354265  1  0  -0.649023  0  2.107338  0  0  -0.583449  0  2.37362  0  0  -0.613142  0  2.3615  0  0  -0.317593  -0.562794  0  2.381165  0
O  O118  1  0.44646560  0.84480733  0.47645913  1  0  -0.648995  0  2.107467  0  0  -0.583402  0  2.373773  0  0  -0.613099  0  2.361667  0  0  -0.317574  -0.562746  0  2.38131  0
O  O119  1  0.84480808  0.44646477  0.97646100  1  0  -0.648976  0  2.107416  0  0  -0.583402  0  2.373737  0  0  -0.613097  0  2.361627  0  0  -0.317557  -0.562751  0  2.381284  0
O  O120  1  0.35122921  0.14265338  0.59674671  1  0  -0.623161  0  2.052992  0  0  -0.560477  0  2.311239  0  0  -0.588665  0  2.296976  0  0  -0.316554  -0.540829  0  2.320301  0
O  O121  1  0.14265376  0.35122330  0.09674993  1  0  -0.623093  0  2.052991  0  0  -0.560421  0  2.311221  0  0  -0.588609  0  2.296957  0  0  -0.316507  -0.540774  0  2.320281  0
O  O122  1  0.64876956  0.85734572  0.40325457  1  0  -0.623143  0  2.052911  0  0  -0.560444  0  2.311151  0  0  -0.588634  0  2.296889  0  0  -0.316512  -0.540796  0  2.320214  0
O  O123  1  0.85734849  0.64876924  0.90325225  1  0  -0.623131  0  2.052906  0  0  -0.560453  0  2.311165  0  0  -0.588643  0  2.296899  0  0  -0.316533  -0.540805  0  2.320226  0
O  O124  1  0.04604695  0.17951700  0.80180624  1  0  -0.2282  0  2.344399  0  0  -0.150551  0  2.581177  0  0  -0.17074  0  2.583834  0  0  -0.163741  -0.136359  0  2.578741  0
O  O125  1  0.17951429  0.04605074  0.30180665  1  0  -0.228183  0  2.344506  0  0  -0.150546  0  2.581281  0  0  -0.170734  0  2.583939  0  0  -0.163759  -0.136354  0  2.578849  0
O  O126  1  0.95395131  0.82048773  0.19819142  1  0  -0.22818  0  2.34445  0  0  -0.15052  0  2.581198  0  0  -0.170707  0  2.583855  0  0  -0.163714  -0.13633  0  2.578764  0
O  O127  1  0.82048577  0.95395400  0.69819047  1  0  -0.228204  0  2.344583  0  0  -0.150541  0  2.581342  0  0  -0.17073  0  2.583997  0  0  -0.16371  -0.13635  0  2.578906  0
