# generated using pymatgen
data_SmH12C11O8
_symmetry_space_group_name_H-M   'P 1'
_cell_length_a   5.86619129
_cell_length_b   13.33343026
_cell_length_c   15.59659265
_cell_angle_alpha   93.46638870
_cell_angle_beta   90.00015697
_cell_angle_gamma   89.99970851
_symmetry_Int_Tables_number   1
_chemical_formula_structural   SmH12C11O8
_chemical_formula_sum   'Sm4 H48 C44 O32'
_cell_volume   1217.67824872
_cell_formula_units_Z   4
loop_
 _symmetry_equiv_pos_site_id
 _symmetry_equiv_pos_as_xyz
  1  'x, y, z'
loop_
 _atom_site_type_symbol
 _atom_site_label
 _atom_site_symmetry_multiplicity
 _atom_site_fract_x
 _atom_site_fract_y
 _atom_site_fract_z
 _atom_site_occupancy
 _atom_site_hle17_bader_spin_density
 _atom_site_hle17_ddec_charge
 _atom_site_hle17_ddec_spin_density
 _atom_site_hle17_ddec_sum_bond_order
 _atom_site_hle17_magmom
 _atom_site_hse06_10hf_bader_spin_density
 _atom_site_hse06_10hf_ddec_charge
 _atom_site_hse06_10hf_ddec_spin_density
 _atom_site_hse06_10hf_ddec_sum_bond_order
 _atom_site_hse06_10hf_magmom
 _atom_site_hse06_bader_spin_density
 _atom_site_hse06_ddec_charge
 _atom_site_hse06_ddec_spin_density
 _atom_site_hse06_ddec_sum_bond_order
 _atom_site_hse06_magmom
 _atom_site_pbe_bader_spin_density
 _atom_site_pbe_cm5_charge
 _atom_site_pbe_ddec_charge
 _atom_site_pbe_ddec_spin_density
 _atom_site_pbe_ddec_sum_bond_order
 _atom_site_pbe_magmom
Sm  Sm0  1  0.06029252  0.13282804  0.58234688  1  0  2.263342  0  1.608494  0  0  2.105462  0  2.073392  0  0  2.216304  0  1.908351  0  0  1.502366  2.071979  0  2.104826  0
Sm  Sm1  1  0.56027987  0.36717608  0.91765318  1  0  2.263337  0  1.608507  0  0  2.1055  0  2.073297  0  0  2.216278  0  1.908352  0  0  1.502314  2.072005  0  2.104737  0
Sm  Sm2  1  0.93972683  0.86717997  0.41765142  1  0  2.263373  0  1.608542  0  0  2.105484  0  2.073447  0  0  2.216331  0  1.908394  0  0  1.502389  2.071998  0  2.104883  0
Sm  Sm3  1  0.43971732  0.63281766  0.08234694  1  0  2.263344  0  1.608518  0  0  2.105481  0  2.073383  0  0  2.216303  0  1.90837  0  0  1.502334  2.071989  0  2.104819  0
H  H4  1  0.30908313  0.97216249  0.84327506  1  0  0.101431  0  0.969135  0  0  0.108785  0  1.037781  0  0  0.111965  0  1.035777  0  0  0.107549  0.106483  0  1.039256  0
H  H5  1  0.80907888  0.52783221  0.65672797  1  0  0.101362  0  0.969184  0  0  0.108759  0  1.0378  0  0  0.111939  0  1.035797  0  0  0.107523  0.106455  0  1.039286  0
H  H6  1  0.69092770  0.02783726  0.15672474  1  0  0.101389  0  0.969165  0  0  0.108749  0  1.037811  0  0  0.111929  0  1.035807  0  0  0.107536  0.106444  0  1.039296  0
H  H7  1  0.19090126  0.47217055  0.34327519  1  0  0.101393  0  0.969276  0  0  0.10885  0  1.037791  0  0  0.112029  0  1.03579  0  0  0.107565  0.106546  0  1.039267  0
H  H8  1  0.55364014  0.86342254  0.93053614  1  0  0.109328  0  0.957699  0  0  0.118381  0  1.019489  0  0  0.122242  0  1.017144  0  0  0.108767  0.115641  0  1.021255  0
H  H9  1  0.05362990  0.63657210  0.56947039  1  0  0.10932  0  0.957677  0  0  0.118401  0  1.019452  0  0  0.122266  0  1.017104  0  0  0.108807  0.115661  0  1.021217  0
H  H10  1  0.44636898  0.13657346  0.06946218  1  0  0.109321  0  0.957736  0  0  0.118398  0  1.019486  0  0  0.12226  0  1.017141  0  0  0.108791  0.115661  0  1.021252  0
H  H11  1  0.94635877  0.36343215  0.43053990  1  0  0.109276  0  0.957747  0  0  0.118369  0  1.019513  0  0  0.122231  0  1.017164  0  0  0.108766  0.115622  0  1.021275  0
H  H12  1  0.90391595  0.78463276  0.86302408  1  0  0.091385  0  0.965663  0  0  0.099796  0  1.031027  0  0  0.103099  0  1.028769  0  0  0.101691  0.097435  0  1.032551  0
H  H13  1  0.40389381  0.71536703  0.63698143  1  0  0.091277  0  0.965855  0  0  0.099669  0  1.03122  0  0  0.102973  0  1.028957  0  0  0.101658  0.097304  0  1.032752  0
H  H14  1  0.09609317  0.21536774  0.13697255  1  0  0.091325  0  0.965712  0  0  0.099745  0  1.031069  0  0  0.103048  0  1.028809  0  0  0.10168  0.097393  0  1.03258  0
H  H15  1  0.59609315  0.28463648  0.36302690  1  0  0.091337  0  0.965712  0  0  0.099779  0  1.031048  0  0  0.103081  0  1.02879  0  0  0.101729  0.097428  0  1.032564  0
H  H16  1  0.98860265  0.80562081  0.71032424  1  0  0.09459  0  0.977954  0  0  0.105847  0  1.038064  0  0  0.107878  0  1.039236  0  0  0.101982  0.104283  0  1.037541  0
H  H17  1  0.48858447  0.69438250  0.78967922  1  0  0.094646  0  0.97784  0  0  0.105869  0  1.037994  0  0  0.107899  0  1.039169  0  0  0.101994  0.104306  0  1.03747  0
H  H18  1  0.01140136  0.19438645  0.28967338  1  0  0.094594  0  0.977884  0  0  0.10583  0  1.038019  0  0  0.10786  0  1.039195  0  0  0.101979  0.104265  0  1.037501  0
H  H19  1  0.51140079  0.30561124  0.21032796  1  0  0.094562  0  0.977907  0  0  0.105816  0  1.038028  0  0  0.107846  0  1.039204  0  0  0.10197  0.104255  0  1.037506  0
H  H20  1  0.61935222  0.37773806  0.59365650  1  0  0.115926  0  0.917734  0  0  0.132844  0  0.972613  0  0  0.135477  0  0.970961  0  0  0.109087  0.131074  0  0.973563  0
H  H21  1  0.11935133  0.12225891  0.90633463  1  0  0.115906  0  0.917764  0  0  0.132809  0  0.972657  0  0  0.135428  0  0.971023  0  0  0.109068  0.131038  0  0.973605  0
H  H22  1  0.38065179  0.62226921  0.40633919  1  0  0.115957  0  0.917811  0  0  0.132862  0  0.972656  0  0  0.135496  0  0.971002  0  0  0.1091  0.131095  0  0.973596  0
H  H23  1  0.88065098  0.87772356  0.09365016  1  0  0.115926  0  0.917871  0  0  0.132843  0  0.972729  0  0  0.135475  0  0.971076  0  0  0.10908  0.131078  0  0.97367  0
H  H24  1  0.42770701  0.46122729  0.64599308  1  0  0.119813  0  0.928833  0  0  0.135736  0  0.988512  0  0  0.137199  0  0.989286  0  0  0.10883  0.134775  0  0.987793  0
H  H25  1  0.92771015  0.03877081  0.85400468  1  0  0.119762  0  0.928876  0  0  0.1357  0  0.988539  0  0  0.137163  0  0.98931  0  0  0.108812  0.134733  0  0.987825  0
H  H26  1  0.57228507  0.53877922  0.35400771  1  0  0.119801  0  0.928953  0  0  0.135723  0  0.988613  0  0  0.137187  0  0.989383  0  0  0.108821  0.134758  0  0.9879  0
H  H27  1  0.07227340  0.96122068  0.14599341  1  0  0.119867  0  0.928839  0  0  0.135789  0  0.988515  0  0  0.137252  0  0.989287  0  0  0.108843  0.134827  0  0.987799  0
H  H28  1  0.23860441  0.49436100  0.50658816  1  0  0.067567  0  0.944118  0  0  0.086115  0  1.007041  0  0  0.086816  0  1.007381  0  0  0.091617  0.085549  0  1.006889  0
H  H29  1  0.73861336  0.00564195  0.99340990  1  0  0.0676  0  0.944145  0  0  0.086188  0  1.007009  0  0  0.086891  0  1.00735  0  0  0.091634  0.08562  0  1.006852  0
H  H30  1  0.76137744  0.50565077  0.49341290  1  0  0.067574  0  0.944252  0  0  0.086154  0  1.007103  0  0  0.086855  0  1.007446  0  0  0.091644  0.085587  0  1.006947  0
H  H31  1  0.26138725  0.99435179  0.00658766  1  0  0.067611  0  0.944106  0  0  0.086166  0  1.007005  0  0  0.086867  0  1.007346  0  0  0.091665  0.085604  0  1.006851  0
H  H32  1  0.41180510  0.40375963  0.45185181  1  0  0.060717  0  0.948293  0  0  0.080608  0  1.009601  0  0  0.080765  0  1.01072  0  0  0.089258  0.080479  0  1.008801  0
H  H33  1  0.91181478  0.09624352  0.04814258  1  0  0.060793  0  0.948226  0  0  0.080657  0  1.00958  0  0  0.080813  0  1.010702  0  0  0.089268  0.08053  0  1.008777  0
H  H34  1  0.58818528  0.59624914  0.54814589  1  0  0.06071  0  0.94831  0  0  0.080556  0  1.009682  0  0  0.080711  0  1.010807  0  0  0.089231  0.080429  0  1.00888  0
H  H35  1  0.08819946  0.90375473  0.95185137  1  0  0.060743  0  0.948268  0  0  0.080581  0  1.009651  0  0  0.080737  0  1.010773  0  0  0.089249  0.080455  0  1.008849  0
H  H36  1  0.59828036  0.19080521  0.49070501  1  0  0.449989  0  0.834517  0  0  0.427582  0  0.882899  0  0  0.43705  0  0.869428  0  0  0.318872  0.421073  0  0.892322  0
H  H37  1  0.09827166  0.30919301  0.00929668  1  0  0.450202  0  0.834207  0  0  0.427734  0  0.882689  0  0  0.437204  0  0.869211  0  0  0.318963  0.421225  0  0.892113  0
H  H38  1  0.40173558  0.80920055  0.50929638  1  0  0.450188  0  0.834213  0  0  0.427705  0  0.882722  0  0  0.437174  0  0.869247  0  0  0.318974  0.421197  0  0.892142  0
H  H39  1  0.90172042  0.69079998  0.99070597  1  0  0.449984  0  0.834506  0  0  0.427542  0  0.882925  0  0  0.437008  0  0.86946  0  0  0.318904  0.421034  0  0.892346  0
H  H40  1  0.70325689  0.09071956  0.45688191  1  0  0.434819  0  0.874063  0  0  0.403037  0  0.939987  0  0  0.41331  0  0.925483  0  0  0.304073  0.395622  0  0.95069  0
H  H41  1  0.20324226  0.40928307  0.04311834  1  0  0.434769  0  0.874138  0  0  0.403003  0  0.940058  0  0  0.413275  0  0.925557  0  0  0.304074  0.395588  0  0.950761  0
H  H42  1  0.29676076  0.90928696  0.54311823  1  0  0.434702  0  0.874224  0  0  0.402924  0  0.940158  0  0  0.413198  0  0.925654  0  0  0.304057  0.395507  0  0.950864  0
H  H43  1  0.79674641  0.59071067  0.95688435  1  0  0.434727  0  0.874178  0  0  0.402963  0  0.940103  0  0  0.413236  0  0.925601  0  0  0.30408  0.395548  0  0.950805  0
H  H44  1  0.80394639  0.21368411  0.74294715  1  0  0.445481  0  0.84631  0  0  0.418557  0  0.901515  0  0  0.428763  0  0.886918  0  0  0.309251  0.411475  0  0.911806  0
H  H45  1  0.30393538  0.28631924  0.75705070  1  0  0.445421  0  0.846412  0  0  0.418517  0  0.901581  0  0  0.428722  0  0.886988  0  0  0.309237  0.411441  0  0.911865  0
H  H46  1  0.19605762  0.78631639  0.25705269  1  0  0.445451  0  0.846358  0  0  0.418525  0  0.901565  0  0  0.428733  0  0.886967  0  0  0.30922  0.411443  0  0.911857  0
H  H47  1  0.69606523  0.71367976  0.24294714  1  0  0.445316  0  0.846566  0  0  0.418441  0  0.901681  0  0  0.42865  0  0.887083  0  0  0.309197  0.411366  0  0.911963  0
H  H48  1  0.61979294  0.21637869  0.66776171  1  0  0.448642  0  0.846125  0  0  0.417929  0  0.908306  0  0  0.429431  0  0.891732  0  0  0.304694  0.409934  0  0.919947  0
H  H49  1  0.11977830  0.28362429  0.83223551  1  0  0.448742  0  0.846032  0  0  0.418002  0  0.908255  0  0  0.429508  0  0.891676  0  0  0.304711  0.410003  0  0.919904  0
H  H50  1  0.38021619  0.78362708  0.33223455  1  0  0.448716  0  0.846044  0  0  0.417993  0  0.908238  0  0  0.429498  0  0.891661  0  0  0.304702  0.409999  0  0.919879  0
H  H51  1  0.88021718  0.71636869  0.16776394  1  0  0.448791  0  0.845958  0  0  0.418041  0  0.908204  0  0  0.429549  0  0.891619  0  0  0.304731  0.41004  0  0.919855  0
C  C52  1  0.69467639  0.89828359  0.68962295  1  0  -0.044795  0  3.685989  0  0  -0.031059  0  3.916926  0  0  -0.033119  0  3.934724  0  0  0.003969  -0.029347  0  3.904082  0
C  C53  1  0.19464889  0.60172318  0.81038113  1  0  -0.044847  0  3.685788  0  0  -0.031243  0  3.916885  0  0  -0.03331  0  3.934687  0  0  0.003935  -0.02953  0  3.904042  0
C  C54  1  0.30534637  0.10172668  0.31037804  1  0  -0.044807  0  3.685802  0  0  -0.031294  0  3.917013  0  0  -0.033363  0  3.934816  0  0  0.003896  -0.029585  0  3.904172  0
C  C55  1  0.80533637  0.39827206  0.18962292  1  0  -0.044952  0  3.686042  0  0  -0.031297  0  3.9171  0  0  -0.033367  0  3.934913  0  0  0.003882  -0.029584  0  3.904256  0
C  C56  1  0.50431380  0.94694011  0.72825420  1  0  -0.084003  0  3.734374  0  0  -0.068871  0  3.964722  0  0  -0.075989  0  3.985774  0  0  -0.012147  -0.063843  0  3.949802  0
C  C57  1  0.00429939  0.55306175  0.77174968  1  0  -0.083949  0  3.734129  0  0  -0.068752  0  3.964461  0  0  -0.075871  0  3.985518  0  0  -0.012134  -0.063725  0  3.949543  0
C  C58  1  0.49570044  0.05306866  0.27174671  1  0  -0.084124  0  3.734297  0  0  -0.068908  0  3.964631  0  0  -0.076027  0  3.985688  0  0  -0.012166  -0.063882  0  3.949718  0
C  C59  1  0.99568928  0.44693199  0.22825237  1  0  -0.083873  0  3.73432  0  0  -0.068714  0  3.964624  0  0  -0.075832  0  3.985683  0  0  -0.012127  -0.063688  0  3.949706  0
C  C60  1  0.45807807  0.93447546  0.81519856  1  0  -0.053031  0  3.705092  0  0  -0.077813  0  3.954903  0  0  -0.07704  0  3.974265  0  0  -0.07496  -0.078083  0  3.9416  0
C  C61  1  0.95806263  0.56552692  0.68480304  1  0  -0.053019  0  3.704997  0  0  -0.077851  0  3.954828  0  0  -0.077079  0  3.974196  0  0  -0.074948  -0.078122  0  3.941523  0
C  C62  1  0.54193958  0.06552880  0.18479891  1  0  -0.052907  0  3.705019  0  0  -0.077678  0  3.954791  0  0  -0.076907  0  3.974157  0  0  -0.074927  -0.077947  0  3.941487  0
C  C63  1  0.04192263  0.43447509  0.31519880  1  0  -0.053136  0  3.705258  0  0  -0.078001  0  3.955076  0  0  -0.07723  0  3.97444  0  0  -0.074996  -0.07827  0  3.941772  0
C  C64  1  0.59694083  0.87518757  0.86386957  1  0  -0.070653  0  3.73168  0  0  -0.085976  0  3.98682  0  0  -0.088341  0  4.005187  0  0  -0.082801  -0.084478  0  3.974194  0
C  C65  1  0.09693225  0.62480809  0.63613493  1  0  -0.070538  0  3.731825  0  0  -0.085926  0  3.98702  0  0  -0.088289  0  4.005372  0  0  -0.082836  -0.084423  0  3.974386  0
C  C66  1  0.40307000  0.12481218  0.13612766  1  0  -0.070709  0  3.731779  0  0  -0.086068  0  3.986951  0  0  -0.088433  0  4.005318  0  0  -0.08286  -0.084578  0  3.974331  0
C  C67  1  0.90305642  0.37519391  0.36387268  1  0  -0.070504  0  3.731774  0  0  -0.08589  0  3.986961  0  0  -0.088253  0  4.005328  0  0  -0.082801  -0.08438  0  3.974324  0
C  C68  1  0.79074168  0.83034415  0.82600273  1  0  -0.048799  0  3.73787  0  0  -0.064431  0  3.992558  0  0  -0.063908  0  4.010179  0  0  -0.079529  -0.064432  0  3.980386  0
C  C69  1  0.29072701  0.66965043  0.67399716  1  0  -0.048692  0  3.73822  0  0  -0.064285  0  3.992851  0  0  -0.063756  0  4.010471  0  0  -0.079475  -0.064286  0  3.980678  0
C  C70  1  0.20926062  0.16965485  0.17399383  1  0  -0.048752  0  3.737851  0  0  -0.064376  0  3.992518  0  0  -0.063854  0  4.01014  0  0  -0.079529  -0.064382  0  3.980344  0
C  C71  1  0.70926166  0.33035007  0.32600653  1  0  -0.048722  0  3.737881  0  0  -0.064364  0  3.992554  0  0  -0.063843  0  4.010177  0  0  -0.079543  -0.064373  0  3.98038  0
C  C72  1  0.83909296  0.84191682  0.73959944  1  0  -0.084773  0  3.717944  0  0  -0.107316  0  3.964657  0  0  -0.110438  0  3.985878  0  0  -0.08341  -0.10517  0  3.950115  0
C  C73  1  0.33908073  0.65808257  0.76040244  1  0  -0.084797  0  3.71758  0  0  -0.107279  0  3.96432  0  0  -0.110404  0  3.985546  0  0  -0.083393  -0.105134  0  3.949778  0
C  C74  1  0.16091446  0.15808744  0.26039803  1  0  -0.084665  0  3.717621  0  0  -0.107131  0  3.96438  0  0  -0.110253  0  3.985606  0  0  -0.083327  -0.104989  0  3.949845  0
C  C75  1  0.66090453  0.34191418  0.23960169  1  0  -0.084678  0  3.717729  0  0  -0.107205  0  3.964474  0  0  -0.110326  0  3.985701  0  0  -0.083367  -0.105062  0  3.949939  0
C  C76  1  0.75611637  0.89981697  0.59628895  1  0  0.728529  0  3.837625  0  0  0.678336  0  4.12989  0  0  0.714327  0  4.122365  0  0  0.234638  0.653651  0  4.138829  0
C  C77  1  0.25610297  0.60018417  0.90371333  1  0  0.72836  0  3.837721  0  0  0.678229  0  4.129907  0  0  0.714235  0  4.122369  0  0  0.234566  0.653543  0  4.138847  0
C  C78  1  0.24389276  0.10018879  0.40371052  1  0  0.72844  0  3.837956  0  0  0.678306  0  4.130201  0  0  0.714314  0  4.12267  0  0  0.234673  0.653626  0  4.139129  0
C  C79  1  0.74388911  0.39980806  0.09629121  1  0  0.728718  0  3.83761  0  0  0.678475  0  4.129947  0  0  0.714472  0  4.122439  0  0  0.234792  0.65379  0  4.138882  0
C  C80  1  0.34928609  0.01078327  0.67927763  1  0  0.64759  0  3.905719  0  0  0.600804  0  4.195044  0  0  0.633914  0  4.192831  0  0  0.201851  0.577705  0  4.200176  0
C  C81  1  0.84926438  0.48922111  0.82072458  1  0  0.64748  0  3.905746  0  0  0.600689  0  4.195086  0  0  0.633798  0  4.192877  0  0  0.201867  0.577589  0  4.200214  0
C  C82  1  0.65073497  0.98922926  0.32072283  1  0  0.64764  0  3.905592  0  0  0.600861  0  4.194872  0  0  0.633969  0  4.192663  0  0  0.201872  0.577762  0  4.20001  0
C  C83  1  0.15071576  0.51077413  0.17927434  1  0  0.647414  0  3.905719  0  0  0.600699  0  4.194928  0  0  0.633805  0  4.192727  0  0  0.201818  0.577599  0  4.200057  0
C  C84  1  0.28040825  0.32381744  0.60180663  1  0  0.713188  0  3.815667  0  0  0.666608  0  4.11309  0  0  0.698718  0  4.110988  0  0  0.20778  0.644075  0  4.118226  0
C  C85  1  0.78041572  0.17618126  0.89819042  1  0  0.713262  0  3.815527  0  0  0.666625  0  4.11304  0  0  0.698743  0  4.110917  0  0  0.207773  0.644089  0  4.118175  0
C  C86  1  0.71959406  0.67618907  0.39819352  1  0  0.713115  0  3.815764  0  0  0.66646  0  4.113262  0  0  0.698573  0  4.111155  0  0  0.207719  0.643932  0  4.118393  0
C  C87  1  0.21959852  0.82381098  0.10180899  1  0  0.71326  0  3.815531  0  0  0.666581  0  4.113075  0  0  0.698694  0  4.110969  0  0  0.207803  0.644049  0  4.118206  0
C  C88  1  0.44523321  0.40783019  0.58947670  1  0  -0.270369  0  3.666279  0  0  -0.305703  0  3.911673  0  0  -0.311315  0  3.918915  0  0  -0.160787  -0.301416  0  3.905604  0
C  C89  1  0.94522543  0.09217177  0.91051863  1  0  -0.270358  0  3.666554  0  0  -0.305619  0  3.911879  0  0  -0.311225  0  3.919121  0  0  -0.160728  -0.301323  0  3.905798  0
C  C90  1  0.55476739  0.59217782  0.41052224  1  0  -0.270412  0  3.66673  0  0  -0.305599  0  3.911836  0  0  -0.311213  0  3.919084  0  0  -0.160772  -0.301308  0  3.905754  0
C  C91  1  0.05476495  0.90782122  0.08947313  1  0  -0.270534  0  3.666615  0  0  -0.305753  0  3.911847  0  0  -0.311364  0  3.919096  0  0  -0.16085  -0.301468  0  3.905775  0
C  C92  1  0.40928681  0.46022127  0.50636369  1  0  -0.085058  0  3.695538  0  0  -0.127365  0  3.955059  0  0  -0.12757  0  3.969455  0  0  -0.166871  -0.12689  0  3.944628  0
C  C93  1  0.90929385  0.03978273  0.99362995  1  0  -0.085208  0  3.695605  0  0  -0.127528  0  3.955182  0  0  -0.127733  0  3.969571  0  0  -0.166911  -0.127047  0  3.944746  0
C  C94  1  0.59069845  0.53979126  0.49363228  1  0  -0.085188  0  3.695859  0  0  -0.127515  0  3.955394  0  0  -0.127723  0  3.96979  0  0  -0.166951  -0.127036  0  3.944961  0
C  C95  1  0.09070675  0.96021326  0.00636324  1  0  -0.085115  0  3.695572  0  0  -0.127429  0  3.955167  0  0  -0.127632  0  3.969555  0  0  -0.166919  -0.126954  0  3.94474  0
O  O96  1  0.37729741  0.01353094  0.59692248  1  0  -0.716531  0  2.038437  0  0  -0.6551  0  2.27398  0  0  -0.686036  0  2.263661  0  0  -0.370519  -0.637876  0  2.280469  0
O  O97  1  0.87729283  0.48646910  0.90307749  1  0  -0.716452  0  2.038438  0  0  -0.65502  0  2.273974  0  0  -0.685954  0  2.263663  0  0  -0.370516  -0.637778  0  2.280426  0
O  O98  1  0.62271683  0.98647407  0.40307759  1  0  -0.716509  0  2.038283  0  0  -0.655088  0  2.273873  0  0  -0.686025  0  2.263554  0  0  -0.37049  -0.637844  0  2.280312  0
O  O99  1  0.12270265  0.51352689  0.09692212  1  0  -0.716391  0  2.038563  0  0  -0.654987  0  2.274069  0  0  -0.685926  0  2.263755  0  0  -0.370482  -0.637773  0  2.280577  0
O  O100  1  0.19184086  0.06169195  0.71692723  1  0  -0.663326  0  1.950021  0  0  -0.617296  0  2.189255  0  0  -0.64763  0  2.18083  0  0  -0.365127  -0.601018  0  2.194143  0
O  O101  1  0.69181706  0.43831072  0.78307291  1  0  -0.663295  0  1.949934  0  0  -0.617261  0  2.189141  0  0  -0.647588  0  2.180721  0  0  -0.36515  -0.600982  0  2.194026  0
O  O102  1  0.80818020  0.93831757  0.28307500  1  0  -0.663426  0  1.949991  0  0  -0.617422  0  2.189264  0  0  -0.647757  0  2.180838  0  0  -0.365222  -0.601148  0  2.194154  0
O  O103  1  0.30816479  0.56168527  0.21692733  1  0  -0.663345  0  1.949776  0  0  -0.617334  0  2.188955  0  0  -0.64767  0  2.180537  0  0  -0.365159  -0.601055  0  2.193842  0
O  O104  1  0.88423621  0.96889193  0.56968709  1  0  -0.795638  0  2.129925  0  0  -0.737897  0  2.393094  0  0  -0.778148  0  2.381107  0  0  -0.414476  -0.719715  0  2.400207  0
O  O105  1  0.38420900  0.53110924  0.93031921  1  0  -0.795593  0  2.130004  0  0  -0.737839  0  2.393109  0  0  -0.778062  0  2.381061  0  0  -0.414486  -0.719657  0  2.400221  0
O  O106  1  0.11578485  0.03111458  0.43031563  1  0  -0.795654  0  2.130198  0  0  -0.737862  0  2.393255  0  0  -0.77808  0  2.381186  0  0  -0.414535  -0.719684  0  2.40036  0
O  O107  1  0.61577456  0.46888074  0.06968585  1  0  -0.795814  0  2.130002  0  0  -0.738042  0  2.393184  0  0  -0.778224  0  2.381051  0  0  -0.414601  -0.719857  0  2.400292  0
O  O108  1  0.70112774  0.82533343  0.54550506  1  0  -0.702596  0  1.991643  0  0  -0.649969  0  2.229643  0  0  -0.68109  0  2.218247  0  0  -0.354693  -0.63266  0  2.236361  0
O  O109  1  0.20111223  0.67466812  0.95449808  1  0  -0.702447  0  1.991732  0  0  -0.64988  0  2.229767  0  0  -0.680987  0  2.218318  0  0  -0.354634  -0.632565  0  2.236466  0
O  O110  1  0.29889162  0.17467308  0.45449508  1  0  -0.702448  0  1.991791  0  0  -0.649896  0  2.229867  0  0  -0.680999  0  2.218396  0  0  -0.354627  -0.632577  0  2.236552  0
O  O111  1  0.79888496  0.32532186  0.04550763  1  0  -0.702578  0  1.991678  0  0  -0.649946  0  2.229745  0  0  -0.681049  0  2.218307  0  0  -0.354655  -0.632632  0  2.236453  0
O  O112  1  0.74636200  0.15653604  0.48719303  1  0  -0.91049  0  1.838896  0  0  -0.861186  0  2.029716  0  0  -0.889093  0  1.995766  0  0  -0.651881  -0.847453  0  2.049604  0
O  O113  1  0.24634982  0.34346459  0.01280889  1  0  -0.910655  0  1.838712  0  0  -0.861377  0  2.02959  0  0  -0.889278  0  1.995645  0  0  -0.651986  -0.847637  0  2.049481  0
O  O114  1  0.25365224  0.84347047  0.51280840  1  0  -0.91058  0  1.838761  0  0  -0.861251  0  2.029632  0  0  -0.889153  0  1.995679  0  0  -0.651993  -0.847512  0  2.049525  0
O  O115  1  0.75364226  0.65652840  0.98719376  1  0  -0.91042  0  1.839006  0  0  -0.861129  0  2.029853  0  0  -0.889036  0  1.995903  0  0  -0.651939  -0.847393  0  2.049742  0
O  O116  1  0.77245013  0.18911258  0.68295962  1  0  -0.926717  0  1.804217  0  0  -0.878679  0  1.999898  0  0  -0.906375  0  1.960595  0  0  -0.653932  -0.865895  0  2.022921  0
O  O117  1  0.27243506  0.31089209  0.81703712  1  0  -0.926759  0  1.804257  0  0  -0.878711  0  1.999915  0  0  -0.906399  0  1.960619  0  0  -0.653911  -0.865928  0  2.022928  0
O  O118  1  0.22755389  0.81088867  0.31703897  1  0  -0.926762  0  1.804256  0  0  -0.878708  0  1.999942  0  0  -0.906403  0  1.96063  0  0  -0.65393  -0.86593  0  2.022967  0
O  O119  1  0.72756214  0.68910165  0.18296300  1  0  -0.926712  0  1.804354  0  0  -0.878667  0  2.000013  0  0  -0.906367  0  1.960706  0  0  -0.653894  -0.865885  0  2.023026  0
O  O120  1  0.34784172  0.24936267  0.64719502  1  0  -0.779421  0  2.038804  0  0  -0.707873  0  2.264544  0  0  -0.740966  0  2.252708  0  0  -0.384734  -0.689414  0  2.271825  0
O  O121  1  0.84783296  0.25063569  0.85280369  1  0  -0.77946  0  2.03879  0  0  -0.707847  0  2.264524  0  0  -0.740948  0  2.252693  0  0  -0.384699  -0.689379  0  2.271802  0
O  O122  1  0.65217593  0.75064534  0.35280393  1  0  -0.779446  0  2.038684  0  0  -0.707885  0  2.264456  0  0  -0.740995  0  2.252628  0  0  -0.384778  -0.68942  0  2.271718  0
O  O123  1  0.15217106  0.74935354  0.14719941  1  0  -0.779604  0  2.038517  0  0  -0.70799  0  2.264306  0  0  -0.741105  0  2.252481  0  0  -0.384809  -0.689512  0  2.271571  0
O  O124  1  0.08421565  0.32035169  0.56903435  1  0  -0.656085  0  1.937454  0  0  -0.609816  0  2.174589  0  0  -0.640153  0  2.165855  0  0  -0.350349  -0.593488  0  2.17996  0
O  O125  1  0.58421062  0.17964657  0.93095826  1  0  -0.656118  0  1.937289  0  0  -0.609873  0  2.174486  0  0  -0.640201  0  2.165744  0  0  -0.350383  -0.593546  0  2.17986  0
O  O126  1  0.91577302  0.67965332  0.43096572  1  0  -0.655923  0  1.937635  0  0  -0.609677  0  2.174849  0  0  -0.640007  0  2.166114  0  0  -0.350255  -0.593354  0  2.18022  0
O  O127  1  0.41577975  0.82034943  0.06903813  1  0  -0.655972  0  1.937647  0  0  -0.609719  0  2.174888  0  0  -0.640048  0  2.166155  0  0  -0.35026  -0.593396  0  2.180262  0
