# generated using pymatgen
data_YH4C8N2Cl3
_symmetry_space_group_name_H-M   'P 1'
_cell_length_a   11.01692045
_cell_length_b   11.23444398
_cell_length_c   19.12406344
_cell_angle_alpha   106.80681362
_cell_angle_beta   90.00004292
_cell_angle_gamma   90.00001586
_symmetry_Int_Tables_number   1
_chemical_formula_structural   YH4C8N2Cl3
_chemical_formula_sum   'Y8 H32 C64 N16 Cl24'
_cell_volume   2265.86108123
_cell_formula_units_Z   8
loop_
 _symmetry_equiv_pos_site_id
 _symmetry_equiv_pos_as_xyz
  1  'x, y, z'
loop_
 _atom_site_type_symbol
 _atom_site_label
 _atom_site_symmetry_multiplicity
 _atom_site_fract_x
 _atom_site_fract_y
 _atom_site_fract_z
 _atom_site_occupancy
 _atom_site_hle17_bader_spin_density
 _atom_site_hle17_ddec_charge
 _atom_site_hle17_ddec_spin_density
 _atom_site_hle17_ddec_sum_bond_order
 _atom_site_hle17_magmom
 _atom_site_hse06_10hf_bader_spin_density
 _atom_site_hse06_10hf_ddec_charge
 _atom_site_hse06_10hf_ddec_spin_density
 _atom_site_hse06_10hf_ddec_sum_bond_order
 _atom_site_hse06_10hf_magmom
 _atom_site_hse06_bader_spin_density
 _atom_site_hse06_ddec_charge
 _atom_site_hse06_ddec_spin_density
 _atom_site_hse06_ddec_sum_bond_order
 _atom_site_hse06_magmom
 _atom_site_pbe_bader_spin_density
 _atom_site_pbe_cm5_charge
 _atom_site_pbe_ddec_charge
 _atom_site_pbe_ddec_spin_density
 _atom_site_pbe_ddec_sum_bond_order
 _atom_site_pbe_magmom
Y  Y0  1  0.17564462  0.68982787  0.23799597  1  0  1.789965  0  2.135933  0  0  1.627543  0  2.602464  0  0  1.691274  0  2.551643  0  0  1.000055  1.581589  0  2.637871  0
Y  Y1  1  0.67564405  0.81017225  0.76200379  1  0  1.790025  0  2.135843  0  0  1.627593  0  2.602385  0  0  1.691324  0  2.551565  0  0  1.000057  1.581637  0  2.637794  0
Y  Y2  1  0.82435613  0.31017263  0.76200415  1  0  1.789978  0  2.135897  0  0  1.627545  0  2.602438  0  0  1.691279  0  2.551612  0  0  1.000045  1.581593  0  2.637844  0
Y  Y3  1  0.32435580  0.18982732  0.23799618  1  0  1.789993  0  2.135883  0  0  1.627577  0  2.6024  0  0  1.69131  0  2.551577  0  0  1.000063  1.581623  0  2.637809  0
Y  Y4  1  0.51871962  0.55022438  0.26874653  1  0  1.664065  0  2.369591  0  0  1.530634  0  2.835781  0  0  1.589435  0  2.79281  0  0  0.835791  1.487996  0  2.865172  0
Y  Y5  1  0.01872000  0.94977566  0.73125367  1  0  1.664143  0  2.369535  0  0  1.530682  0  2.835787  0  0  1.589477  0  2.792818  0  0  0.835826  1.488038  0  2.865181  0
Y  Y6  1  0.48127932  0.44977519  0.73125343  1  0  1.664121  0  2.369591  0  0  1.530669  0  2.835829  0  0  1.589463  0  2.792861  0  0  0.835815  1.488024  0  2.865223  0
Y  Y7  1  0.98127894  0.05022484  0.26874645  1  0  1.664089  0  2.369647  0  0  1.530641  0  2.835883  0  0  1.589441  0  2.792911  0  0  0.835815  1.488  0  2.86528  0
H  H8  1  0.36222238  0.14038585  0.68862639  1  0  0.10686  0  0.956806  0  0  0.112678  0  1.026507  0  0  0.116039  0  1.023693  0  0  0.107437  0.110309  0  1.02838  0
H  H9  1  0.86222305  0.35961504  0.31137359  1  0  0.106846  0  0.956826  0  0  0.112667  0  1.026527  0  0  0.116027  0  1.023713  0  0  0.107429  0.110308  0  1.02839  0
H  H10  1  0.63777565  0.85961836  0.31137593  1  0  0.106828  0  0.95691  0  0  0.11267  0  1.026587  0  0  0.116051  0  1.023751  0  0  0.107412  0.110295  0  1.028468  0
H  H11  1  0.13777497  0.64038267  0.68862449  1  0  0.106786  0  0.956951  0  0  0.11265  0  1.026609  0  0  0.116037  0  1.023765  0  0  0.107411  0.110271  0  1.028491  0
H  H12  1  0.14828860  0.09280542  0.49341522  1  0  0.110902  0  0.975833  0  0  0.11968  0  1.039108  0  0  0.123143  0  1.036393  0  0  0.099239  0.117096  0  1.041133  0
H  H13  1  0.64828772  0.40719537  0.50658413  1  0  0.110912  0  0.975808  0  0  0.119695  0  1.039083  0  0  0.123159  0  1.036367  0  0  0.09926  0.117111  0  1.041108  0
H  H14  1  0.85171215  0.90719601  0.50658454  1  0  0.110894  0  0.975796  0  0  0.119672  0  1.039082  0  0  0.123136  0  1.036367  0  0  0.099251  0.117087  0  1.041107  0
H  H15  1  0.35171212  0.59280328  0.49341515  1  0  0.11091  0  0.975805  0  0  0.119691  0  1.039081  0  0  0.123154  0  1.036368  0  0  0.099266  0.117106  0  1.041108  0
H  H16  1  0.78337516  0.34242721  0.17711733  1  0  0.10922  0  0.96648  0  0  0.114001  0  1.037244  0  0  0.117436  0  1.034507  0  0  0.104418  0.111459  0  1.039269  0
H  H17  1  0.28337557  0.15757179  0.82288177  1  0  0.109217  0  0.966499  0  0  0.114004  0  1.037259  0  0  0.117432  0  1.034542  0  0  0.104426  0.111463  0  1.039283  0
H  H18  1  0.21662469  0.65757236  0.82288211  1  0  0.109214  0  0.966503  0  0  0.113998  0  1.037271  0  0  0.11743  0  1.034543  0  0  0.104424  0.111454  0  1.039294  0
H  H19  1  0.71662609  0.84242871  0.17711783  1  0  0.109226  0  0.966483  0  0  0.114012  0  1.037248  0  0  0.117444  0  1.034519  0  0  0.104423  0.11147  0  1.039273  0
H  H20  1  0.41532703  0.81608606  0.50256689  1  0  0.122851  0  0.965258  0  0  0.131548  0  1.027415  0  0  0.135156  0  1.025034  0  0  0.105589  0.128875  0  1.029195  0
H  H21  1  0.91532608  0.68391512  0.49743315  1  0  0.122855  0  0.965272  0  0  0.131558  0  1.027407  0  0  0.135163  0  1.025044  0  0  0.105588  0.128883  0  1.029193  0
H  H22  1  0.58467281  0.18391722  0.49743528  1  0  0.122938  0  0.965201  0  0  0.131622  0  1.027348  0  0  0.135234  0  1.024981  0  0  0.105582  0.128944  0  1.029141  0
H  H23  1  0.08467285  0.31608260  0.50256440  1  0  0.122893  0  0.965225  0  0  0.131578  0  1.027381  0  0  0.135191  0  1.025012  0  0  0.105567  0.128901  0  1.029176  0
H  H24  1  0.20695936  0.21970062  0.62074931  1  0  0.10598  0  0.957024  0  0  0.112515  0  1.021626  0  0  0.115387  0  1.021303  0  0  0.103666  0.110422  0  1.022182  0
H  H25  1  0.70696010  0.28029927  0.37925096  1  0  0.105967  0  0.957098  0  0  0.112494  0  1.021702  0  0  0.115367  0  1.021374  0  0  0.103668  0.110401  0  1.022258  0
H  H26  1  0.79303958  0.78030081  0.37925097  1  0  0.10596  0  0.957086  0  0  0.112487  0  1.021695  0  0  0.115358  0  1.021373  0  0  0.103661  0.110392  0  1.022254  0
H  H27  1  0.29303884  0.71969937  0.62074937  1  0  0.105984  0  0.957094  0  0  0.112516  0  1.021685  0  0  0.115387  0  1.021364  0  0  0.103676  0.11042  0  1.022243  0
H  H28  1  0.76155375  0.02357171  0.98569402  1  0  0.11533  0  0.968585  0  0  0.123293  0  1.032364  0  0  0.127132  0  1.029498  0  0  0.099856  0.120447  0  1.034539  0
H  H29  1  0.26155230  0.47642634  0.01430543  1  0  0.115321  0  0.968601  0  0  0.123286  0  1.032377  0  0  0.127125  0  1.029512  0  0  0.099856  0.12044  0  1.034551  0
H  H30  1  0.23844700  0.97642786  0.01430542  1  0  0.115318  0  0.968591  0  0  0.123281  0  1.032372  0  0  0.127121  0  1.029506  0  0  0.099845  0.120435  0  1.034547  0
H  H31  1  0.73844755  0.52357230  0.98569489  1  0  0.115353  0  0.96855  0  0  0.123305  0  1.032335  0  0  0.127145  0  1.029467  0  0  0.099852  0.120459  0  1.034511  0
H  H32  1  0.06696341  0.27473221  0.01404342  1  0  0.117617  0  0.937334  0  0  0.128221  0  0.996442  0  0  0.130894  0  0.995347  0  0  0.116257  0.126341  0  0.997067  0
H  H33  1  0.56696310  0.22526853  0.98595641  1  0  0.117637  0  0.937333  0  0  0.128224  0  0.996464  0  0  0.130895  0  0.995367  0  0  0.116244  0.126345  0  0.99709  0
H  H34  1  0.93303734  0.72526829  0.98595670  1  0  0.11763  0  0.937325  0  0  0.128235  0  0.996427  0  0  0.130909  0  0.995333  0  0  0.116263  0.126358  0  0.997054  0
H  H35  1  0.43303765  0.77473197  0.01404371  1  0  0.117644  0  0.937362  0  0  0.128228  0  0.996491  0  0  0.130897  0  0.995395  0  0  0.116239  0.126349  0  0.997116  0
H  H36  1  0.67693245  0.15111979  0.10646886  1  0  0.11177  0  0.936269  0  0  0.120835  0  0.993687  0  0  0.123949  0  0.993001  0  0  0.109394  0.118664  0  0.994274  0
H  H37  1  0.17693120  0.34887729  0.89353091  1  0  0.111779  0  0.936296  0  0  0.120847  0  0.993716  0  0  0.123947  0  0.993043  0  0  0.109403  0.118676  0  0.994303  0
H  H38  1  0.32306830  0.84887792  0.89353078  1  0  0.11177  0  0.936305  0  0  0.120847  0  0.99371  0  0  0.123932  0  0.993057  0  0  0.109399  0.118674  0  0.9943  0
H  H39  1  0.82306955  0.65112228  0.10646905  1  0  0.111763  0  0.936288  0  0  0.120843  0  0.993702  0  0  0.123937  0  0.993038  0  0  0.109395  0.118671  0  0.994292  0
C  C40  1  0.48398516  0.92720203  0.64083160  1  0  0.364296  0  3.665626  0  0  0.342694  0  3.924655  0  0  0.358584  0  3.939998  0  0  0.23538  0.33166  0  3.914296  0
C  C41  1  0.98398491  0.57279918  0.35916848  1  0  0.364288  0  3.665652  0  0  0.342683  0  3.924684  0  0  0.358575  0  3.940025  0  0  0.235367  0.331651  0  3.914326  0
C  C42  1  0.51601377  0.07280032  0.35917093  1  0  0.36436  0  3.665541  0  0  0.342752  0  3.924579  0  0  0.358641  0  3.939919  0  0  0.23542  0.331721  0  3.91422  0
C  C43  1  0.01601312  0.42720039  0.64082939  1  0  0.36434  0  3.665639  0  0  0.342732  0  3.924675  0  0  0.358622  0  3.940018  0  0  0.235437  0.331699  0  3.914318  0
C  C44  1  0.99364534  0.42866457  0.13987474  1  0  0.377537  0  3.657996  0  0  0.353752  0  3.917314  0  0  0.37068  0  3.931776  0  0  0.241131  0.341793  0  3.909041  0
C  C45  1  0.49364578  0.07133546  0.86012568  1  0  0.377544  0  3.65799  0  0  0.353749  0  3.917293  0  0  0.370676  0  3.931756  0  0  0.241109  0.341786  0  3.909021  0
C  C46  1  0.00635450  0.57133593  0.86012591  1  0  0.377566  0  3.65789  0  0  0.353776  0  3.917207  0  0  0.370705  0  3.931671  0  0  0.241137  0.341815  0  3.908937  0
C  C47  1  0.50635497  0.92866411  0.13987428  1  0  0.377576  0  3.657882  0  0  0.353793  0  3.917201  0  0  0.37072  0  3.931664  0  0  0.241134  0.341829  0  3.908926  0
C  C48  1  0.93108244  0.31966209  0.09975810  1  0  0.017176  0  3.850593  0  0  0.041992  0  4.08216  0  0  0.036  0  4.103289  0  0  0.014747  0.045597  0  4.068314  0
C  C49  1  0.43108297  0.18033884  0.90024244  1  0  0.017131  0  3.850667  0  0  0.041983  0  4.082178  0  0  0.035992  0  4.103307  0  0  0.014734  0.04559  0  4.068329  0
C  C50  1  0.06891649  0.68033841  0.90024202  1  0  0.017159  0  3.850575  0  0  0.041986  0  4.082131  0  0  0.035994  0  4.103261  0  0  0.014748  0.04559  0  4.068285  0
C  C51  1  0.56891779  0.81966166  0.09975820  1  0  0.017087  0  3.850672  0  0  0.041895  0  4.082254  0  0  0.035903  0  4.103382  0  0  0.014702  0.045509  0  4.068396  0
C  C52  1  0.91811567  0.14264513  0.99316572  1  0  0.012286  0  3.870249  0  0  0.036974  0  4.103531  0  0  0.030944  0  4.124917  0  0  0.00937  0.040652  0  4.08929  0
C  C53  1  0.41811508  0.35735487  0.00683309  1  0  0.012274  0  3.870083  0  0  0.036952  0  4.103371  0  0  0.030926  0  4.124756  0  0  0.009316  0.040628  0  4.089132  0
C  C54  1  0.08188508  0.85735537  0.00683440  1  0  0.012333  0  3.870211  0  0  0.03702  0  4.103491  0  0  0.03099  0  4.124878  0  0  0.009359  0.040694  0  4.089253  0
C  C55  1  0.58188385  0.64264470  0.99316688  1  0  0.012263  0  3.870197  0  0  0.036903  0  4.103523  0  0  0.030872  0  4.124909  0  0  0.009321  0.040583  0  4.089282  0
C  C56  1  0.39780952  0.97393931  0.60018171  1  0  0.011193  0  3.870713  0  0  0.034495  0  4.105497  0  0  0.028669  0  4.127395  0  0  0.010232  0.03809  0  4.090988  0
C  C57  1  0.89781021  0.52606000  0.39981696  1  0  0.011219  0  3.870744  0  0  0.034525  0  4.105539  0  0  0.028698  0  4.127439  0  0  0.010247  0.038117  0  4.091034  0
C  C58  1  0.60218942  0.02606026  0.39981826  1  0  0.011135  0  3.870821  0  0  0.034436  0  4.105628  0  0  0.028615  0  4.127526  0  0  0.010227  0.038031  0  4.091119  0
C  C59  1  0.10218872  0.47393957  0.60018195  1  0  0.01118  0  3.870839  0  0  0.034488  0  4.10564  0  0  0.028661  0  4.127548  0  0  0.01025  0.038081  0  4.09113  0
C  C60  1  0.98130423  0.24823438  0.03361324  1  0  -0.061915  0  3.629483  0  0  -0.097843  0  3.867514  0  0  -0.094781  0  3.88427  0  0  -0.046864  -0.099325  0  3.855782  0
C  C61  1  0.48130395  0.25176472  0.96638648  1  0  -0.061909  0  3.629498  0  0  -0.097827  0  3.867518  0  0  -0.09476  0  3.884269  0  0  -0.046812  -0.099309  0  3.855785  0
C  C62  1  0.01869561  0.75176612  0.96638688  1  0  -0.061945  0  3.629511  0  0  -0.097872  0  3.867539  0  0  -0.094809  0  3.884296  0  0  -0.046865  -0.099355  0  3.855811  0
C  C63  1  0.51869589  0.74823578  0.03361416  1  0  -0.06187  0  3.629471  0  0  -0.097763  0  3.867517  0  0  -0.094693  0  3.884267  0  0  -0.046786  -0.099246  0  3.855779  0
C  C64  1  0.27835229  0.94842122  0.49177495  1  0  0.010544  0  3.868314  0  0  0.034959  0  4.100524  0  0  0.028845  0  4.122402  0  0  0.009889  0.038597  0  4.085864  0
C  C65  1  0.77835131  0.55157989  0.50822554  1  0  0.010605  0  3.86835  0  0  0.035038  0  4.100537  0  0  0.028923  0  4.12242  0  0  0.009952  0.038678  0  4.085873  0
C  C66  1  0.72164846  0.05158021  0.50822741  1  0  0.010484  0  3.868421  0  0  0.03491  0  4.100612  0  0  0.028797  0  4.122492  0  0  0.0099  0.03855  0  4.08595  0
C  C67  1  0.22164944  0.44841968  0.49177338  1  0  0.010501  0  3.868356  0  0  0.034932  0  4.100537  0  0  0.02882  0  4.122415  0  0  0.009914  0.038568  0  4.08588  0
C  C68  1  0.24298028  0.87602355  0.42096520  1  0  0.386157  0  3.660645  0  0  0.361664  0  3.920497  0  0  0.37906  0  3.934566  0  0  0.250358  0.349734  0  3.911289  0
C  C69  1  0.74298032  0.62397754  0.57903423  1  0  0.386148  0  3.660719  0  0  0.361651  0  3.920566  0  0  0.379048  0  3.934633  0  0  0.250321  0.349718  0  3.911359  0
C  C70  1  0.75701957  0.12397788  0.57903561  1  0  0.386139  0  3.660616  0  0  0.361641  0  3.920472  0  0  0.379039  0  3.934538  0  0  0.250309  0.349711  0  3.911262  0
C  C71  1  0.25702043  0.37602110  0.42096505  1  0  0.386221  0  3.660575  0  0  0.361728  0  3.920423  0  0  0.379125  0  3.934489  0  0  0.250341  0.349798  0  3.911222  0
C  C72  1  0.33887371  0.08755615  0.63305564  1  0  -0.03423  0  3.662543  0  0  -0.066142  0  3.917974  0  0  -0.062918  0  3.935049  0  0  -0.047808  -0.067999  0  3.906388  0
C  C73  1  0.83887447  0.41244381  0.36694417  1  0  -0.034237  0  3.662637  0  0  -0.066169  0  3.918084  0  0  -0.062944  0  3.93516  0  0  -0.047819  -0.068037  0  3.906495  0
C  C74  1  0.66112432  0.91244249  0.36694416  1  0  -0.034201  0  3.6627  0  0  -0.066157  0  3.918118  0  0  -0.06295  0  3.935177  0  0  -0.047788  -0.068006  0  3.906525  0
C  C75  1  0.16112447  0.58755763  0.63305559  1  0  -0.03414  0  3.662718  0  0  -0.06611  0  3.91813  0  0  -0.062906  0  3.935188  0  0  -0.04778  -0.067957  0  3.906531  0
C  C76  1  0.36907729  0.90348283  0.52886354  1  0  -0.08647  0  3.640435  0  0  -0.118316  0  3.875015  0  0  -0.117294  0  3.894389  0  0  -0.053104  -0.118368  0  3.861961  0
C  C77  1  0.86907719  0.59651740  0.47113631  1  0  -0.086517  0  3.640392  0  0  -0.118364  0  3.874982  0  0  -0.117348  0  3.894357  0  0  -0.053108  -0.118418  0  3.861925  0
C  C78  1  0.63092255  0.09651767  0.47113814  1  0  -0.086526  0  3.640453  0  0  -0.118349  0  3.875015  0  0  -0.117343  0  3.894394  0  0  -0.053086  -0.118402  0  3.861962  0
C  C79  1  0.13092265  0.40348218  0.52886260  1  0  -0.086506  0  3.640466  0  0  -0.118337  0  3.875031  0  0  -0.117331  0  3.894411  0  0  -0.053092  -0.118392  0  3.86198  0
C  C80  1  0.82101903  0.28508236  0.12577493  1  0  -0.030152  0  3.64215  0  0  -0.059912  0  3.890607  0  0  -0.056563  0  3.907856  0  0  -0.049571  -0.061741  0  3.878869  0
C  C81  1  0.32101862  0.21491759  0.87422435  1  0  -0.030109  0  3.642185  0  0  -0.059887  0  3.89064  0  0  -0.056542  0  3.907883  0  0  -0.049562  -0.061714  0  3.878897  0
C  C82  1  0.17898172  0.71491721  0.87422451  1  0  -0.030111  0  3.642114  0  0  -0.059883  0  3.890574  0  0  -0.056534  0  3.907811  0  0  -0.049574  -0.061709  0  3.878829  0
C  C83  1  0.67898213  0.78508384  0.12577541  1  0  -0.030123  0  3.642162  0  0  -0.059881  0  3.890635  0  0  -0.056532  0  3.907878  0  0  -0.049535  -0.061711  0  3.878896  0
C  C84  1  0.96347585  0.07502058  0.92354233  1  0  0.370345  0  3.681218  0  0  0.344082  0  3.949069  0  0  0.360679  0  3.964799  0  0  0.241854  0.332713  0  3.938685  0
C  C85  1  0.46347627  0.42498223  0.07645854  1  0  0.370301  0  3.681474  0  0  0.344049  0  3.94932  0  0  0.360644  0  3.965047  0  0  0.241844  0.332685  0  3.93894  0
C  C86  1  0.03652491  0.92497899  0.07645658  1  0  0.370246  0  3.681135  0  0  0.343994  0  3.94898  0  0  0.360591  0  3.964709  0  0  0.241847  0.332629  0  3.9386  0
C  C87  1  0.53652448  0.57502106  0.92354467  1  0  0.370323  0  3.680944  0  0  0.344085  0  3.948797  0  0  0.360684  0  3.964524  0  0  0.241866  0.332716  0  3.938412  0
C  C88  1  0.80801530  0.10685526  0.01870508  1  0  -0.041936  0  3.640088  0  0  -0.06821  0  3.881645  0  0  -0.065591  0  3.898865  0  0  -0.056259  -0.069594  0  3.870021  0
C  C89  1  0.30801327  0.39314375  0.98129508  1  0  -0.041922  0  3.640131  0  0  -0.068192  0  3.881694  0  0  -0.065574  0  3.89891  0  0  -0.05624  -0.069576  0  3.870069  0
C  C90  1  0.19198636  0.89314431  0.98129488  1  0  -0.041934  0  3.640069  0  0  -0.068214  0  3.88164  0  0  -0.065594  0  3.89885  0  0  -0.056255  -0.069599  0  3.870016  0
C  C91  1  0.69198567  0.60685582  0.01870541  1  0  -0.041952  0  3.640076  0  0  -0.068178  0  3.881623  0  0  -0.065558  0  3.898837  0  0  -0.056244  -0.069563  0  3.87  0
C  C92  1  0.21919227  0.06213492  0.52406720  1  0  -0.034747  0  3.642072  0  0  -0.061301  0  3.88137  0  0  -0.058508  0  3.89858  0  0  -0.053815  -0.062636  0  3.869566  0
C  C93  1  0.71919228  0.43786590  0.47593271  1  0  -0.034733  0  3.642012  0  0  -0.06131  0  3.881318  0  0  -0.058518  0  3.898528  0  0  -0.053829  -0.062646  0  3.869512  0
C  C94  1  0.78080757  0.93786744  0.47593324  1  0  -0.034725  0  3.641955  0  0  -0.061297  0  3.88126  0  0  -0.058505  0  3.898469  0  0  -0.053835  -0.062631  0  3.869453  0
C  C95  1  0.28080848  0.56213367  0.52406726  1  0  -0.034746  0  3.641985  0  0  -0.061314  0  3.881287  0  0  -0.058523  0  3.898496  0  0  -0.053858  -0.062652  0  3.869484  0
C  C96  1  0.25113138  0.13143424  0.59441999  1  0  -0.050803  0  3.731757  0  0  -0.064909  0  3.990542  0  0  -0.070427  0  4.01215  0  0  -0.070096  -0.061501  0  3.976206  0
C  C97  1  0.75113309  0.36856660  0.40557993  1  0  -0.050788  0  3.731863  0  0  -0.064865  0  3.990627  0  0  -0.070382  0  4.012236  0  0  -0.070097  -0.061459  0  3.976295  0
C  C98  1  0.74886665  0.86856719  0.40558029  1  0  -0.05072  0  3.731789  0  0  -0.064796  0  3.990558  0  0  -0.070314  0  4.012174  0  0  -0.070066  -0.061387  0  3.976217  0
C  C99  1  0.24886676  0.63143297  0.59442003  1  0  -0.050803  0  3.731854  0  0  -0.06489  0  3.990634  0  0  -0.070409  0  4.012251  0  0  -0.070105  -0.061482  0  3.976291  0
C  C100  1  0.76092960  0.17830003  0.08518645  1  0  -0.05459  0  3.722708  0  0  -0.066856  0  3.978217  0  0  -0.072508  0  3.999556  0  0  -0.072803  -0.063355  0  3.963714  0
C  C101  1  0.26092837  0.32169895  0.91481420  1  0  -0.054634  0  3.722815  0  0  -0.066906  0  3.978339  0  0  -0.072542  0  3.99968  0  0  -0.072824  -0.063404  0  3.963834  0
C  C102  1  0.23907206  0.82169954  0.91481455  1  0  -0.05462  0  3.722808  0  0  -0.066889  0  3.978323  0  0  -0.072514  0  3.999668  0  0  -0.072817  -0.063388  0  3.963818  0
C  C103  1  0.73907238  0.67830062  0.08518576  1  0  -0.054611  0  3.722794  0  0  -0.066909  0  3.97833  0  0  -0.072543  0  3.999675  0  0  -0.072833  -0.063407  0  3.963829  0
N  N104  1  0.21361994  0.81697960  0.36289574  1  0  -0.480109  0  2.862555  0  0  -0.436642  0  3.124478  0  0  -0.45569  0  3.133921  0  0  -0.359096  -0.423739  0  3.118201  0
N  N105  1  0.71361917  0.68302148  0.63710367  1  0  -0.480139  0  2.862441  0  0  -0.436671  0  3.124364  0  0  -0.455717  0  3.133803  0  0  -0.359101  -0.423767  0  3.118086  0
N  N106  1  0.78638081  0.18302090  0.63710490  1  0  -0.480054  0  2.862427  0  0  -0.436586  0  3.124353  0  0  -0.455636  0  3.133794  0  0  -0.359054  -0.423682  0  3.118074  0
N  N107  1  0.28638158  0.31697809  0.36289525  1  0  -0.480143  0  2.862423  0  0  -0.436685  0  3.124358  0  0  -0.455733  0  3.133797  0  0  -0.359085  -0.423784  0  3.118085  0
N  N108  1  0.55210585  0.88734144  0.67475511  1  0  -0.444442  0  2.837391  0  0  -0.401339  0  3.091967  0  0  -0.419347  0  3.102945  0  0  -0.342779  -0.388862  0  3.084122  0
N  N109  1  0.05210470  0.61265955  0.32524474  1  0  -0.444444  0  2.837418  0  0  -0.401336  0  3.091985  0  0  -0.419345  0  3.10296  0  0  -0.342787  -0.388861  0  3.084141  0
N  N110  1  0.44789490  0.11265999  0.32524517  1  0  -0.444513  0  2.837275  0  0  -0.401404  0  3.091841  0  0  -0.419413  0  3.102817  0  0  -0.34284  -0.388928  0  3.083997  0
N  N111  1  0.94789424  0.38734096  0.67475433  1  0  -0.444505  0  2.837367  0  0  -0.401398  0  3.091939  0  0  -0.419406  0  3.102915  0  0  -0.342865  -0.388923  0  3.084096  0
N  N112  1  0.04663391  0.51803050  0.17055826  1  0  -0.461121  0  2.854536  0  0  -0.416179  0  3.11383  0  0  -0.434771  0  3.123729  0  0  -0.357304  -0.40411  0  3.108553  0
N  N113  1  0.54663347  0.98196863  0.82944179  1  0  -0.461109  0  2.854516  0  0  -0.416166  0  3.113812  0  0  -0.434758  0  3.123711  0  0  -0.357283  -0.404096  0  3.108535  0
N  N114  1  0.95336594  0.48196907  0.82944222  1  0  -0.461129  0  2.854397  0  0  -0.416185  0  3.113689  0  0  -0.434778  0  3.123588  0  0  -0.357309  -0.404117  0  3.108414  0
N  N115  1  0.45336637  0.01803095  0.17055817  1  0  -0.461125  0  2.854388  0  0  -0.416181  0  3.113675  0  0  -0.434772  0  3.123573  0  0  -0.357301  -0.404113  0  3.108398  0
N  N116  1  0.99974456  0.02247877  0.86569062  1  0  -0.476129  0  2.830549  0  0  -0.435462  0  3.090111  0  0  -0.454268  0  3.102044  0  0  -0.351574  -0.42272  0  3.081915  0
N  N117  1  0.49974144  0.47751941  0.13430582  1  0  -0.476072  0  2.830928  0  0  -0.435417  0  3.090478  0  0  -0.454226  0  3.102421  0  0  -0.351547  -0.422678  0  3.082286  0
N  N118  1  0.00025620  0.97752173  0.13430898  1  0  -0.476061  0  2.830435  0  0  -0.435403  0  3.089984  0  0  -0.454212  0  3.101923  0  0  -0.351573  -0.422665  0  3.081792  0
N  N119  1  0.50025477  0.52247830  0.86569121  1  0  -0.476122  0  2.830253  0  0  -0.435467  0  3.089798  0  0  -0.454279  0  3.101743  0  0  -0.351584  -0.422724  0  3.081602  0
Cl  Cl120  1  0.28399883  0.48080466  0.25178549  1  0  -0.614156  0  1.126752  0  0  -0.560495  0  1.400642  0  0  -0.582525  0  1.386123  0  0  -0.243708  -0.544006  0  1.410397  0
Cl  Cl121  1  0.78399726  0.01919527  0.74821482  1  0  -0.614179  0  1.126742  0  0  -0.560507  0  1.40063  0  0  -0.582542  0  1.386114  0  0  -0.243701  -0.544018  0  1.410384  0
Cl  Cl122  1  0.71600101  0.51919584  0.74821463  1  0  -0.614159  0  1.126733  0  0  -0.560484  0  1.400612  0  0  -0.582522  0  1.386103  0  0  -0.243703  -0.543998  0  1.410366  0
Cl  Cl123  1  0.21600077  0.98080430  0.25178567  1  0  -0.614155  0  1.126753  0  0  -0.560491  0  1.40064  0  0  -0.582528  0  1.386131  0  0  -0.243699  -0.543999  0  1.410394  0
Cl  Cl124  1  0.74041496  0.58455928  0.24843520  1  0  -0.595436  0  0.868494  0  0  -0.551344  0  1.115691  0  0  -0.571208  0  1.10229  0  0  -0.332553  -0.536834  0  1.125045  0
Cl  Cl125  1  0.24041444  0.91543995  0.75156548  1  0  -0.595439  0  0.868493  0  0  -0.551344  0  1.1157  0  0  -0.571206  0  1.102302  0  0  -0.332559  -0.536838  0  1.125054  0
Cl  Cl126  1  0.25958489  0.41544123  0.75156387  1  0  -0.595438  0  0.86851  0  0  -0.551342  0  1.115709  0  0  -0.571205  0  1.102309  0  0  -0.332552  -0.536835  0  1.125063  0
Cl  Cl127  1  0.75958540  0.08455869  0.24843537  1  0  -0.595426  0  0.868521  0  0  -0.551334  0  1.115725  0  0  -0.571198  0  1.102326  0  0  -0.332542  -0.536825  0  1.125081  0
Cl  Cl128  1  0.42232609  0.75167270  0.24934992  1  0  -0.595809  0  1.030666  0  0  -0.55014  0  1.297092  0  0  -0.57104  0  1.283206  0  0  -0.278074  -0.534687  0  1.306333  0
Cl  Cl129  1  0.92232549  0.74832755  0.75065048  1  0  -0.595839  0  1.030668  0  0  -0.55018  0  1.29712  0  0  -0.571077  0  1.283236  0  0  -0.278087  -0.534711  0  1.306333  0
Cl  Cl130  1  0.57767375  0.24832780  0.75064915  1  0  -0.595835  0  1.030692  0  0  -0.550157  0  1.297102  0  0  -0.571051  0  1.283211  0  0  -0.278076  -0.534697  0  1.306337  0
Cl  Cl131  1  0.07767435  0.25167201  0.24935052  1  0  -0.59582  0  1.030691  0  0  -0.550146  0  1.297105  0  0  -0.571045  0  1.283215  0  0  -0.278074  -0.534683  0  1.306329  0
Cl  Cl132  1  0.54016567  0.30783734  0.24865309  1  0  -0.574818  0  1.011861  0  0  -0.526723  0  1.280241  0  0  -0.547319  0  1.263861  0  0  -0.267579  -0.511958  0  1.291591  0
Cl  Cl133  1  0.04016510  0.19216246  0.75134657  1  0  -0.574841  0  1.011867  0  0  -0.526749  0  1.280271  0  0  -0.547335  0  1.263877  0  0  -0.267599  -0.511989  0  1.291633  0
Cl  Cl134  1  0.45983417  0.69216316  0.75134755  1  0  -0.574851  0  1.01186  0  0  -0.526759  0  1.280256  0  0  -0.547345  0  1.263868  0  0  -0.267605  -0.511996  0  1.291605  0
Cl  Cl135  1  0.95983475  0.80783712  0.24865340  1  0  -0.574832  0  1.011865  0  0  -0.526743  0  1.280262  0  0  -0.54733  0  1.263868  0  0  -0.267595  -0.511977  0  1.291618  0
Cl  Cl136  1  0.51436914  0.62674206  0.40818813  1  0  -0.629193  0  0.804845  0  0  -0.589534  0  1.021288  0  0  -0.607757  0  1.007642  0  0  -0.351277  -0.57576  0  1.03058  0
Cl  Cl137  1  0.01436932  0.87325798  0.59181102  1  0  -0.629211  0  0.804818  0  0  -0.589544  0  1.021259  0  0  -0.607767  0  1.007616  0  0  -0.351283  -0.575775  0  1.030551  0
Cl  Cl138  1  0.48563070  0.37325937  0.59181215  1  0  -0.629214  0  0.80486  0  0  -0.589543  0  1.0213  0  0  -0.607769  0  1.007658  0  0  -0.351279  -0.575769  0  1.030593  0
Cl  Cl139  1  0.98563144  0.12673880  0.40818742  1  0  -0.629213  0  0.804877  0  0  -0.589544  0  1.021321  0  0  -0.607768  0  1.007677  0  0  -0.351286  -0.57577  0  1.030615  0
Cl  Cl140  1  0.21236713  0.68420608  0.10482211  1  0  -0.638046  0  0.812035  0  0  -0.600223  0  1.036502  0  0  -0.620793  0  1.023263  0  0  -0.3604  -0.58484  0  1.045338  0
Cl  Cl141  1  0.71236674  0.81579406  0.89517767  1  0  -0.638049  0  0.812024  0  0  -0.600227  0  1.036501  0  0  -0.620797  0  1.023262  0  0  -0.360394  -0.584845  0  1.045334  0
Cl  Cl142  1  0.78763453  0.31579442  0.89517853  1  0  -0.638049  0  0.812032  0  0  -0.600223  0  1.036503  0  0  -0.620793  0  1.023262  0  0  -0.360382  -0.584837  0  1.045333  0
Cl  Cl143  1  0.28763401  0.18420644  0.10482193  1  0  -0.638055  0  0.812023  0  0  -0.600237  0  1.036491  0  0  -0.620807  0  1.023251  0  0  -0.360406  -0.584854  0  1.045322  0
