# generated using pymatgen
data_CuH11C9(NO)3
_symmetry_space_group_name_H-M   'P 1'
_cell_length_a   9.72946222
_cell_length_b   10.46266879
_cell_length_c   27.09899913
_cell_angle_alpha   89.98522493
_cell_angle_beta   90.02840582
_cell_angle_gamma   89.99024158
_symmetry_Int_Tables_number   1
_chemical_formula_structural   CuH11C9(NO)3
_chemical_formula_sum   'Cu8 H88 C72 N24 O24'
_cell_volume   2758.57305735
_cell_formula_units_Z   8
loop_
 _symmetry_equiv_pos_site_id
 _symmetry_equiv_pos_as_xyz
  1  'x, y, z'
loop_
 _atom_site_type_symbol
 _atom_site_label
 _atom_site_symmetry_multiplicity
 _atom_site_fract_x
 _atom_site_fract_y
 _atom_site_fract_z
 _atom_site_occupancy
 _atom_site_pbe_bader_charge
 _atom_site_pbe_bader_spin_density
 _atom_site_pbe_cm5_charge
 _atom_site_pbe_ddec_charge
 _atom_site_pbe_ddec_spin_density
 _atom_site_pbe_ddec_sum_bond_order
 _atom_site_pbe_magmom
Cu  Cu0  1  0.67720405  0.38709754  0.66696248  1  1.026745  0.453302  0.737009  0.720731  0.582798  2.378419  0.451
Cu  Cu1  1  0.67760554  0.61214915  0.33294876  1  1.048776  0.569418  0.750026  0.744839  0.732138  2.369575  0.568
Cu  Cu2  1  0.32285016  0.88717074  0.83304023  1  1.027143  0.4534  0.737298  0.720792  0.58296  2.379157  0.452
Cu  Cu3  1  0.32290992  0.11301020  0.16696797  1  1.027377  0.454448  0.737492  0.720858  0.584163  2.377037  0.453
Cu  Cu4  1  0.82307145  0.60548554  0.83481198  1  1.028999  -0.453225  0.73801  0.720888  -0.59107  2.393716  -0.451
Cu  Cu5  1  0.82243754  0.39482687  0.16506089  1  1.05212  0.569404  0.750293  0.743428  0.731468  2.38522  0.567
Cu  Cu6  1  0.17687217  0.10542743  0.66516971  1  1.029473  -0.453281  0.737721  0.72087  -0.591245  2.393448  -0.451
Cu  Cu7  1  0.17710711  0.89481379  0.33483243  1  1.029826  -0.45284  0.738368  0.721397  -0.590612  2.392846  -0.451
H  H8  1  0.91393722  0.27669750  0.60998629  1  0.560334  -0.000121  0.314883  0.275879  -0.000363  1.001973  0.0
H  H9  1  0.91367854  0.72370469  0.39001313  1  0.556691  -8.5e-05  0.315026  0.275884  -0.000352  1.002256  0.0
H  H10  1  0.08605709  0.77678009  0.88995707  1  0.562866  -0.000123  0.314849  0.275825  -0.000366  1.002078  0.0
H  H11  1  0.08599435  0.22306834  0.10999161  1  0.561786  0.000511  0.314965  0.276003  0.00064  1.00247  0.0
H  H12  1  0.58163450  0.72438370  0.88915585  1  0.553171  6.2e-05  0.315637  0.277134  0.000294  1.00085  0.0
H  H13  1  0.58212227  0.27517344  0.11063835  1  0.552665  0.00038  0.315845  0.277839  0.000423  0.999735  0.0
H  H14  1  0.41839313  0.22429365  0.61085184  1  0.5537  5.2e-05  0.315556  0.276979  0.000286  1.000673  0.0
H  H15  1  0.41855641  0.77590754  0.38924977  1  0.555537  0.000112  0.315481  0.277154  0.000399  0.999848  0.0
H  H16  1  0.52323726  0.27583155  0.81390151  1  0.057275  -0.000292  0.091289  0.133933  -0.000222  0.997398  0.0
H  H17  1  0.52350515  0.72389236  0.18639077  1  0.061901  0.000418  0.091277  0.134808  0.000292  0.99776  0.0
H  H18  1  0.47675622  0.77588739  0.68610652  1  0.056799  -0.000293  0.091245  0.13383  -0.000223  0.997259  0.0
H  H19  1  0.47628924  0.22396818  0.31408036  1  0.05426  -0.000315  0.091437  0.134614  -0.000235  0.997444  0.0
H  H20  1  0.53950772  0.16889063  0.76281569  1  0.054062  -2.6e-05  0.091636  0.131742  -3.1e-05  1.009319  0.0
H  H21  1  0.53935263  0.83082309  0.23751155  1  0.058204  7.4e-05  0.091352  0.131469  -2.8e-05  1.009078  0.0
H  H22  1  0.46060619  0.66892972  0.73721052  1  0.055301  -2.6e-05  0.091615  0.131542  -3.2e-05  1.009399  0.0
H  H23  1  0.46028854  0.33146645  0.26313067  1  0.048389  7e-05  0.091787  0.132531  3.3e-05  1.008646  0.0
H  H24  1  0.37299960  0.21030922  0.78556235  1  0.075223  0.000453  0.090989  0.126982  0.000244  1.019623  0.0
H  H25  1  0.37303432  0.78950443  0.21447768  1  0.075873  0.000625  0.090426  0.126209  0.000299  1.019896  0.001
H  H26  1  0.62707171  0.71041732  0.71444197  1  0.075203  0.000453  0.090957  0.126975  0.000244  1.019323  0.0
H  H27  1  0.62665032  0.28985412  0.28598090  1  0.077492  0.000434  0.091268  0.128296  0.000199  1.019664  0.0
H  H28  1  0.40725288  0.43525473  0.75984350  1  0.07834  0.002032  0.119089  0.087954  0.000991  0.958733  0.001
H  H29  1  0.40653300  0.56471318  0.24024241  1  0.079949  0.003134  0.118457  0.087514  0.001646  0.958618  0.002
H  H30  1  0.59272462  0.93532646  0.74014917  1  0.078714  0.002029  0.119192  0.087913  0.00099  0.958881  0.001
H  H31  1  0.59284946  0.06521524  0.25987055  1  0.078763  0.002004  0.119276  0.088103  0.000978  0.958596  0.001
H  H32  1  0.03066299  0.70040100  0.73754224  1  0.068598  -0.000514  0.120619  0.09156  -0.000207  0.917279  0.0
H  H33  1  0.02882801  0.30046665  0.26216314  1  0.068845  0.000937  0.119667  0.090376  0.0004  0.917277  0.0
H  H34  1  0.96936186  0.20033734  0.76245754  1  0.069126  -0.000516  0.120635  0.091636  -0.000208  0.917329  0.0
H  H35  1  0.96997415  0.79976082  0.23719722  1  0.074082  -0.000547  0.120825  0.092102  -0.000238  0.91656  0.0
H  H36  1  0.09585575  0.48813480  0.70186150  1  0.100778  0.000233  0.092022  0.144202  0.0002  1.001283  0.0
H  H37  1  0.09457882  0.51261545  0.29788987  1  0.096918  0.000615  0.09217  0.144268  0.000398  1.000755  0.0
H  H38  1  0.90427037  0.98810773  0.79819780  1  0.100435  0.000232  0.092018  0.144276  0.0002  1.000729  0.0
H  H39  1  0.90378532  0.01219942  0.20194896  1  0.103346  0.000219  0.09209  0.144005  0.000186  1.001034  0.0
H  H40  1  0.14691571  0.43329260  0.76098097  1  0.033386  0.000253  0.089507  0.127598  0.000175  0.99703  0.0
H  H41  1  0.14840973  0.56613420  0.23886875  1  0.03312  0.000349  0.089154  0.127072  0.000144  0.997875  0.0
H  H42  1  0.85313829  0.93321407  0.73909568  1  0.034594  0.000253  0.089446  0.127784  0.000175  0.996811  0.0
H  H43  1  0.85320796  0.06630106  0.26122178  1  0.029921  0.000267  0.089541  0.127921  0.000186  0.996589  0.0
H  H44  1  0.23676100  0.56244534  0.73297071  1  0.038047  -0.001154  0.089148  0.121563  -0.000618  1.030717  -0.001
H  H45  1  0.23600343  0.43664222  0.26771515  1  0.031082  0.001962  0.089404  0.12157  0.000979  1.029326  0.001
H  H46  1  0.76327179  0.06238918  0.76709245  1  0.038251  -0.001155  0.089223  0.121584  -0.000618  1.030359  -0.001
H  H47  1  0.76327611  0.93725679  0.23307725  1  0.039261  -0.001145  0.089513  0.122  -0.000617  1.030118  -0.001
H  H48  1  0.52582517  0.53117778  0.60051860  1  0.078224  -0.000322  0.098307  0.136089  -0.000259  1.020018  0.0
H  H49  1  0.52552370  0.46911546  0.39960837  1  0.078278  -0.000397  0.098602  0.136695  -0.000326  1.019809  0.0
H  H50  1  0.47410540  0.03122050  0.89947058  1  0.078461  -0.000323  0.098301  0.135995  -0.000259  1.020316  0.0
H  H51  1  0.47426036  0.96868902  0.10056311  1  0.075793  -0.000314  0.098446  0.13624  -0.000257  1.019685  0.0
H  H52  1  0.51266727  0.54349833  0.53523616  1  0.041501  -0.000104  0.092078  0.128335  -3.9e-05  1.01505  0.0
H  H53  1  0.51268840  0.45657044  0.46488629  1  0.040327  -0.000118  0.092069  0.128391  -4.3e-05  1.014872  0.0
H  H54  1  0.48742959  0.04349692  0.96474478  1  0.04168  -0.000106  0.092116  0.128383  -4e-05  1.014868  0.0
H  H55  1  0.48747822  0.95651468  0.03528647  1  0.041316  -0.000105  0.092104  0.128155  -4e-05  1.015103  0.0
H  H56  1  0.61039424  0.65713235  0.56837947  1  0.058273  -0.000157  0.098385  0.140092  -7.2e-05  0.990849  0.0
H  H57  1  0.61075737  0.34338551  0.43167331  1  0.061273  -0.000187  0.098539  0.14052  -8.6e-05  0.9896  0.0
H  H58  1  0.38939704  0.15700668  0.93162946  1  0.05838  -0.000151  0.098238  0.13985  -6.8e-05  0.990754  0.0
H  H59  1  0.38958727  0.84293628  0.06837032  1  0.058487  -0.000159  0.098508  0.140292  -7.5e-05  0.990348  0.0
H  H60  1  0.06860108  0.24295680  0.53314160  1  0.062728  3.5e-05  0.099435  0.144048  2e-05  1.010288  0.0
H  H61  1  0.06882357  0.75736458  0.46687409  1  0.062731  4.2e-05  0.099376  0.144008  2.3e-05  1.010406  0.0
H  H62  1  0.93138712  0.74281627  0.96679743  1  0.062565  2.8e-05  0.099475  0.144131  1.8e-05  1.010276  0.0
H  H63  1  0.93132100  0.25691893  0.03308226  1  0.064415  -1e-05  0.099289  0.143844  -1.1e-05  1.010976  0.0
H  H64  1  0.11942458  0.40285337  0.52247567  1  0.044789  -5.7e-05  0.098238  0.135551  -3e-05  0.991528  0.0
H  H65  1  0.11927285  0.59731668  0.47745679  1  0.046842  -4.7e-05  0.098312  0.135843  -2.5e-05  0.991959  0.0
H  H66  1  0.88068427  0.90273007  0.97747306  1  0.046847  -6e-05  0.098124  0.135381  -3.2e-05  0.992141  0.0
H  H67  1  0.88059790  0.09701026  0.02242897  1  0.043546  -6.7e-05  0.098386  0.135748  -3.5e-05  0.991565  0.0
H  H68  1  0.02002540  0.32215096  0.47737660  1  0.053557  3.8e-05  0.099468  0.138442  1.8e-05  0.998429  0.0
H  H69  1  0.02040416  0.67816374  0.52262639  1  0.053438  5.7e-05  0.099444  0.138357  2.7e-05  0.998515  0.0
H  H70  1  0.97991709  0.82184899  0.02257946  1  0.055372  2.9e-05  0.099444  0.138531  1.8e-05  0.998687  0.0
H  H71  1  0.97987249  0.17776575  0.97734468  1  0.052036  4.2e-05  0.099298  0.138242  2.1e-05  0.998513  0.0
H  H72  1  0.42380266  0.75934485  0.96845477  1  0.085481  -1.9e-05  0.097834  0.140474  -1.3e-05  1.019091  0.0
H  H73  1  0.42348750  0.24063195  0.03141713  1  0.086519  -9e-06  0.098134  0.140415  -1e-05  1.018954  0.0
H  H74  1  0.57629974  0.25938918  0.53156305  1  0.084865  -2.6e-05  0.09795  0.140512  -1.7e-05  1.0189  0.0
H  H75  1  0.57633226  0.74077467  0.46859694  1  0.086352  -2.9e-05  0.09795  0.14031  -2e-05  1.019915  0.0
H  H76  1  0.46004180  0.66254201  0.02117178  1  0.0216  -5.8e-05  0.09889  0.136899  -3.1e-05  0.99935  0.0
H  H77  1  0.45945380  0.33741572  0.97869771  1  0.019009  7.8e-05  0.098562  0.136206  4.3e-05  1.000202  0.0
H  H78  1  0.54006880  0.16272183  0.47882807  1  0.02218  -5.2e-05  0.098554  0.136313  -2.6e-05  0.999975  0.0
H  H79  1  0.54023028  0.83758059  0.52129448  1  0.018309  -5e-05  0.098644  0.136415  -2.5e-05  0.999987  0.0
H  H80  1  0.36658446  0.59904157  0.97057888  1  0.053128  7.1e-05  0.099247  0.138357  3.7e-05  0.984501  0.0
H  H81  1  0.36688447  0.40112768  0.02941277  1  0.053196  -6.1e-05  0.099313  0.138461  -3.3e-05  0.984017  0.0
H  H82  1  0.63341689  0.09905535  0.52942264  1  0.05464  5.3e-05  0.0992  0.138291  2.7e-05  0.984574  0.0
H  H83  1  0.63354001  0.90108230  0.47069734  1  0.052093  5.2e-05  0.099312  0.138394  2.6e-05  0.984504  0.0
H  H84  1  0.97261002  0.47486773  0.90376137  1  0.064361  0.000339  0.097038  0.134364  0.00026  1.024856  0.0
H  H85  1  0.97286733  0.52460767  0.09609803  1  0.06618  -0.000402  0.097166  0.134401  -0.000319  1.025071  0.0
H  H86  1  0.02752671  0.97490166  0.59623654  1  0.064584  0.000342  0.097048  0.134284  0.000264  1.024904  0.0
H  H87  1  0.02760251  0.02528096  0.40371242  1  0.064013  0.00034  0.097188  0.134206  0.000264  1.024686  0.0
H  H88  1  0.87809542  0.34423875  0.92862172  1  0.068659  0.000183  0.099487  0.1426  8.8e-05  0.98359  0.0
H  H89  1  0.87815567  0.65522670  0.07128319  1  0.024841  -0.000204  0.099776  0.142837  -9.5e-05  0.983185  0.0
H  H90  1  0.12204068  0.84429804  0.57138790  1  0.069274  0.000177  0.099475  0.142537  8.5e-05  0.983633  0.0
H  H91  1  0.12204455  0.15589929  0.42860187  1  0.068486  0.000179  0.099628  0.142793  8.6e-05  0.982999  0.0
H  H92  1  0.97081448  0.44621332  0.96851302  1  0.040117  9.9e-05  0.092073  0.1297  3.6e-05  1.021614  0.0
H  H93  1  0.97122586  0.55361694  0.03135971  1  0.033722  -0.000106  0.091833  0.129141  -3.7e-05  1.021211  0.0
H  H94  1  0.02915486  0.94620073  0.53149404  1  0.039682  9.7e-05  0.092045  0.129534  3.1e-05  1.021257  0.0
H  H95  1  0.02918934  0.05396347  0.46846553  1  0.040276  9.6e-05  0.091939  0.129311  3.1e-05  1.021157  0.0
C  C96  1  0.47726566  0.24594232  0.77878766  1  -0.115247  0.000813  -0.239289  -0.391301  0.000483  3.881183  0.001
C  C97  1  0.47722597  0.75380322  0.22143883  1  -0.125754  0.001737  -0.239992  -0.392244  0.001213  3.879624  0.001
C  C98  1  0.52278061  0.74600984  0.72122375  1  -0.115934  0.000813  -0.239276  -0.391046  0.000483  3.880512  0.001
C  C99  1  0.52244367  0.25424656  0.27905877  1  -0.110719  0.000783  -0.240159  -0.393984  0.000461  3.880806  0.001
C  C100  1  0.47204434  0.36024266  0.74328639  1  0.356093  0.000954  0.008516  0.069543  0.001024  3.901606  0.0
C  C101  1  0.47182797  0.63933456  0.25688197  1  0.345444  0.001992  0.008897  0.070622  0.002264  3.905624  0.0
C  C102  1  0.52796342  0.86028981  0.75671164  1  0.356755  0.000954  0.008706  0.069694  0.001024  3.901704  0.0
C  C103  1  0.52784405  0.14029555  0.24341424  1  0.354414  0.000951  0.009317  0.0697  0.001038  3.902783  0.0
C  C104  1  0.40616363  0.32015667  0.69417630  1  1.553931  0.001213  0.217914  0.583512  0.001662  4.093997  0.001
C  C105  1  0.40631601  0.67949781  0.30601061  1  1.566927  0.001349  0.217905  0.583714  0.001954  4.088688  0.001
C  C106  1  0.59386589  0.82022512  0.80582319  1  1.554855  0.001209  0.218018  0.5836  0.001663  4.093807  0.001
C  C107  1  0.59364260  0.18091278  0.19438192  1  1.559296  0.00014  0.218444  0.585261  0.000887  4.091604  0.0
C  C108  1  0.68645046  0.47034210  0.76335676  1  1.372441  0.00109  0.210865  0.351334  0.000572  4.227485  0.002
C  C109  1  0.68590463  0.52995078  0.23644344  1  1.376741  -0.001528  0.210784  0.358246  0.001787  4.210675  0.0
C  C110  1  0.31355863  0.97034166  0.73664640  1  1.373546  0.001084  0.210888  0.351449  0.000571  4.227961  0.002
C  C111  1  0.31365571  0.02989809  0.26336125  1  1.374216  0.001082  0.211347  0.351744  0.00057  4.227542  0.002
C  C112  1  0.82127488  0.51087842  0.74031790  1  1.380014  -0.002357  0.211918  0.359291  -0.001564  4.214911  -0.003
C  C113  1  0.82055158  0.48815546  0.25952814  1  1.387451  0.000402  0.211204  0.362203  0.003328  4.200196  0.001
C  C114  1  0.17877558  0.01088203  0.75968073  1  1.38055  -0.002348  0.211948  0.359445  -0.001555  4.215491  -0.003
C  C115  1  0.17893464  0.98921745  0.24030145  1  1.382062  -0.002358  0.211913  0.358974  -0.001558  4.216995  -0.003
C  C116  1  0.03924918  0.61552965  0.76182753  1  0.35938  -0.00062  0.009462  0.078617  -0.000829  3.908024  0.001
C  C117  1  0.03874131  0.38528205  0.23788468  1  0.349817  0.001452  0.009238  0.079867  0.001839  3.91372  0.0
C  C118  1  0.96074709  0.11548621  0.73818046  1  0.358063  -0.000627  0.009466  0.078601  -0.000834  3.908144  0.001
C  C119  1  0.96120992  0.88418506  0.26167869  1  0.353217  -0.000652  0.010676  0.079438  -0.000858  3.904952  0.0
C  C120  1  0.13536500  0.51861686  0.73776407  1  -0.085834  -0.001915  -0.246694  -0.400467  -0.001328  3.927744  -0.001
C  C121  1  0.13523253  0.48133177  0.26225058  1  -0.074248  0.004935  -0.247146  -0.400065  0.0037  3.927301  0.003
C  C122  1  0.86470361  0.01857272  0.76228580  1  -0.087375  -0.001916  -0.246755  -0.400821  -0.001328  3.926982  -0.001
C  C123  1  0.86462628  0.98126467  0.23784364  1  -0.085256  -0.001914  -0.246471  -0.400586  -0.001316  3.925131  -0.001
C  C124  1  0.09803184  0.66577905  0.81077631  1  1.552679  -0.000913  0.21431  0.577828  -0.001492  4.100039  -0.001
C  C125  1  0.09765700  0.33445749  0.18909438  1  1.548866  0.000117  0.213891  0.576883  0.001053  4.096683  0.0
C  C126  1  0.90189454  0.16572934  0.68922622  1  1.552431  -0.000926  0.21403  0.577686  -0.001501  4.099445  -0.001
C  C127  1  0.90264075  0.83313404  0.31050627  1  1.554222  -0.001021  0.214493  0.578856  -0.001569  4.098345  -0.001
C  C128  1  0.58240094  0.55547173  0.56677947  1  -0.071888  3e-06  -0.231975  -0.422708  -7.9e-05  3.980443  0.0
C  C129  1  0.58234061  0.44494638  0.43332439  1  -0.076089  3e-06  -0.231739  -0.423317  -9.7e-05  3.978408  0.0
C  C130  1  0.41757144  0.05538072  0.93322830  1  -0.072404  4e-06  -0.231954  -0.422623  -7.8e-05  3.98072  0.0
C  C131  1  0.41770275  0.94455971  0.06679309  1  -0.069351  1.1e-05  -0.231908  -0.422419  -7.5e-05  3.980957  0.0
C  C132  1  0.70748210  0.47408642  0.56224252  1  0.442887  0.000235  0.095301  0.197048  0.000443  4.022734  0.001
C  C133  1  0.70718383  0.52663408  0.43787066  1  0.444548  0.000595  0.096543  0.199812  0.000784  4.019074  0.001
C  C134  1  0.29261885  0.97386029  0.93778648  1  0.441424  0.000226  0.095389  0.197839  0.000437  4.022231  0.001
C  C135  1  0.29267954  0.02601766  0.06222742  1  0.445765  0.000278  0.095205  0.197202  0.000508  4.023302  0.001
C  C136  1  0.80561062  0.46646714  0.52363914  1  0.032917  0.00199  -0.036694  -0.141689  0.001361  4.063032  0.002
C  C137  1  0.80548652  0.53424934  0.47645279  1  0.078348  0.002279  -0.037358  -0.143867  0.001576  4.063563  0.002
C  C138  1  0.19451333  0.96610107  0.97638989  1  0.080161  0.001816  -0.03683  -0.143339  0.001257  4.063786  0.001
C  C139  1  0.19452652  0.03367670  0.02360469  1  0.029793  0.0019  -0.036869  -0.142081  0.001304  4.063346  0.002
C  C140  1  0.90583009  0.38036469  0.54069290  1  0.386075  -0.000217  0.103495  0.203343  2.8e-05  3.979885  0.0
C  C141  1  0.90563782  0.62030255  0.45937001  1  0.388277  -0.000101  0.104347  0.205237  0.000167  3.976995  0.0
C  C142  1  0.09430042  0.88011073  0.95930903  1  0.38649  -0.000292  0.103756  0.204198  -2e-05  3.978774  0.0
C  C143  1  0.09422679  0.11960449  0.04067102  1  0.38971  -0.000177  0.103291  0.203089  9.9e-05  3.980387  0.0
C  C144  1  0.03492211  0.33421196  0.51725592  1  -0.031552  0.000389  -0.228327  -0.420993  0.000249  3.967109  0.0
C  C145  1  0.03500959  0.66616636  0.48274010  1  -0.033825  0.000495  -0.22854  -0.42167  0.000324  3.967161  0.0
C  C146  1  0.96511716  0.83399639  0.98270122  1  -0.034923  0.00038  -0.228484  -0.421353  0.000247  3.967448  0.0
C  C147  1  0.96504693  0.16569429  0.01721991  1  -0.030963  0.000344  -0.228702  -0.421339  0.000217  3.967138  0.0
C  C148  1  0.45188530  0.66294157  0.98077809  1  -0.047997  -0.000404  -0.229169  -0.421539  -0.000267  3.970815  0.0
C  C149  1  0.45180470  0.33695623  0.01909478  1  -0.045946  0.000461  -0.229254  -0.421013  0.000301  3.970455  0.0
C  C150  1  0.54817109  0.16303859  0.51922215  1  -0.04847  -0.000401  -0.229118  -0.421001  -0.000262  3.971133  0.0
C  C151  1  0.54827689  0.83717367  0.48090479  1  -0.042019  -0.000405  -0.229788  -0.421552  -0.000265  3.971448  0.0
C  C152  1  0.58366745  0.61953180  0.95851961  1  0.420622  0.000759  0.103834  0.203353  0.000309  3.977939  0.0
C  C153  1  0.58393124  0.37997821  0.04123398  1  0.476416  -0.000352  0.104568  0.204686  3.3e-05  3.977203  0.0
C  C154  1  0.41633010  0.11962923  0.54145069  1  0.417867  0.000157  0.103998  0.202888  -9e-05  3.979341  0.0
C  C155  1  0.41642907  0.88060002  0.45863616  1  0.412771  0.000176  0.103999  0.203087  -6.8e-05  3.978282  0.0
C  C156  1  0.68306107  0.53373978  0.97634526  1  -0.010625  -0.000806  -0.037142  -0.141566  -0.000555  4.068996  -0.001
C  C157  1  0.68322486  0.46581095  0.02340351  1  0.017496  0.001548  -0.037079  -0.142391  0.001068  4.068696  0.001
C  C158  1  0.31696662  0.03391912  0.52359606  1  0.073894  -0.001828  -0.037317  -0.14167  -0.001295  4.069505  -0.001
C  C159  1  0.31699326  0.96625891  0.47647604  1  0.030178  -0.001837  -0.037518  -0.142401  -0.001289  4.069072  -0.001
C  C160  1  0.78422020  0.52718179  0.93880045  1  0.482034  4e-06  0.094952  0.198476  -0.000356  4.026315  -0.001
C  C161  1  0.78464527  0.47219050  0.06090955  1  0.446146  0.000478  0.094962  0.198419  0.000754  4.025761  0.001
C  C162  1  0.21582310  0.02723288  0.56113712  1  0.4498  -0.000258  0.094697  0.197864  -0.000505  4.026262  -0.001
C  C163  1  0.21587889  0.97297163  0.43888486  1  0.441677  -0.000262  0.094819  0.198092  -0.000503  4.026428  -0.001
C  C164  1  0.90825148  0.44423463  0.93483251  1  -0.072176  4.2e-05  -0.233652  -0.430651  0.000121  3.987344  0.0
C  C165  1  0.90852911  0.55529394  0.06499550  1  -0.018591  -3e-05  -0.232941  -0.429229  -0.000139  3.986671  0.0
C  C166  1  0.09182715  0.94428462  0.56514893  1  -0.080512  3.4e-05  -0.233609  -0.430119  0.000117  3.987026  0.0
C  C167  1  0.09185391  0.05591652  0.43483213  1  -0.071703  3.4e-05  -0.233413  -0.429891  0.000117  3.986455  0.0
N  N168  1  0.60668698  0.41047719  0.73217034  1  -1.195774  0.081369  -0.411411  -0.403626  0.05299  3.635765  0.067
N  N169  1  0.60608719  0.58869843  0.26799985  1  -1.209814  0.116106  -0.419599  -0.418802  0.075095  3.646543  0.095
N  N170  1  0.39331874  0.91050862  0.76783369  1  -1.197337  0.081308  -0.411452  -0.403468  0.052947  3.637244  0.067
N  N171  1  0.39333300  0.08983037  0.23220808  1  -1.196592  0.081483  -0.411704  -0.403037  0.053127  3.636957  0.067
N  N172  1  0.90326433  0.56646683  0.77204460  1  -1.193562  -0.078864  -0.410196  -0.408761  -0.052227  3.618338  -0.065
N  N173  1  0.90395083  0.43624637  0.22725065  1  -1.214929  0.115296  -0.418068  -0.423279  0.074447  3.628127  0.094
N  N174  1  0.09673478  0.06641920  0.72794472  1  -1.192563  -0.078972  -0.410287  -0.408969  -0.052299  3.619019  -0.065
N  N175  1  0.09702289  0.93356132  0.27200884  1  -1.19548  -0.078829  -0.410359  -0.408631  -0.052187  3.618844  -0.065
N  N176  1  0.74584590  0.39663009  0.59945712  1  -0.715254  0.033848  -0.28751  -0.242121  0.023503  3.577031  0.029
N  N177  1  0.74535458  0.60417612  0.40066730  1  -0.71261  0.044107  -0.288183  -0.24566  0.030502  3.574103  0.038
N  N178  1  0.25420039  0.89658937  0.90053650  1  -0.714097  0.033893  -0.287778  -0.242443  0.023534  3.577895  0.029
N  N179  1  0.25426228  0.10331949  0.09945468  1  -0.718822  0.034135  -0.287568  -0.242457  0.02368  3.577342  0.029
N  N180  1  0.86550912  0.34125492  0.58591768  1  -0.844526  0.00065  -0.273908  -0.124157  0.000219  3.654889  0.0
N  N181  1  0.86508896  0.65952000  0.41417013  1  -0.843069  0.001131  -0.273668  -0.123956  0.000459  3.652799  0.0
N  N182  1  0.13452988  0.84120887  0.91405608  1  -0.848232  0.000634  -0.274068  -0.124383  0.00021  3.654726  0.0
N  N183  1  0.13450947  0.15860896  0.08591084  1  -0.848235  0.002727  -0.274305  -0.124166  0.001503  3.654999  0.002
N  N184  1  0.62764254  0.65993044  0.91384493  1  -0.809494  -0.000596  -0.273246  -0.122269  -0.000223  3.647263  0.0
N  N185  1  0.62824878  0.33922186  0.08582724  1  -0.821907  0.002689  -0.273338  -0.123285  0.001445  3.647917  0.002
N  N186  1  0.37238049  0.15990693  0.58613754  1  -0.810601  -0.000762  -0.272852  -0.121339  -0.000318  3.646506  0.0
N  N187  1  0.37255159  0.84039520  0.41392119  1  -0.807823  -0.000476  -0.27264  -0.121075  -0.000144  3.645861  0.0
N  N188  1  0.74878244  0.60540636  0.90151521  1  -0.751875  -0.034209  -0.289953  -0.244044  -0.024129  3.582511  -0.029
N  N189  1  0.74944087  0.39369244  0.09812873  1  -0.746701  0.044581  -0.289275  -0.2449  0.030852  3.5816  0.038
N  N190  1  0.25123313  0.10536612  0.59844213  1  -0.750507  -0.034313  -0.289823  -0.244287  -0.024206  3.580971  -0.029
N  N191  1  0.25138439  0.89492932  0.40157804  1  -0.751694  -0.034234  -0.28965  -0.243894  -0.024141  3.58235  -0.029
O  O192  1  0.48426298  0.32235695  0.65493742  1  -1.125601  0.074297  -0.326808  -0.550878  0.048487  2.326527  0.069
O  O193  1  0.48457581  0.67723740  0.34529701  1  -1.127896  0.099523  -0.325862  -0.552073  0.064706  2.318227  0.092
O  O194  1  0.51578669  0.82243767  0.84506592  1  -1.127486  0.074331  -0.326868  -0.550872  0.048508  2.326821  0.069
O  O195  1  0.51601841  0.17795939  0.15502425  1  -1.12543  0.074  -0.326191  -0.550427  0.048335  2.323035  0.069
O  O196  1  0.84221153  0.48847311  0.69448414  1  -1.094502  0.074924  -0.30665  -0.465704  0.048843  2.26664  0.068
O  O197  1  0.83997254  0.50581101  0.30589379  1  -1.111514  0.122911  -0.316444  -0.48142  0.079431  2.253161  0.11
O  O198  1  0.15784869  0.98855892  0.80552419  1  -1.094572  0.074937  -0.306484  -0.465524  0.048845  2.26672  0.068
O  O199  1  0.15792087  0.01151807  0.19445462  1  -1.0935  0.07512  -0.306088  -0.465001  0.048937  2.265723  0.068
O  O200  1  0.66181181  0.49733088  0.80853753  1  -1.084688  -0.075497  -0.306859  -0.461298  -0.050126  2.260158  -0.068
O  O201  1  0.66168300  0.50510501  0.19090359  1  -1.103503  0.120217  -0.318649  -0.480536  0.07769  2.248286  0.107
O  O202  1  0.33816662  0.99731522  0.69144962  1  -1.085121  -0.075611  -0.307118  -0.461563  -0.050203  2.259629  -0.068
O  O203  1  0.33828273  0.00294454  0.30857386  1  -1.084587  -0.075927  -0.306804  -0.461263  -0.050418  2.258734  -0.069
O  O204  1  0.01257156  0.67743796  0.84770601  1  -1.137786  -0.073603  -0.327181  -0.550731  -0.048755  2.33156  -0.069
O  O205  1  0.01229382  0.32244793  0.15207383  1  -1.127209  0.09844  -0.325904  -0.551173  0.063935  2.323639  0.091
O  O206  1  0.98734137  0.17730161  0.65228022  1  -1.13823  -0.073552  -0.327095  -0.550978  -0.048714  2.331167  -0.068
O  O207  1  0.98768952  0.82240943  0.34761723  1  -1.136047  -0.073094  -0.327019  -0.55084  -0.048454  2.329752  -0.068
O  O208  1  0.22192287  0.69467494  0.81360444  1  -1.168883  -0.023571  -0.320848  -0.543108  -0.015238  2.246296  -0.019
O  O209  1  0.22153511  0.30532892  0.18630309  1  -1.162421  0.033632  -0.319158  -0.540581  0.021729  2.244484  0.029
O  O210  1  0.77800746  0.19461317  0.68641731  1  -1.168086  -0.023506  -0.320645  -0.542685  -0.015193  2.246869  -0.019
O  O211  1  0.77905778  0.80289063  0.31305076  1  -1.170748  -0.022847  -0.320663  -0.54481  -0.014799  2.251572  -0.018
O  O212  1  0.28388725  0.28550042  0.69351326  1  -1.172981  0.022654  -0.312357  -0.538345  0.014415  2.28323  0.018
O  O213  1  0.28413087  0.71449251  0.30685003  1  -1.173257  0.032247  -0.311338  -0.536694  0.020466  2.280901  0.026
O  O214  1  0.71613735  0.78551761  0.80648420  1  -1.172836  0.022625  -0.312415  -0.538371  0.014396  2.283816  0.018
O  O215  1  0.71564781  0.21654526  0.19393488  1  -1.1761  0.022247  -0.312848  -0.540274  0.014476  2.285876  0.02
