# generated using pymatgen
data_Sb2H5C2SO6
_symmetry_space_group_name_H-M   'P 1'
_cell_length_a   6.01586343
_cell_length_b   10.09939395
_cell_length_c   12.27239913
_cell_angle_alpha   89.99934973
_cell_angle_beta   101.96955366
_cell_angle_gamma   89.99997833
_symmetry_Int_Tables_number   1
_chemical_formula_structural   Sb2H5C2SO6
_chemical_formula_sum   'Sb8 H20 C8 S4 O24'
_cell_volume   729.41742936
_cell_formula_units_Z   4
loop_
 _symmetry_equiv_pos_site_id
 _symmetry_equiv_pos_as_xyz
  1  'x, y, z'
loop_
 _atom_site_type_symbol
 _atom_site_label
 _atom_site_symmetry_multiplicity
 _atom_site_fract_x
 _atom_site_fract_y
 _atom_site_fract_z
 _atom_site_occupancy
 _atom_site_hle17_bader_spin_density
 _atom_site_hle17_ddec_charge
 _atom_site_hle17_ddec_spin_density
 _atom_site_hle17_ddec_sum_bond_order
 _atom_site_hle17_magmom
 _atom_site_hse06_10hf_bader_spin_density
 _atom_site_hse06_10hf_ddec_charge
 _atom_site_hse06_10hf_ddec_spin_density
 _atom_site_hse06_10hf_ddec_sum_bond_order
 _atom_site_hse06_10hf_magmom
 _atom_site_hse06_bader_spin_density
 _atom_site_hse06_ddec_charge
 _atom_site_hse06_ddec_spin_density
 _atom_site_hse06_ddec_sum_bond_order
 _atom_site_hse06_magmom
 _atom_site_pbe_bader_spin_density
 _atom_site_pbe_cm5_charge
 _atom_site_pbe_ddec_charge
 _atom_site_pbe_ddec_spin_density
 _atom_site_pbe_ddec_sum_bond_order
 _atom_site_pbe_magmom
Sb  Sb0  1  0.47849085  0.35105777  0.26785360  1  0  1.40522  0  2.7593  0  0  1.250932  0  3.242955  0  0  1.295594  0  3.210107  0  0  0.70645  1.215709  0  3.266882  0
Sb  Sb1  1  0.02151273  0.85105096  0.73214628  1  0  1.405241  0  2.759176  0  0  1.250972  0  3.242821  0  0  1.295637  0  3.20997  0  0  0.706439  1.21575  0  3.26675  0
Sb  Sb2  1  0.52150815  0.64894273  0.73214812  1  0  1.405223  0  2.759253  0  0  1.250954  0  3.242901  0  0  1.295616  0  3.210054  0  0  0.706428  1.215731  0  3.266841  0
Sb  Sb3  1  0.97848799  0.14894954  0.26785318  1  0  1.405231  0  2.759177  0  0  1.250946  0  3.242836  0  0  1.295609  0  3.209987  0  0  0.706418  1.21572  0  3.266774  0
Sb  Sb4  1  0.26315368  0.39841546  0.50150986  1  0  1.422247  0  2.684945  0  0  1.250707  0  3.191846  0  0  1.295604  0  3.156512  0  0  0.707386  1.215649  0  3.216393  0
Sb  Sb5  1  0.23684459  0.89841776  0.49848821  1  0  1.422249  0  2.684903  0  0  1.250701  0  3.191814  0  0  1.295596  0  3.156481  0  0  0.707357  1.215643  0  3.216358  0
Sb  Sb6  1  0.73684533  0.60158504  0.49849105  1  0  1.422242  0  2.684977  0  0  1.250708  0  3.191875  0  0  1.295601  0  3.156546  0  0  0.707366  1.215646  0  3.216435  0
Sb  Sb7  1  0.76315273  0.10158273  0.50151170  1  0  1.422242  0  2.684983  0  0  1.250678  0  3.191924  0  0  1.295575  0  3.15659  0  0  0.707354  1.215614  0  3.216475  0
H  H8  1  0.75606267  0.71558667  0.10562865  1  0  0.14168  0  0.91937  0  0  0.155285  0  0.973211  0  0  0.157874  0  0.9726  0  0  0.112575  0.153222  0  0.973951  0
H  H9  1  0.74394516  0.21558290  0.89436020  1  0  0.141656  0  0.919213  0  0  0.155235  0  0.973102  0  0  0.157824  0  0.972495  0  0  0.112546  0.153172  0  0.973842  0
H  H10  1  0.24394143  0.28441680  0.89437278  1  0  0.141736  0  0.91933  0  0  0.155304  0  0.97316  0  0  0.157893  0  0.972551  0  0  0.11258  0.153242  0  0.9739  0
H  H11  1  0.25605217  0.78441561  0.10563727  1  0  0.141646  0  0.919284  0  0  0.155208  0  0.973201  0  0  0.157796  0  0.972596  0  0  0.112546  0.153145  0  0.973937  0
H  H12  1  0.85646773  0.61308218  0.00712763  1  0  0.130889  0  0.937457  0  0  0.142853  0  0.997841  0  0  0.145892  0  0.996527  0  0  0.104767  0.140691  0  0.998763  0
H  H13  1  0.64353376  0.11308103  0.99286478  1  0  0.130716  0  0.937454  0  0  0.142723  0  0.997818  0  0  0.145766  0  0.996498  0  0  0.10472  0.140562  0  0.998742  0
H  H14  1  0.14353806  0.38691931  0.99287561  1  0  0.13099  0  0.937348  0  0  0.142906  0  0.997758  0  0  0.145949  0  0.996443  0  0  0.104784  0.140743  0  0.998683  0
H  H15  1  0.35645678  0.88691946  0.00713199  1  0  0.130811  0  0.937398  0  0  0.142808  0  0.997767  0  0  0.145849  0  0.996451  0  0  0.104766  0.140644  0  0.99869  0
H  H16  1  0.42780671  0.64395860  0.97250386  1  0  0.073598  0  0.968281  0  0  0.088586  0  1.037321  0  0  0.089347  0  1.038232  0  0  0.089043  0.088058  0  1.036518  0
H  H17  1  0.07219276  0.14395398  0.02749670  1  0  0.073556  0  0.968272  0  0  0.088543  0  1.037339  0  0  0.089301  0  1.038252  0  0  0.089047  0.088016  0  1.036532  0
H  H18  1  0.57219908  0.35604288  0.02750019  1  0  0.0736  0  0.96824  0  0  0.088551  0  1.037354  0  0  0.089308  0  1.038266  0  0  0.089029  0.088024  0  1.036547  0
H  H19  1  0.92779776  0.85604156  0.97250251  1  0  0.073595  0  0.968248  0  0  0.088596  0  1.037275  0  0  0.089355  0  1.038186  0  0  0.089022  0.088068  0  1.03647  0
H  H20  1  0.42026293  0.56621344  0.09867614  1  0  0.067074  0  0.969479  0  0  0.080179  0  1.04165  0  0  0.081133  0  1.042212  0  0  0.086484  0.079317  0  1.041689  0
H  H21  1  0.07975219  0.06620863  0.90132758  1  0  0.067126  0  0.969414  0  0  0.080201  0  1.04164  0  0  0.081154  0  1.0422  0  0  0.086506  0.079339  0  1.041676  0
H  H22  1  0.57974285  0.43378607  0.90132791  1  0  0.067082  0  0.969477  0  0  0.080174  0  1.041682  0  0  0.081126  0  1.042242  0  0  0.086462  0.07931  0  1.041725  0
H  H23  1  0.92024172  0.93378791  0.09867280  1  0  0.06715  0  0.969355  0  0  0.080225  0  1.041573  0  0  0.081178  0  1.042132  0  0  0.086523  0.07936  0  1.041618  0
H  H24  1  0.39031510  0.21686101  0.64052737  1  0  0.420375  0  0.851402  0  0  0.392326  0  0.928051  0  0  0.403241  0  0.912972  0  0  0.29413  0.384836  0  0.936546  0
H  H25  1  0.10968571  0.71686527  0.35947428  1  0  0.42042  0  0.851366  0  0  0.392365  0  0.928019  0  0  0.40328  0  0.91292  0  0  0.294136  0.384876  0  0.93651  0
H  H26  1  0.60968562  0.78313750  0.35947208  1  0  0.420376  0  0.851414  0  0  0.392338  0  0.928023  0  0  0.403252  0  0.912943  0  0  0.294142  0.38485  0  0.936511  0
H  H27  1  0.89031670  0.28313324  0.64052697  1  0  0.420384  0  0.851401  0  0  0.392342  0  0.928024  0  0  0.403256  0  0.912945  0  0  0.294131  0.38485  0  0.936526  0
C  C28  1  0.75555414  0.61457985  0.07233976  1  0  -0.297791  0  3.579791  0  0  -0.328363  0  3.832028  0  0  -0.333782  0  3.838723  0  0  -0.154831  -0.324539  0  3.827392  0
C  C29  1  0.74444903  0.11457463  0.92765443  1  0  -0.297539  0  3.579452  0  0  -0.328077  0  3.831609  0  0  -0.333504  0  3.838311  0  0  -0.154784  -0.324253  0  3.826975  0
C  C30  1  0.24444995  0.38542164  0.92766330  1  0  -0.297955  0  3.579824  0  0  -0.328413  0  3.831999  0  0  -0.333834  0  3.838677  0  0  -0.154864  -0.324591  0  3.827365  0
C  C31  1  0.25554491  0.88542389  0.07234269  1  0  -0.297645  0  3.579608  0  0  -0.328195  0  3.831808  0  0  -0.333623  0  3.838509  0  0  -0.154828  -0.324366  0  3.827167  0
C  C32  1  0.51188374  0.56701494  0.02972224  1  0  -0.101271  0  3.704626  0  0  -0.142575  0  3.961175  0  0  -0.144053  0  3.977033  0  0  -0.173497  -0.141357  0  3.950299  0
C  C33  1  0.98811791  0.06701205  0.97027713  1  0  -0.101338  0  3.704673  0  0  -0.142713  0  3.961295  0  0  -0.144182  0  3.977141  0  0  -0.173519  -0.141491  0  3.95041  0
C  C34  1  0.48812375  0.43298654  0.97028117  1  0  -0.101267  0  3.704704  0  0  -0.142591  0  3.961226  0  0  -0.144053  0  3.977073  0  0  -0.17347  -0.141369  0  3.950349  0
C  C35  1  0.01187602  0.93298548  0.02972080  1  0  -0.101393  0  3.704678  0  0  -0.142733  0  3.961268  0  0  -0.144197  0  3.977108  0  0  -0.17352  -0.141512  0  3.950389  0
S  S36  1  0.91661863  0.52049518  0.18520472  1  0  1.333442  0  5.518469  0  0  1.240221  0  6.036829  0  0  1.286468  0  6.015688  0  0  0.511371  1.208231  0  6.050144  0
S  S37  1  0.58338329  0.02049553  0.81478941  1  0  1.33337  0  5.518589  0  0  1.240167  0  6.03693  0  0  1.286413  0  6.015796  0  0  0.51141  1.208167  0  6.050258  0
S  S38  1  0.08339057  0.47951026  0.81479724  1  0  1.333546  0  5.51824  0  0  1.240322  0  6.036575  0  0  1.286572  0  6.01544  0  0  0.511411  1.20834  0  6.049882  0
S  S39  1  0.41661234  0.97950596  0.18520870  1  0  1.333421  0  5.518718  0  0  1.240191  0  6.03709  0  0  1.286439  0  6.015959  0  0  0.511349  1.208205  0  6.050396  0
O  O40  1  0.78144841  0.52023714  0.27474949  1  0  -0.706124  0  2.073089  0  0  -0.638178  0  2.343977  0  0  -0.662547  0  2.332039  0  0  -0.318969  -0.620478  0  2.351053  0
O  O41  1  0.71855860  0.02023572  0.72524680  1  0  -0.706097  0  2.073083  0  0  -0.638147  0  2.343947  0  0  -0.662523  0  2.332017  0  0  -0.318962  -0.62044  0  2.351022  0
O  O42  1  0.21856250  0.47976434  0.72525265  1  0  -0.706121  0  2.073084  0  0  -0.638163  0  2.343919  0  0  -0.662541  0  2.331988  0  0  -0.318932  -0.620471  0  2.351  0
O  O43  1  0.28143365  0.97976577  0.27474933  1  0  -0.706098  0  2.073077  0  0  -0.638112  0  2.343878  0  0  -0.662487  0  2.331945  0  0  -0.318932  -0.620413  0  2.35095  0
O  O44  1  0.93775790  0.38468138  0.14293519  1  0  -0.717685  0  2.009262  0  0  -0.658854  0  2.273311  0  0  -0.682391  0  2.262578  0  0  -0.3345  -0.641947  0  2.279673  0
O  O45  1  0.56225583  0.88467383  0.85706492  1  0  -0.717699  0  2.009015  0  0  -0.658911  0  2.273065  0  0  -0.682447  0  2.26234  0  0  -0.334549  -0.641998  0  2.279426  0
O  O46  1  0.06224621  0.61532010  0.85706624  1  0  -0.717722  0  2.009382  0  0  -0.658909  0  2.273459  0  0  -0.682428  0  2.262694  0  0  -0.334527  -0.642006  0  2.279824  0
O  O47  1  0.43775000  0.11532271  0.14293425  1  0  -0.717668  0  2.009213  0  0  -0.658846  0  2.273264  0  0  -0.682363  0  2.26249  0  0  -0.334496  -0.641943  0  2.279627  0
O  O48  1  0.13554270  0.58765351  0.22297302  1  0  -0.657747  0  1.927098  0  0  -0.605687  0  2.176845  0  0  -0.626496  0  2.162308  0  0  -0.328403  -0.59104  0  2.186222  0
O  O49  1  0.36446898  0.08764341  0.77702282  1  0  -0.657689  0  1.927476  0  0  -0.605641  0  2.17725  0  0  -0.626446  0  2.162712  0  0  -0.32838  -0.590992  0  2.186641  0
O  O50  1  0.86445804  0.41234699  0.77702399  1  0  -0.657782  0  1.926731  0  0  -0.605753  0  2.176518  0  0  -0.626559  0  2.161981  0  0  -0.328419  -0.59111  0  2.185898  0
O  O51  1  0.63552663  0.91235214  0.22297773  1  0  -0.657714  0  1.927351  0  0  -0.605665  0  2.177136  0  0  -0.62647  0  2.162595  0  0  -0.32838  -0.591028  0  2.18653  0
O  O52  1  0.73650218  0.23460962  0.34555669  1  0  -0.870027  0  1.907339  0  0  -0.766713  0  2.1704  0  0  -0.79448  0  2.156644  0  0  -0.409486  -0.744603  0  2.179645  0
O  O53  1  0.76349525  0.73460580  0.65444476  1  0  -0.870032  0  1.907334  0  0  -0.766748  0  2.170417  0  0  -0.794512  0  2.15666  0  0  -0.409514  -0.744642  0  2.179671  0
O  O54  1  0.26349683  0.76538989  0.65444340  1  0  -0.870025  0  1.907341  0  0  -0.766714  0  2.170402  0  0  -0.794479  0  2.156644  0  0  -0.409481  -0.74461  0  2.179655  0
O  O55  1  0.23650206  0.26539470  0.34555597  1  0  -0.870012  0  1.907299  0  0  -0.766711  0  2.170375  0  0  -0.794476  0  2.156617  0  0  -0.409499  -0.744602  0  2.179621  0
O  O56  1  0.50970034  0.44876164  0.41278424  1  0  -0.821882  0  1.968334  0  0  -0.712528  0  2.223117  0  0  -0.740561  0  2.211738  0  0  -0.400689  -0.69088  0  2.230448  0
O  O57  1  0.99029780  0.94875572  0.58721284  1  0  -0.821841  0  1.968313  0  0  -0.712485  0  2.223089  0  0  -0.740518  0  2.211705  0  0  -0.400658  -0.69084  0  2.23042  0
O  O58  1  0.49029869  0.55124084  0.58721422  1  0  -0.821884  0  1.968316  0  0  -0.712525  0  2.223075  0  0  -0.74056  0  2.211695  0  0  -0.400653  -0.690876  0  2.230408  0
O  O59  1  0.00969443  0.05124082  0.41278410  1  0  -0.82188  0  1.968338  0  0  -0.712526  0  2.223121  0  0  -0.740561  0  2.211738  0  0  -0.400648  -0.690878  0  2.230453  0
O  O60  1  0.46565627  0.26135316  0.58658456  1  0  -0.822034  0  1.828484  0  0  -0.748188  0  2.070005  0  0  -0.770852  0  2.047278  0  0  -0.491822  -0.730859  0  2.083507  0
O  O61  1  0.03434265  0.76135471  0.41341404  1  0  -0.822082  0  1.828431  0  0  -0.748226  0  2.069936  0  0  -0.77089  0  2.04719  0  0  -0.491821  -0.7309  0  2.083438  0
O  O62  1  0.53434104  0.73864635  0.41341536  1  0  -0.822053  0  1.828521  0  0  -0.748197  0  2.070032  0  0  -0.770859  0  2.047306  0  0  -0.491832  -0.730866  0  2.08353  0
O  O63  1  0.96565807  0.23864480  0.58658541  1  0  -0.822039  0  1.828438  0  0  -0.748164  0  2.069912  0  0  -0.770825  0  2.047186  0  0  -0.49181  -0.730828  0  2.083419  0
