# generated using pymatgen
data_Zn4H49C69N17O4
_symmetry_space_group_name_H-M   'P 1'
_cell_length_a   14.51976252
_cell_length_b   14.67100048
_cell_length_c   14.87894106
_cell_angle_alpha   103.71353086
_cell_angle_beta   112.09189004
_cell_angle_gamma   111.85127900
_symmetry_Int_Tables_number   1
_chemical_formula_structural   Zn4H49C69N17O4
_chemical_formula_sum   'Zn4 H49 C69 N17 O4'
_cell_volume   2449.86647301
_cell_formula_units_Z   1
loop_
 _symmetry_equiv_pos_site_id
 _symmetry_equiv_pos_as_xyz
  1  'x, y, z'
loop_
 _atom_site_type_symbol
 _atom_site_label
 _atom_site_symmetry_multiplicity
 _atom_site_fract_x
 _atom_site_fract_y
 _atom_site_fract_z
 _atom_site_occupancy
 _atom_site_pbe_bader_charge
 _atom_site_pbe_bader_spin_density
 _atom_site_pbe_cm5_charge
 _atom_site_pbe_ddec_charge
 _atom_site_pbe_ddec_spin_density
 _atom_site_pbe_ddec_sum_bond_order
 _atom_site_pbe_magmom
Zn  Zn0  1  0.86915549  0.86283594  0.50190154  1  1.185777  0  0.747508  0.60259  0  2.493749  0
Zn  Zn1  1  0.15028160  0.14344202  0.49667072  1  1.186774  0  0.742767  0.603119  0  2.466542  0
Zn  Zn2  1  0.14922371  0.99845117  0.63232917  1  1.190606  0  0.745039  0.605677  0  2.470335  0
Zn  Zn3  1  0.86699030  0.00427644  0.36234852  1  1.188552  0  0.743114  0.606068  0  2.456822  0
H  H4  1  0.82147540  0.00513749  0.66139850  1  0.103101  0  0.121119  0.113461  0  1.001023  0
H  H5  1  0.39157082  0.44390312  0.31834223  1  0.11569  0  0.105666  0.109817  0  0.996797  0
H  H6  1  0.34492450  0.56891246  0.25262930  1  0.080796  0  0.107009  0.114824  0  0.993654  0
H  H7  1  0.19776016  0.34827319  0.68179196  1  0.085589  0  0.114224  0.0997  0  1.022103  0
H  H8  1  0.50596228  0.65743266  0.64171682  1  0.062255  0  0.104156  0.106112  0  0.998558  0
H  H9  1  0.24796559  0.73799966  0.41552234  1  0.040123  0  0.098311  0.099911  0  1.014778  0
H  H10  1  0.40648991  0.89118944  0.21173937  1  0.059952  0  0.096956  0.097466  0  1.023633  0
H  H11  1  0.05716408  0.77732159  0.11046543  1  0.059047  0  0.101901  0.102499  0  1.002856  0
H  H12  1  0.97014823  0.84745096  0.98608853  1  0.054576  0  0.09634  0.091622  0  1.003377  0
H  H13  1  0.09407574  0.02666276  0.99747113  1  0.074585  0  0.095749  0.093414  0  1.034357  0
H  H14  1  0.30526220  0.13426446  0.13265376  1  0.058099  0  0.097734  0.096863  0  1.000103  0
H  H15  1  0.17495852  0.00674423  0.31118141  1  0.094448  0  0.112239  0.101089  0  1.041127  0
H  H16  1  0.39227009  0.06219871  0.25519445  1  0.065477  0  0.096934  0.096351  0  1.006419  0
H  H17  1  0.85050766  0.35204921  0.64318220  1  0.020516  0  0.095325  0.105008  0  1.014736  0
H  H18  1  0.40830148  0.17004525  0.85217808  1  0.082206  0  0.116145  0.103395  0  1.010371  0
H  H19  1  0.22959824  0.68615884  0.64747629  1  0.035185  0  0.087  0.091937  0  1.002282  0
H  H20  1  0.30332355  0.73485050  0.79061198  1  -0.000958  0  0.084674  0.084955  0  0.997936  0
H  H21  1  0.23199089  0.51416422  0.62541426  1  0.030531  0  0.088121  0.092329  0  0.995826  0
H  H22  1  0.30581610  0.56157724  0.76857525  1  0.026338  0  0.084859  0.085462  0  0.997625  0
H  H23  1  0.78202831  0.66261177  0.99825149  1  0.033153  0  0.091415  0.091924  0  1.017857  0
H  H24  1  0.63089670  0.49737850  0.83076681  1  0.015747  0  0.088888  0.086606  0  1.023972  0
H  H25  1  0.45142994  0.32685822  0.04371807  1  0.042193  0  0.088132  0.09783  0  1.010226  0
H  H26  1  0.19961090  0.83468259  0.74001025  1  0.097047  0  0.114125  0.101686  0  1.015062  0
H  H27  1  0.54484473  0.27221537  0.05825128  1  0.029854  0  0.086533  0.087145  0  0.998128  0
H  H28  1  0.60677893  0.49364142  0.21377565  1  0.047944  0  0.093802  0.10274  0  0.98747  0
H  H29  1  0.58779759  0.93871272  0.25587588  1  0.065801  0  0.114044  0.100214  0  1.00638  0
H  H30  1  0.70186380  0.44084646  0.22959825  1  0.038716  0  0.091206  0.094451  0  0.99057  0
H  H31  1  0.17133945  0.29638533  0.17069277  1  0.089571  0  0.101724  0.105167  0  1.023594  0
H  H32  1  0.78612559  0.90870163  0.94747660  1  0.029938  0  0.091706  0.095784  0  0.997003  0
H  H33  1  0.71715696  0.98718798  0.93347925  1  0.021856  0  0.087494  0.087824  0  0.998819  0
H  H34  1  0.79047073  0.90039262  0.77940053  1  0.051816  0  0.091741  0.098346  0  0.990233  0
H  H35  1  0.72178945  0.97913395  0.76469576  1  0.052337  0  0.089711  0.101895  0  1.018986  0
H  H36  1  0.41493019  0.36828804  0.67820162  1  0.076784  0  0.113322  0.100337  0  1.009423  0
H  H37  1  0.81808502  0.04187989  0.14057928  1  0.116438  0  0.114913  0.103526  0  1.006593  0
H  H38  1  0.60032813  0.75774056  0.44715041  1  0.105343  0  0.111284  0.098863  0  1.042455  0
H  H39  1  0.82270140  0.17801781  0.50002385  1  0.084171  0  0.116736  0.106196  0  0.999128  0
H  H40  1  0.19686212  0.17645767  0.84678604  1  0.078179  0  0.113717  0.099427  0  1.018392  0
H  H41  1  0.83738341  0.65127761  0.33957050  1  0.100145  0  0.117161  0.105137  0  1.00791  0
H  H42  1  0.50046441  0.88733683  0.73297581  1  0.583718  0  0.341052  0.373713  0  0.864602  0
H  H43  1  0.76535406  0.44823258  0.64958836  1  0.400587  0  0.298505  0.239237  0  0.953394  0
H  H44  1  0.75720355  0.59946971  0.73532673  1  0.010732  0  0.092641  0.095223  0  0.997919  0
H  H45  1  0.89811507  0.68974789  0.76592591  1  0.052497  0  0.094853  0.099834  0  1.0365  0
H  H46  1  0.88043045  0.60535136  0.83396605  1  0.024717  0  0.088317  0.090921  0  0.993519  0
H  H47  1  0.25844359  0.41624958  0.96163548  1  0.614231  0  0.346436  0.380167  0  0.851478  0
H  H48  1  0.19249611  0.23208651  0.31824496  1  0.110603  0  0.11742  0.105921  0  1.001055  0
H  H49  1  0.82539998  0.65012265  0.56728748  1  0.095983  0  0.114477  0.104251  0  1.018411  0
H  H50  1  0.83386637  0.83655053  0.15166525  1  0.092599  0  0.112311  0.097763  0  1.017598  0
H  H51  1  0.16595911  0.80794460  0.48563833  1  0.080111  0  0.115203  0.101968  0  1.009186  0
H  H52  1  0.47244503  0.48703471  0.51498959  1  0.053075  0  0.099169  0.095717  0  1.000562  0
C  C53  1  0.91341394  0.03818671  0.69242941  1  0.395607  0  0.012755  -0.041852  0  3.941141  0
C  C54  1  0.91651145  0.70955801  0.60460054  1  0.401476  0  0.00363  -0.059873  0  3.987619  0
C  C55  1  0.84276533  0.80655972  0.21273382  1  0.356637  0  0.00569  -0.050581  0  3.961693  0
C  C56  1  0.10544467  0.29170332  0.62773570  1  0.417909  0  0.008535  -0.042468  0  3.952847  0
C  C57  1  0.16338872  0.86567865  0.45209191  1  0.412277  0  0.008774  -0.043772  0  3.953496  0
C  C58  1  0.81347445  0.70038846  0.20308044  1  0.08565  0  -0.037445  -0.033935  0  4.091067  0
C  C59  1  0.18554429  0.88010930  0.37030059  1  0.014443  0  -0.036275  -0.040096  0  4.047397  0
C  C60  1  0.01368205  0.70540299  0.66881554  1  0.001147  0  -0.036118  -0.01417  0  4.094432  0
C  C61  1  0.00418487  0.14558943  0.18906638  1  -0.012139  0  -0.037608  -0.032782  0  4.115878  0
C  C62  1  0.40652123  0.51763488  0.37551919  1  -0.090445  0  -0.084071  -0.067764  0  3.999813  0
C  C63  1  0.38059493  0.58859727  0.33811141  1  -0.008521  0  -0.081257  -0.122696  0  3.945398  0
C  C64  1  0.01202398  0.30659021  0.61644394  1  0.013594  0  -0.033954  -0.026931  0  4.065325  0
C  C65  1  0.40092865  0.68602507  0.40853274  1  0.017041  0  0.009825  0.073198  0  3.953028  0
C  C66  1  0.44730353  0.71030163  0.51907422  1  -0.059819  0  -0.017204  -0.094947  0  3.953285  0
C  C67  1  0.47034062  0.63713467  0.55609564  1  -0.043037  0  -0.08859  -0.099934  0  4.00297  0
C  C68  1  0.39266545  0.20391720  0.79434635  1  0.396401  0  0.002672  -0.061632  0  4.00259  0
C  C69  1  0.45143733  0.54188375  0.48496629  1  -0.034622  0  -0.098362  -0.102273  0  4.054296  0
C  C70  1  0.28246981  0.77256902  0.37018032  1  0.0213  0  -0.094843  -0.17629  0  3.974813  0
C  C71  1  0.24364914  0.83579252  0.32779333  1  0.025812  0  -0.006201  0.050029  0  4.001105  0
C  C72  1  0.28188044  0.86862054  0.25978855  1  -0.014227  0  -0.009443  0.023414  0  3.974548  0
C  C73  1  0.37305915  0.85815573  0.25836196  1  -0.070937  0  -0.094909  -0.179546  0  3.979161  0
C  C74  1  0.42511372  0.81083218  0.31590104  1  0.030457  0  -0.011252  0.042293  0  4.027366  0
C  C75  1  0.45995357  0.30887880  0.80631999  1  0.001627  0  -0.039569  -0.032097  0  4.119082  0
C  C76  1  0.36932144  0.75721915  0.36364161  1  -0.025055  0  -0.010555  0.023974  0  3.993095  0
C  C77  1  0.11121772  0.85548278  0.11487928  1  -0.084643  0  -0.090559  -0.134664  0  3.976366  0
C  C78  1  0.06275132  0.89525067  0.04554495  1  -0.018209  0  -0.096513  -0.084035  0  4.036229  0
C  C79  1  0.13217772  0.99541685  0.05132385  1  -0.039795  0  -0.097969  -0.08797  0  4.022091  0
C  C80  1  0.60835274  0.89815598  0.30619489  1  0.422837  0  0.003721  -0.059547  0  3.999572  0
C  C81  1  0.25081170  0.05544084  0.12691541  1  -0.106982  0  -0.10028  -0.091442  0  4.05048  0
C  C82  1  0.29970496  0.01509555  0.19562463  1  -0.037908  0  -0.097773  -0.147112  0  4.001303  0
C  C83  1  0.23060354  0.91475314  0.19070111  1  -0.031744  0  -0.008398  0.07556  0  4.004774  0
C  C84  1  0.11793350  0.50884258  0.69307590  1  -0.06263  0  -0.032361  -0.013123  0  3.928749  0
C  C85  1  0.01975351  0.41094820  0.66042748  1  0.067485  0  -0.013635  0.059068  0  4.091701  0
C  C86  1  0.53886999  0.83070293  0.33576526  1  -0.006705  0  -0.037486  -0.033444  0  4.075666  0
C  C87  1  0.92728543  0.42298711  0.65961182  1  -0.062933  0  -0.114309  -0.267893  0  3.982636  0
C  C88  1  0.92627220  0.52118472  0.67503322  1  0.378101  0  0.084529  0.181566  0  4.042249  0
C  C89  1  0.02023907  0.61510614  0.68953175  1  -0.00557  0  -0.022439  -0.061934  0  4.023228  0
C  C90  1  0.11672241  0.60544111  0.70581341  1  -0.008226  0  -0.022769  0.025017  0  3.941434  0
C  C91  1  0.23261533  0.66348825  0.71345217  1  -0.015263  0  -0.15893  -0.191043  0  3.90694  0
C  C92  1  0.39690081  0.30466682  0.70539216  1  0.410426  0  -0.000258  -0.068211  0  4.011417  0
C  C93  1  0.23415976  0.55424568  0.69941219  1  -0.018272  0  -0.157785  -0.187044  0  3.905554  0
C  C94  1  0.67396975  0.50019661  0.10209086  1  -0.074348  0  -0.018958  0.020078  0  3.897487  0
C  C95  1  0.74437618  0.59831512  0.10513404  1  -0.009428  0  -0.013264  0.037245  0  4.069999  0
C  C96  1  0.72741503  0.59097136  0.00288779  1  -0.056899  0  -0.104388  -0.150814  0  4.031432  0
C  C97  1  0.84339446  0.71173754  0.30838575  1  0.366982  0  0.009301  -0.04802  0  3.959314  0
C  C98  1  0.64061106  0.49652448  0.90697652  1  0.030133  0  -0.106203  -0.149266  0  4.038389  0
C  C99  1  0.56292030  0.40111238  0.90459143  1  -0.006013  0  -0.020643  0.025084  0  4.086644  0
C  C100  1  0.58717380  0.40631669  0.00657041  1  -0.048745  0  -0.020945  0.017303  0  3.905755  0
C  C101  1  0.53944670  0.34595937  0.06338144  1  -0.045875  0  -0.158019  -0.196732  0  3.896853  0
C  C102  1  0.63819371  0.45223961  0.17164103  1  -0.026196  0  -0.154068  -0.192494  0  3.887051  0
C  C103  1  0.90737645  0.07636837  0.89583438  1  -0.056029  0  -0.015488  0.020062  0  3.901916  0
C  C104  1  0.61435357  0.80620991  0.40376510  1  0.4029  0  0.005594  -0.050855  0  3.990484  0
C  C105  1  0.00399904  0.14539451  0.89488802  1  0.011447  0  0.001192  0.032147  0  4.003562  0
C  C106  1  0.09730360  0.22976566  0.99982057  1  0.020959  0  -0.022782  -0.103051  0  3.963018  0
C  C107  1  0.09475532  0.23154322  0.09383761  1  -0.043553  0  -0.082932  -0.145133  0  3.952683  0
C  C108  1  0.16800822  0.96714058  0.36316267  1  0.409531  0  0.008008  -0.042682  0  3.951351  0
C  C109  1  0.00033351  0.15450256  0.09280173  1  0.033598  0  -0.012286  0.033451  0  4.094297  0
C  C110  1  0.90487043  0.08056057  0.98923974  1  -0.017241  0  -0.011895  0.029447  0  3.895537  0
C  C111  1  0.78690725  0.97713507  0.92882990  1  -0.044282  0  -0.156886  -0.196707  0  3.904102  0
C  C112  1  0.78965431  0.97195232  0.82274059  1  -0.044085  0  -0.157806  -0.201829  0  3.880784  0
C  C113  1  0.91400103  0.20453306  0.53576165  1  0.395291  0  0.008017  -0.049493  0  3.954777  0
C  C114  1  0.10511914  0.12661290  0.78679939  1  0.464842  0  0.009497  -0.039808  0  3.959138  0
C  C115  1  0.00894551  0.11389049  0.79703597  1  0.017829  0  -0.036207  -0.033295  0  4.072444  0
C  C116  1  0.48404233  0.81830624  0.59926839  1  1.485565  0  0.228883  0.568155  0  4.13048  0
C  C117  1  0.84221289  0.60857194  0.75582517  1  0.2813  0  -0.146439  -0.217601  0  3.99724  0
C  C118  1  0.20318236  0.32222532  0.01971721  1  1.454847  0  0.227263  0.578142  0  4.125566  0
C  C119  1  0.10744735  0.80293630  0.69201980  1  0.393857  0  0.003538  -0.062973  0  4.001123  0
C  C120  1  0.91023350  0.08568432  0.19899343  1  0.377969  0  0.004414  -0.063271  0  4.006269  0
C  C121  1  0.10107952  0.18410151  0.29017098  1  0.39405  0  0.008735  -0.050575  0  3.98669  0
N  N122  1  0.95098908  0.00829164  0.62712312  1  -0.824376  0  -0.283768  -0.185129  0  3.636162  0
N  N123  1  0.29822696  0.14269689  0.69474104  1  -0.778  0  -0.272608  -0.17252  0  3.555193  0
N  N124  1  0.71501067  0.91224989  0.35255645  1  -0.771059  0  -0.271989  -0.172468  0  3.554579  0
N  N125  1  0.30039028  0.20543880  0.63928038  1  -0.80276  0  -0.270261  -0.17274  0  3.542234  0
N  N126  1  0.71834167  0.85478628  0.41320332  1  -0.823954  0  -0.274672  -0.169416  0  3.565904  0
N  N127  1  0.94792465  0.13644397  0.50124939  1  -0.790474  0  -0.281883  -0.179544  0  3.639948  0
N  N128  1  0.06857272  0.06236748  0.68524028  1  -0.760924  0  -0.280603  -0.176577  0  3.628717  0
N  N129  1  0.88487401  0.81575015  0.37382440  1  -0.817926  0  -0.286224  -0.185243  0  3.647498  0
N  N130  1  0.82725498  0.52321388  0.66737621  1  -1.131559  0  -0.464057  -0.331639  0  3.508121  0
N  N131  1  0.14051647  0.00153766  0.43607919  1  -0.798376  0  -0.284982  -0.179862  0  3.650247  0
N  N132  1  0.06927216  0.85927755  0.64491348  1  -0.760965  0  -0.276284  -0.1775  0  3.570551  0
N  N133  1  0.94820035  0.08889344  0.29776469  1  -0.769697  0  -0.270702  -0.171609  0  3.554605  0
N  N134  1  0.06712441  0.14989776  0.35450908  1  -0.806548  0  -0.268518  -0.170229  0  3.535868  0
N  N135  1  0.95039493  0.80124398  0.59043721  1  -0.836058  0  -0.275441  -0.17746  0  3.555778  0
N  N136  1  0.88402409  0.87402501  0.31516765  1  -0.743593  0  -0.280505  -0.180111  0  3.61916  0
N  N137  1  0.13770407  0.93942190  0.49076504  1  -0.783347  0  -0.282083  -0.176182  0  3.645725  0
N  N138  1  0.06549099  0.18996292  0.55792998  1  -0.79155  0  -0.285862  -0.186121  0  3.645971  0
O  O139  1  0.52726232  0.90555962  0.59580878  1  -1.132971  0  -0.28242  -0.475492  0  2.093678  0
O  O140  1  0.46898945  0.81175184  0.68368982  1  -1.086202  0  -0.339171  -0.489171  0  2.224476  0
O  O141  1  0.29902306  0.37072324  0.10222880  1  -1.157749  0  -0.304799  -0.519292  0  2.097851  0
O  O142  1  0.18402650  0.35387221  0.93872257  1  -1.108016  0  -0.330337  -0.474707  0  2.244406  0
