# generated using pymatgen
data_KH38C26I(NO3)2
_symmetry_space_group_name_H-M   'P 1'
_cell_length_a   10.28179032
_cell_length_b   11.49163881
_cell_length_c   12.75505600
_cell_angle_alpha   84.72925790
_cell_angle_beta   79.82650714
_cell_angle_gamma   70.76794001
_symmetry_Int_Tables_number   1
_chemical_formula_structural   KH38C26I(NO3)2
_chemical_formula_sum   'K2 H76 C52 I2 N4 O12'
_cell_volume   1399.66986308
_cell_formula_units_Z   2
loop_
 _symmetry_equiv_pos_site_id
 _symmetry_equiv_pos_as_xyz
  1  'x, y, z'
loop_
 _atom_site_type_symbol
 _atom_site_label
 _atom_site_symmetry_multiplicity
 _atom_site_fract_x
 _atom_site_fract_y
 _atom_site_fract_z
 _atom_site_occupancy
 _atom_site_hle17_bader_spin_density
 _atom_site_hle17_ddec_charge
 _atom_site_hle17_ddec_spin_density
 _atom_site_hle17_ddec_sum_bond_order
 _atom_site_hle17_magmom
 _atom_site_hse06_10hf_bader_spin_density
 _atom_site_hse06_10hf_ddec_charge
 _atom_site_hse06_10hf_ddec_spin_density
 _atom_site_hse06_10hf_ddec_sum_bond_order
 _atom_site_hse06_10hf_magmom
 _atom_site_hse06_bader_spin_density
 _atom_site_hse06_ddec_charge
 _atom_site_hse06_ddec_spin_density
 _atom_site_hse06_ddec_sum_bond_order
 _atom_site_hse06_magmom
 _atom_site_pbe_bader_spin_density
 _atom_site_pbe_cm5_charge
 _atom_site_pbe_ddec_charge
 _atom_site_pbe_ddec_spin_density
 _atom_site_pbe_ddec_sum_bond_order
 _atom_site_pbe_magmom
K  K0  1  0.84219376  0.39106963  0.95440033  1  0  0.880105  0  0.481499  0  0  0.807301  0  0.685694  0  0  0.823436  0  0.66376  0  0  0.626134  0.795429  0  0.701603  0
K  K1  1  0.15780103  0.60892767  0.04560160  1  0  0.880095  0  0.481493  0  0  0.807277  0  0.685707  0  0  0.823414  0  0.663774  0  0  0.626097  0.795402  0  0.701611  0
H  H2  1  0.02381793  0.10347544  0.06538305  1  0  0.122841  0  0.97193  0  0  0.125606  0  1.043633  0  0  0.130125  0  1.040027  0  0  0.104497  0.122016  0  1.046989  0
H  H3  1  0.97618409  0.89652374  0.93461536  1  0  0.122832  0  0.971968  0  0  0.125622  0  1.04364  0  0  0.130138  0  1.040039  0  0  0.104503  0.122031  0  1.046996  0
H  H4  1  0.97060865  0.87808109  0.41501916  1  0  0.124334  0  0.963873  0  0  0.133733  0  1.024732  0  0  0.137506  0  1.022334  0  0  0.107971  0.131093  0  1.026686  0
H  H5  1  0.02938247  0.12192359  0.58497877  1  0  0.124336  0  0.963855  0  0  0.133704  0  1.024755  0  0  0.137472  0  1.022357  0  0  0.107994  0.131063  0  1.026711  0
H  H6  1  0.87465070  0.10766097  0.40349644  1  0  0.098327  0  0.937811  0  0  0.111189  0  0.992615  0  0  0.114498  0  0.990916  0  0  0.104043  0.108951  0  0.993688  0
H  H7  1  0.12534273  0.89234280  0.59650045  1  0  0.098358  0  0.937684  0  0  0.111188  0  0.992529  0  0  0.114495  0  0.990832  0  0  0.104059  0.108948  0  0.993603  0
H  H8  1  0.24571294  0.97936907  0.99374414  1  0  0.067223  0  0.934621  0  0  0.077847  0  1.004524  0  0  0.078461  0  1.003739  0  0  0.100328  0.077339  0  1.005155  0
H  H9  1  0.75428975  0.02062827  0.00625589  1  0  0.067208  0  0.93462  0  0  0.077818  0  1.004536  0  0  0.07843  0  1.003748  0  0  0.100296  0.07731  0  1.00517  0
H  H10  1  0.26928915  0.84491732  0.92159510  1  0  0.085251  0  0.936866  0  0  0.097858  0  0.999891  0  0  0.098934  0  0.999209  0  0  0.113033  0.097025  0  1.000423  0
H  H11  1  0.73071323  0.15507817  0.07840591  1  0  0.085304  0  0.936846  0  0  0.097883  0  0.999892  0  0  0.098957  0  0.999205  0  0  0.11304  0.09705  0  1.000426  0
H  H12  1  0.47863538  0.82906558  0.00907206  1  0  0.059309  0  0.932379  0  0  0.072272  0  0.99813  0  0  0.073467  0  0.996648  0  0  0.092358  0.071115  0  0.999794  0
H  H13  1  0.52136500  0.17093267  0.99093057  1  0  0.059321  0  0.932364  0  0  0.072268  0  0.998137  0  0  0.073463  0  0.99666  0  0  0.092351  0.07111  0  0.999802  0
H  H14  1  0.36920856  0.84368269  0.13557262  1  0  0.044343  0  0.951321  0  0  0.059185  0  1.020383  0  0  0.059009  0  1.02089  0  0  0.097218  0.059294  0  1.020132  0
H  H15  1  0.63079148  0.15631648  0.86442999  1  0  0.044406  0  0.951281  0  0  0.059247  0  1.02035  0  0  0.059075  0  1.020857  0  0  0.097235  0.059354  0  1.020099  0
H  H16  1  0.47238208  0.66876865  0.20376295  1  0  0.030483  0  0.971485  0  0  0.043508  0  1.045727  0  0  0.044014  0  1.044577  0  0  0.091023  0.043141  0  1.046548  0
H  H17  1  0.52761993  0.33123053  0.79623860  1  0  0.030483  0  0.971494  0  0  0.043502  0  1.045747  0  0  0.044007  0  1.0446  0  0  0.091027  0.043131  0  1.046565  0
H  H18  1  0.60091113  0.59479398  0.09825493  1  0  0.049786  0  0.966648  0  0  0.061382  0  1.037635  0  0  0.063001  0  1.03595  0  0  0.086555  0.059923  0  1.039283  0
H  H19  1  0.39909088  0.40520520  0.90174661  1  0  0.049799  0  0.966645  0  0  0.061391  0  1.037647  0  0  0.063013  0  1.03596  0  0  0.086573  0.05993  0  1.039289  0
H  H20  1  0.48500789  0.43612056  0.09399278  1  0  0.078784  0  0.939312  0  0  0.089731  0  1.002429  0  0  0.091191  0  1.001228  0  0  0.114212  0.088543  0  1.003484  0
H  H21  1  0.51499347  0.56387769  0.90601207  1  0  0.0788  0  0.939196  0  0  0.089729  0  1.002328  0  0  0.091186  0  1.001129  0  0  0.114222  0.08854  0  1.003387  0
H  H22  1  0.52702081  0.44063097  0.22207513  1  0  0.062051  0  0.930654  0  0  0.077265  0  0.994829  0  0  0.077192  0  0.995091  0  0  0.103622  0.07713  0  0.99499  0
H  H23  1  0.47297790  0.55936912  0.77792837  1  0  0.061967  0  0.930595  0  0  0.077169  0  0.994788  0  0  0.077097  0  0.995044  0  0  0.103584  0.077033  0  0.994947  0
H  H24  1  0.35098341  0.50946868  0.36037192  1  0  0.053485  0  0.936737  0  0  0.069362  0  1.00273  0  0  0.068649  0  1.003556  0  0  0.104482  0.069592  0  1.002554  0
H  H25  1  0.64901692  0.49053511  0.63963027  1  0  0.053513  0  0.936739  0  0  0.069362  0  1.002778  0  0  0.068652  0  1.003606  0  0  0.104486  0.069592  0  1.002598  0
H  H26  1  0.18457870  0.50626511  0.34151688  1  0  0.067934  0  0.930282  0  0  0.079817  0  0.997947  0  0  0.080235  0  0.997214  0  0  0.10954  0.079271  0  0.998811  0
H  H27  1  0.81542132  0.49373683  0.65848629  1  0  0.067953  0  0.930261  0  0  0.079835  0  0.997928  0  0  0.080257  0  0.997198  0  0  0.109537  0.079289  0  0.998794  0
H  H28  1  0.15495951  0.70392808  0.40610197  1  0  0.074461  0  0.963917  0  0  0.087053  0  1.030317  0  0  0.088417  0  1.028641  0  0  0.1043  0.08601  0  1.031584  0
H  H29  1  0.84504180  0.29607571  0.59389851  1  0  0.074476  0  0.963906  0  0  0.087036  0  1.03032  0  0  0.088402  0  1.028637  0  0  0.104278  0.085992  0  1.031589  0
H  H30  1  0.28974737  0.73061278  0.30657213  1  0  0.046834  0  0.94863  0  0  0.059518  0  1.018326  0  0  0.060012  0  1.017522  0  0  0.096537  0.059246  0  1.018635  0
H  H31  1  0.71025167  0.26938916  0.69342490  1  0  0.046841  0  0.948648  0  0  0.059499  0  1.018338  0  0  0.059992  0  1.017535  0  0  0.096522  0.059226  0  1.018648  0
H  H32  1  0.78116951  0.48600677  0.23189215  1  0  0.053079  0  0.925225  0  0  0.064802  0  0.988839  0  0  0.066156  0  0.987647  0  0  0.114336  0.06357  0  0.990062  0
H  H33  1  0.21883085  0.51399425  0.76810634  1  0  0.053013  0  0.925285  0  0  0.064821  0  0.988812  0  0  0.066174  0  0.98762  0  0  0.11432  0.063583  0  0.990036  0
H  H34  1  0.75073521  0.42125189  0.47030610  1  0  0.068686  0  0.966279  0  0  0.08629  0  1.032068  0  0  0.087233  0  1.032219  0  0  0.090009  0.085565  0  1.031972  0
H  H35  1  0.24926779  0.57874729  0.52969139  1  0  0.068664  0  0.966212  0  0  0.086251  0  1.032049  0  0  0.087194  0  1.032195  0  0  0.089976  0.085524  0  1.031956  0
H  H36  1  0.64299390  0.40771116  0.38144823  1  0  0.063255  0  0.944221  0  0  0.079089  0  1.010691  0  0  0.080526  0  1.009795  0  0  0.085891  0.077849  0  1.011668  0
H  H37  1  0.35700713  0.59228801  0.61855110  1  0  0.063278  0  0.944253  0  0  0.079128  0  1.010727  0  0  0.080557  0  1.009841  0  0  0.085916  0.077887  0  1.011704  0
H  H38  1  0.55753649  0.63542278  0.35156143  1  0  0.047584  0  0.959868  0  0  0.06756  0  1.025217  0  0  0.067959  0  1.025828  0  0  0.081574  0.06725  0  1.024786  0
H  H39  1  0.44246453  0.36457639  0.64843869  1  0  0.047581  0  0.959895  0  0  0.067557  0  1.025219  0  0  0.067957  0  1.025831  0  0  0.08156  0.067247  0  1.024786  0
H  H40  1  0.53259924  0.60018742  0.48961411  1  0  0.053837  0  0.959605  0  0  0.074361  0  1.020747  0  0  0.07493  0  1.021252  0  0  0.083718  0.073864  0  1.020517  0
H  H41  1  0.46740311  0.39981084  0.51038667  1  0  0.053882  0  0.95959  0  0  0.07438  0  1.020748  0  0  0.07495  0  1.021253  0  0  0.083728  0.073882  0  1.020522  0
H  H42  1  0.63432148  0.77316429  0.44780315  1  0  0.055498  0  0.963278  0  0  0.073952  0  1.028794  0  0  0.074431  0  1.029414  0  0  0.085644  0.073587  0  1.028388  0
H  H43  1  0.36567989  0.22683396  0.55219699  1  0  0.055516  0  0.963248  0  0  0.074011  0  1.028768  0  0  0.074492  0  1.029385  0  0  0.085656  0.073645  0  1.028362  0
H  H44  1  0.74998877  0.64498601  0.50687737  1  0  0.060388  0  0.944087  0  0  0.078863  0  1.009398  0  0  0.079452  0  1.010101  0  0  0.086147  0.078394  0  1.008989  0
H  H45  1  0.25001260  0.35501224  0.49312277  1  0  0.060363  0  0.944076  0  0  0.078881  0  1.009378  0  0  0.07947  0  1.010081  0  0  0.086144  0.07841  0  1.008972  0
H  H46  1  0.87864377  0.72754650  0.35163459  1  0  0.07312  0  0.96056  0  0  0.088157  0  1.025649  0  0  0.089281  0  1.025675  0  0  0.089336  0.087356  0  1.025704  0
H  H47  1  0.12135790  0.27245360  0.64836615  1  0  0.073134  0  0.960531  0  0  0.088126  0  1.025659  0  0  0.089248  0  1.02569  0  0  0.08934  0.08733  0  1.025709  0
H  H48  1  0.76913767  0.70921708  0.26653656  1  0  0.063443  0  0.943634  0  0  0.080214  0  1.0085  0  0  0.081056  0  1.00896  0  0  0.081651  0.079567  0  1.008122  0
H  H49  1  0.23086367  0.29078395  0.73346257  1  0  0.063444  0  0.943619  0  0  0.080221  0  1.008458  0  0  0.081063  0  1.008919  0  0  0.08163  0.079571  0  1.008077  0
H  H50  1  0.98979423  0.53321565  0.25066518  1  0  0.067837  0  0.942473  0  0  0.080328  0  1.013668  0  0  0.082141  0  1.012688  0  0  0.093103  0.078962  0  1.014499  0
H  H51  1  0.01020779  0.46678353  0.74933402  1  0  0.067864  0  0.942464  0  0  0.080382  0  1.013659  0  0  0.082197  0  1.012679  0  0  0.093119  0.079018  0  1.01449  0
H  H52  1  0.96348662  0.50383661  0.39089217  1  0  0.071754  0  0.937674  0  0  0.090812  0  0.997494  0  0  0.092039  0  0.997108  0  0  0.091233  0.089865  0  0.997967  0
H  H53  1  0.03651277  0.49616164  0.60910747  1  0  0.071761  0  0.937674  0  0  0.090839  0  0.997498  0  0  0.092075  0  0.997103  0  0  0.091236  0.089891  0  0.997975  0
H  H54  1  0.25991439  0.16225503  0.41105101  1  0  0.044246  0  0.91661  0  0  0.060542  0  0.973117  0  0  0.061017  0  0.972933  0  0  0.111298  0.06011  0  0.973351  0
H  H55  1  0.74008531  0.83774506  0.58894843  1  0  0.04422  0  0.916636  0  0  0.060513  0  0.97315  0  0  0.060989  0  0.972965  0  0  0.111276  0.06008  0  0.973387  0
H  H56  1  0.32623364  0.02383686  0.20447997  1  0  0.06812  0  0.941079  0  0  0.085218  0  1.005506  0  0  0.085864  0  1.006105  0  0  0.086676  0.084656  0  1.005165  0
H  H57  1  0.67376837  0.97616232  0.79551765  1  0  0.068112  0  0.941159  0  0  0.085235  0  1.005539  0  0  0.08588  0  1.00614  0  0  0.08668  0.084677  0  1.005191  0
H  H58  1  0.23348372  0.98718718  0.32668354  1  0  0.068023  0  0.95632  0  0  0.082778  0  1.022745  0  0  0.082603  0  1.025174  0  0  0.084203  0.082436  0  1.021996  0
H  H59  1  0.76651500  0.01281291  0.67331447  1  0  0.068036  0  0.956303  0  0  0.08277  0  1.022755  0  0  0.082595  0  1.025184  0  0  0.084198  0.082428  0  1.022007  0
H  H60  1  0.44474111  0.94029646  0.41394828  1  0  0.05029  0  0.940237  0  0  0.070822  0  1.000223  0  0  0.071642  0  1.000119  0  0  0.083494  0.070197  0  1.000329  0
H  H61  1  0.55525860  0.05970363  0.58605037  1  0  0.050285  0  0.940182  0  0  0.070818  0  1.000164  0  0  0.07162  0  1.000079  0  0  0.083492  0.070186  0  1.00028  0
H  H62  1  0.48316970  0.84920083  0.30134112  1  0  0.054133  0  0.953743  0  0  0.071557  0  1.020759  0  0  0.072396  0  1.020572  0  0  0.083546  0.070948  0  1.020812  0
H  H63  1  0.51682902  0.15079926  0.69865925  1  0  0.054123  0  0.953698  0  0  0.071541  0  1.020726  0  0  0.072381  0  1.020536  0  0  0.08354  0.070931  0  1.020777  0
H  H64  1  0.67296540  0.94035041  0.30751122  1  0  0.06674  0  0.943291  0  0  0.085942  0  1.003046  0  0  0.086075  0  1.004767  0  0  0.087739  0.085033  0  1.003448  0
H  H65  1  0.32703498  0.05964784  0.69248828  1  0  0.066767  0  0.943281  0  0  0.085971  0  1.003036  0  0  0.086104  0  1.004758  0  0  0.087735  0.085062  0  1.003439  0
H  H66  1  0.59396888  0.99112176  0.19246826  1  0  0.060147  0  0.933472  0  0  0.080691  0  0.992355  0  0  0.081443  0  0.99269  0  0  0.084718  0.080039  0  0.992262  0
H  H67  1  0.40603116  0.00887741  0.80753200  1  0  0.060119  0  0.933448  0  0  0.080663  0  0.992336  0  0  0.081417  0  0.992668  0  0  0.084687  0.08001  0  0.992243  0
H  H68  1  0.62028639  0.16960330  0.27285121  1  0  0.065606  0  0.947977  0  0  0.082332  0  1.011701  0  0  0.082716  0  1.012937  0  0  0.085527  0.082495  0  1.009972  0
H  H69  1  0.37971498  0.83039495  0.72714814  1  0  0.065618  0  0.947971  0  0  0.082334  0  1.01171  0  0  0.082719  0  1.012949  0  0  0.085513  0.082495  0  1.00998  0
H  H70  1  0.53251111  0.13415978  0.39729902  1  0  0.047355  0  0.947937  0  0  0.066124  0  1.012349  0  0  0.066843  0  1.01239  0  0  0.080968  0.065597  0  1.012263  0
H  H71  1  0.46748894  0.86583939  0.60269967  1  0  0.047379  0  0.948001  0  0  0.066143  0  1.012409  0  0  0.066862  0  1.012453  0  0  0.080997  0.065614  0  1.012325  0
H  H72  1  0.37004437  0.30543792  0.30474291  1  0  0.07175  0  0.969881  0  0  0.085895  0  1.038507  0  0  0.086843  0  1.038802  0  0  0.090121  0.085111  0  1.038369  0
H  H73  1  0.62995632  0.69456218  0.69525718  1  0  0.071732  0  0.969902  0  0  0.085891  0  1.038537  0  0  0.08684  0  1.03883  0  0  0.090116  0.085109  0  1.038395  0
H  H74  1  0.40638120  0.21808900  0.19074833  1  0  0.077353  0  0.929773  0  0  0.094756  0  0.990553  0  0  0.095891  0  0.990478  0  0  0.088898  0.093773  0  0.990819  0
H  H75  1  0.59362048  0.78191110  0.80925005  1  0  0.077323  0  0.929745  0  0  0.094717  0  0.990562  0  0  0.095851  0  0.990487  0  0  0.088891  0.093736  0  0.990829  0
H  H76  1  0.15394314  0.24754681  0.20459054  1  0  0.281908  0  0.939772  0  0  0.260122  0  1.014862  0  0  0.26839  0  1.008642  0  0  0.277381  0.254258  0  1.01916  0
H  H77  1  0.84605657  0.75245328  0.79540655  1  0  0.281939  0  0.939773  0  0  0.260159  0  1.014851  0  0  0.268428  0  1.008629  0  0  0.277399  0.254298  0  1.019144  0
C  C78  1  0.94483511  0.11996369  0.23365481  1  0  -0.053303  0  3.811876  0  0  -0.033672  0  4.054534  0  0  -0.040101  0  4.077503  0  0  -0.021041  -0.029011  0  4.037636  0
C  C79  1  0.05516525  0.88003733  0.76634290  1  0  -0.053248  0  3.811733  0  0  -0.033626  0  4.05443  0  0  -0.040053  0  4.077391  0  0  -0.021005  -0.028962  0  4.037527  0
C  C80  1  0.01284097  0.05430202  0.14187572  1  0  -0.160903  0  3.717243  0  0  -0.193589  0  3.970753  0  0  -0.194755  0  3.988638  0  0  -0.091122  -0.192639  0  3.958584  0
C  C81  1  0.98715707  0.94569992  0.85812459  1  0  -0.160902  0  3.71703  0  0  -0.193568  0  3.970621  0  0  -0.194731  0  3.988505  0  0  -0.091099  -0.192623  0  3.958451  0
C  C82  1  0.06924780  0.92638191  0.14858887  1  0  0.171062  0  3.789283  0  0  0.162525  0  4.050446  0  0  0.168074  0  4.067224  0  0  0.075212  0.158286  0  4.039842  0
C  C83  1  0.93074959  0.07361910  0.85141082  1  0  0.171202  0  3.789108  0  0  0.16247  0  4.050469  0  0  0.168024  0  4.067248  0  0  0.075184  0.15824  0  4.039854  0
C  C84  1  0.05485840  0.86279857  0.24757193  1  0  0.174883  0  3.791078  0  0  0.160007  0  4.057178  0  0  0.167863  0  4.073069  0  0  0.078893  0.154488  0  4.047368  0
C  C85  1  0.94513570  0.13720335  0.75242738  1  0  0.174642  0  3.791141  0  0  0.159865  0  4.057169  0  0  0.167737  0  4.07306  0  0  0.078783  0.154347  0  4.047353  0
C  C86  1  0.98319717  0.92822224  0.33892260  1  0  -0.177617  0  3.763353  0  0  -0.196386  0  4.018485  0  0  -0.200177  0  4.036688  0  0  -0.102054  -0.194834  0  4.008706  0
C  C87  1  0.01679924  0.07177877  0.66107802  1  0  -0.177508  0  3.763424  0  0  -0.196271  0  4.018513  0  0  -0.200054  0  4.036708  0  0  -0.10202  -0.194722  0  4.008738  0
C  C88  1  0.92964521  0.05662424  0.33213977  1  0  -0.078486  0  3.761121  0  0  -0.104318  0  4.014862  0  0  -0.104027  0  4.034392  0  0  -0.093198  -0.104463  0  4.002166  0
C  C89  1  0.07034658  0.94337859  0.66785821  1  0  -0.078624  0  3.761121  0  0  -0.10442  0  4.014859  0  0  -0.104126  0  4.034387  0  0  -0.093286  -0.104565  0  4.002164  0
C  C90  1  0.25875982  0.87994253  0.00088520  1  0  0.053717  0  3.599672  0  0  -0.006333  0  3.868162  0  0  0.000245  0  3.872355  0  0  -0.070832  -0.010798  0  3.865524  0
C  C91  1  0.74124154  0.12005573  0.99911573  1  0  0.053678  0  3.599752  0  0  -0.006332  0  3.868201  0  0  0.000273  0  3.872374  0  0  -0.070797  -0.010796  0  3.865569  0
C  C92  1  0.38431600  0.81134190  0.05396906  1  0  0.058346  0  3.658372  0  0  -0.001693  0  3.92835  0  0  0.004498  0  3.934027  0  0  -0.075265  -0.006087  0  3.925051  0
C  C93  1  0.61568438  0.18865635  0.94603358  1  0  0.058272  0  3.658435  0  0  -0.001802  0  3.928431  0  0  0.004372  0  3.934119  0  0  -0.075313  -0.006196  0  3.925132  0
C  C94  1  0.49000226  0.61341751  0.13323583  1  0  0.051329  0  3.67595  0  0  -0.010959  0  3.94839  0  0  -0.005056  0  3.954321  0  0  -0.08011  -0.014973  0  3.944609  0
C  C95  1  0.51000009  0.38658075  0.86676731  1  0  0.051341  0  3.675956  0  0  -0.010973  0  3.948402  0  0  -0.005074  0  3.954327  0  0  -0.080088  -0.01498  0  3.944606  0
C  C96  1  0.45956755  0.49329400  0.16395707  1  0  0.045324  0  3.651294  0  0  -0.01013  0  3.921894  0  0  -0.004118  0  3.927656  0  0  -0.075896  -0.014296  0  3.918149  0
C  C97  1  0.54043412  0.50670610  0.83604680  1  0  0.045514  0  3.651009  0  0  -0.009914  0  3.921581  0  0  -0.003891  0  3.927333  0  0  -0.075876  -0.014082  0  3.917837  0
C  C98  1  0.26724416  0.54718944  0.31102913  1  0  0.057622  0  3.660201  0  0  -1.5e-05  0  3.933853  0  0  0.007113  0  3.938715  0  0  -0.071877  -0.004691  0  3.930674  0
C  C99  1  0.73275585  0.45281250  0.68897325  1  0  0.057633  0  3.660261  0  0  -2.2e-05  0  3.933848  0  0  0.007084  0  3.938732  0  0  -0.071832  -0.004697  0  3.93067  0
C  C100  1  0.20825156  0.68584227  0.32356029  1  0  0.050324  0  3.608747  0  0  -0.013629  0  3.880839  0  0  -0.007055  0  3.884954  0  0  -0.072672  -0.017972  0  3.877588  0
C  C101  1  0.79174714  0.31416059  0.67643985  1  0  0.050367  0  3.608874  0  0  -0.013507  0  3.880816  0  0  -0.006908  0  3.884935  0  0  -0.072569  -0.017847  0  3.877563  0
C  C102  1  0.87984520  0.25684756  0.22406054  1  0  0.52415  0  3.817737  0  0  0.47152  0  4.11403  0  0  0.503128  0  4.109589  0  0  0.244035  0.450307  0  4.115811  0
C  C103  1  0.12015220  0.74315345  0.77593837  1  0  0.524177  0  3.817738  0  0  0.47149  0  4.114107  0  0  0.503099  0  4.109666  0  0  0.244066  0.450274  0  4.115884  0
C  C104  1  0.82451417  0.45609191  0.30650764  1  0  0.159889  0  3.578257  0  0  0.139825  0  3.818172  0  0  0.145045  0  3.832689  0  0  0.012535  0.136473  0  3.808111  0
C  C105  1  0.17548686  0.54390726  0.69349012  1  0  0.159932  0  3.578151  0  0  0.139834  0  3.818127  0  0  0.145055  0  3.832643  0  0  0.012574  0.136482  0  3.808062  0
C  C106  1  0.70470297  0.46376636  0.39900552  1  0  -0.161425  0  3.664414  0  0  -0.206436  0  3.924502  0  0  -0.208501  0  3.938387  0  0  -0.168384  -0.20469  0  3.914843  0
C  C107  1  0.29529905  0.53623282  0.60099367  1  0  -0.161375  0  3.664384  0  0  -0.206455  0  3.924568  0  0  -0.208512  0  3.938455  0  0  -0.168405  -0.204704  0  3.914903  0
C  C108  1  0.61333632  0.59720504  0.41969849  1  0  -0.099006  0  3.698544  0  0  -0.138823  0  3.958791  0  0  -0.140019  0  3.974573  0  0  -0.168681  -0.137866  0  3.947793  0
C  C109  1  0.38666570  0.40279414  0.58030149  1  0  -0.099138  0  3.698628  0  0  -0.138863  0  3.958866  0  0  -0.140067  0  3.974654  0  0  -0.168697  -0.137908  0  3.947874  0
C  C110  1  0.70102379  0.67727388  0.43473702  1  0  -0.112017  0  3.692701  0  0  -0.151737  0  3.953013  0  0  -0.152986  0  3.96823  0  0  -0.170969  -0.150741  0  3.942402  0
C  C111  1  0.29897823  0.32272530  0.56526061  1  0  -0.111924  0  3.692582  0  0  -0.151797  0  3.953002  0  0  -0.153044  0  3.968221  0  0  -0.170975  -0.150799  0  3.942394  0
C  C112  1  0.81541381  0.67119269  0.33908498  1  0  -0.106871  0  3.681057  0  0  -0.143069  0  3.936656  0  0  -0.143896  0  3.950464  0  0  -0.169637  -0.142281  0  3.926941  0
C  C113  1  0.18459016  0.32880926  0.66091606  1  0  -0.106911  0  3.681053  0  0  -0.143006  0  3.936682  0  0  -0.143834  0  3.950491  0  0  -0.169597  -0.142218  0  3.926962  0
C  C114  1  0.90968522  0.53817149  0.32127157  1  0  -0.155075  0  3.66502  0  0  -0.199726  0  3.924392  0  0  -0.201434  0  3.936829  0  0  -0.162478  -0.198421  0  3.915891  0
C  C115  1  0.09031581  0.46182768  0.67872698  1  0  -0.155088  0  3.665051  0  0  -0.199874  0  3.924596  0  0  -0.201586  0  3.93703  0  0  -0.162513  -0.19857  0  3.9161  0
C  C116  1  0.02802846  0.27419529  0.34978428  1  0  0.676876  0  3.881063  0  0  0.605378  0  4.198036  0  0  0.639761  0  4.19485  0  0  0.332831  0.582179  0  4.199493  0
C  C117  1  0.97197257  0.72580388  0.65021270  1  0  0.676863  0  3.881272  0  0  0.605384  0  4.198188  0  0  0.639766  0  4.195001  0  0  0.332778  0.582184  0  4.19965  0
C  C118  1  0.28027336  0.15814813  0.32357268  1  0  0.19219  0  3.593135  0  0  0.172359  0  3.833299  0  0  0.177357  0  3.848326  0  0  0.011733  0.169003  0  3.822697  0
C  C119  1  0.71972699  0.84185288  0.67642581  1  0  0.192172  0  3.593141  0  0  0.17235  0  3.833336  0  0  0.177348  0  3.84836  0  0  0.011738  0.168995  0  3.822739  0
C  C120  1  0.31835032  0.02394951  0.29187568  1  0  -0.170421  0  3.667064  0  0  -0.213212  0  3.924857  0  0  -0.215404  0  3.939794  0  0  -0.169939  -0.211077  0  3.914483  0
C  C121  1  0.68164840  0.97605058  0.70812311  1  0  -0.170413  0  3.667177  0  0  -0.21319  0  3.924922  0  0  -0.215382  0  3.939855  0  0  -0.169939  -0.211057  0  3.914542  0
C  C122  1  0.45682796  0.94461999  0.32599580  1  0  -0.098341  0  3.702096  0  0  -0.136596  0  3.962455  0  0  -0.137496  0  3.977281  0  0  -0.16725  -0.135709  0  3.951847  0
C  C123  1  0.54317208  0.05537918  0.67400368  1  0  -0.098329  0  3.701996  0  0  -0.136572  0  3.962339  0  0  -0.137459  0  3.977165  0  0  -0.167255  -0.135681  0  3.951731  0
C  C124  1  0.57504741  0.99674713  0.28005549  1  0  -0.109919  0  3.684406  0  0  -0.147852  0  3.941383  0  0  -0.149113  0  3.95693  0  0  -0.168321  -0.146598  0  3.931215  0
C  C125  1  0.42495199  0.00325111  0.71994415  1  0  -0.109964  0  3.684355  0  0  -0.147915  0  3.941347  0  0  -0.149174  0  3.956891  0  0  -0.168316  -0.14666  0  3.931177  0
C  C126  1  0.53780068  0.13096204  0.31030516  1  0  -0.101291  0  3.697269  0  0  -0.139613  0  3.957333  0  0  -0.140828  0  3.972977  0  0  -0.168799  -0.138696  0  3.945884  0
C  C127  1  0.46220004  0.86903528  0.68969437  1  0  -0.101293  0  3.697319  0  0  -0.139584  0  3.957387  0  0  -0.140807  0  3.973041  0  0  -0.16878  -0.138668  0  3.945939  0
C  C128  1  0.39818402  0.21098961  0.27837388  1  0  -0.164259  0  3.65323  0  0  -0.203874  0  3.905644  0  0  -0.205734  0  3.919017  0  0  -0.166919  -0.202433  0  3.896447  0
C  C129  1  0.60181766  0.78901049  0.72162450  1  0  -0.16415  0  3.653157  0  0  -0.203807  0  3.905647  0  0  -0.205663  0  3.919019  0  0  -0.166886  -0.202368  0  3.896452  0
I  I130  1  0.18648016  0.29354830  0.00025404  1  0  -0.74313  0  0.624268  0  0  -0.694915  0  0.863132  0  0  -0.708484  0  0.842255  0  0  -0.351581  -0.683289  0  0.877876  0
I  I131  1  0.81351690  0.70645363  0.99974798  1  0  -0.743131  0  0.624252  0  0  -0.694928  0  0.863124  0  0  -0.708497  0  0.842249  0  0  -0.351579  -0.683295  0  0.877868  0
N  N132  1  0.91256194  0.32627185  0.29084238  1  0  -0.375793  0  3.343562  0  0  -0.293926  0  3.580757  0  0  -0.319311  0  3.596333  0  0  -0.258545  -0.276655  0  3.569469  0
N  N133  1  0.08743940  0.67372918  0.70915518  1  0  -0.375768  0  3.343535  0  0  -0.29382  0  3.580663  0  0  -0.319205  0  3.596238  0  0  -0.258505  -0.276552  0  3.569374  0
N  N134  1  0.15112428  0.23294793  0.28598691  1  0  -0.469  0  3.304332  0  0  -0.410784  0  3.549983  0  0  -0.433951  0  3.55989  0  0  -0.408049  -0.395067  0  3.542638  0
N  N135  1  0.84887576  0.76705124  0.71401177  1  0  -0.469122  0  3.304402  0  0  -0.410928  0  3.550077  0  0  -0.434098  0  3.55998  0  0  -0.40809  -0.395216  0  3.542735  0
O  O136  1  0.79360398  0.30430982  0.16209858  1  0  -0.57569  0  1.944135  0  0  -0.537607  0  2.184491  0  0  -0.556911  0  2.176011  0  0  -0.352101  -0.524068  0  2.189875  0
O  O137  1  0.20639372  0.69569303  0.83790014  1  0  -0.575718  0  1.944099  0  0  -0.537627  0  2.184485  0  0  -0.556935  0  2.176005  0  0  -0.352143  -0.524094  0  2.189867  0
O  O138  1  0.00980089  0.27351200  0.44856468  1  0  -0.583045  0  1.920009  0  0  -0.543134  0  2.149982  0  0  -0.563305  0  2.141564  0  0  -0.302917  -0.529318  0  2.155387  0
O  O139  1  0.99019751  0.72648624  0.55143353  1  0  -0.582957  0  1.920129  0  0  -0.543054  0  2.150067  0  0  -0.563227  0  2.141657  0  0  -0.302851  -0.52924  0  2.155472  0
O  O140  1  0.13411524  0.85818848  0.05959182  1  0  -0.325569  0  2.364144  0  0  -0.2571  0  2.607172  0  0  -0.272951  0  2.609282  0  0  -0.246255  -0.246177  0  2.606645  0
O  O141  1  0.86588613  0.14180977  0.94040833  1  0  -0.325604  0  2.364189  0  0  -0.257068  0  2.607242  0  0  -0.272939  0  2.609357  0  0  -0.246252  -0.246149  0  2.606715  0
O  O142  1  0.40090155  0.68236366  0.05944352  1  0  -0.326665  0  2.276907  0  0  -0.252449  0  2.527611  0  0  -0.267892  0  2.528971  0  0  -0.264902  -0.241399  0  2.526357  0
O  O143  1  0.59910113  0.31763368  0.94056043  1  0  -0.326743  0  2.277006  0  0  -0.252475  0  2.527694  0  0  -0.267913  0  2.52906  0  0  -0.264957  -0.241432  0  2.526441  0
O  O144  1  0.31589329  0.50865961  0.20407160  1  0  -0.341821  0  2.31064  0  0  -0.27714  0  2.570171  0  0  -0.292538  0  2.570914  0  0  -0.298156  -0.266311  0  2.569324  0
O  O145  1  0.68410774  0.49133956  0.79593243  1  0  -0.341945  0  2.310706  0  0  -0.277246  0  2.570213  0  0  -0.292636  0  2.570953  0  0  -0.298195  -0.266418  0  2.56937  0
O  O146  1  0.11125967  0.73617554  0.24910386  1  0  -0.305792  0  2.333685  0  0  -0.236717  0  2.575485  0  0  -0.252104  0  2.577247  0  0  -0.220305  -0.225737  0  2.573816  0
O  O147  1  0.88873507  0.26382730  0.75089841  1  0  -0.305759  0  2.333871  0  0  -0.236646  0  2.575563  0  0  -0.252077  0  2.577346  0  0  -0.220305  -0.225671  0  2.573894  0
