# generated using pymatgen
data_Zn4H28C28N8O5
_symmetry_space_group_name_H-M   'P 1'
_cell_length_a   11.56560804
_cell_length_b   11.56560628
_cell_length_c   26.00997872
_cell_angle_alpha   90.00004093
_cell_angle_beta   90.00007298
_cell_angle_gamma   89.99999304
_symmetry_Int_Tables_number   1
_chemical_formula_structural   Zn4H28C28N8O5
_chemical_formula_sum   'Zn8 H56 C56 N16 O10'
_cell_volume   3479.17978128
_cell_formula_units_Z   2
loop_
 _symmetry_equiv_pos_site_id
 _symmetry_equiv_pos_as_xyz
  1  'x, y, z'
loop_
 _atom_site_type_symbol
 _atom_site_label
 _atom_site_symmetry_multiplicity
 _atom_site_fract_x
 _atom_site_fract_y
 _atom_site_fract_z
 _atom_site_occupancy
 _atom_site_pbe_bader_charge
 _atom_site_pbe_bader_spin_density
 _atom_site_pbe_cm5_charge
 _atom_site_pbe_ddec_charge
 _atom_site_pbe_ddec_spin_density
 _atom_site_pbe_ddec_sum_bond_order
 _atom_site_pbe_magmom
Zn  Zn0  1  0.59916371  0.59916417  0.79204936  1  1.229718  0  0.684594  0.762441  0  2.511727  0
Zn  Zn1  1  0.40083606  0.40083649  0.79204927  1  1.229751  0  0.684607  0.762472  0  2.511813  0
Zn  Zn2  1  0.40083620  0.59916378  0.29204928  1  1.22966  0  0.684589  0.762429  0  2.511748  0
Zn  Zn3  1  0.59916388  0.40083608  0.29204930  1  1.229653  0  0.68458  0.762426  0  2.511732  0
Zn  Zn4  1  0.40083593  0.59916325  0.70795081  1  1.22975  0  0.684594  0.762404  0  2.511853  0
Zn  Zn5  1  0.59916361  0.40083555  0.70795045  1  1.229667  0  0.68453  0.762347  0  2.511763  0
Zn  Zn6  1  0.59916288  0.59916370  0.20795084  1  1.229757  0  0.684578  0.762404  0  2.51192  0
Zn  Zn7  1  0.40083609  0.40083603  0.20795037  1  1.229792  0  0.684553  0.762364  0  2.511856  0
H  H8  1  0.91192204  0.72832039  0.81212407  1  0.040615  0  0.093407  0.129083  0  0.991913  0
H  H9  1  0.81993818  0.64770641  0.85369807  1  0.03369  0  0.0942  0.131661  0  1.005484  0
H  H10  1  0.96855985  0.61035168  0.84724866  1  0.070913  0  0.096521  0.136176  0  0.994634  0
H  H11  1  0.08807693  0.27168031  0.81212415  1  0.040629  0  0.093397  0.12906  0  0.991839  0
H  H12  1  0.18006004  0.35229349  0.85369823  1  0.036267  0  0.094225  0.131689  0  1.005478  0
H  H13  1  0.03144009  0.38964822  0.84724836  1  0.071017  0  0.096513  0.136153  0  0.994653  0
H  H14  1  0.27168001  0.91192216  0.31212428  1  0.040425  0  0.093399  0.129064  0  0.991895  0
H  H15  1  0.35229322  0.81993912  0.35369794  1  0.036265  0  0.094234  0.131709  0  1.005456  0
H  H16  1  0.38964792  0.96855994  0.34724853  1  0.07102  0  0.096528  0.136187  0  0.994629  0
H  H17  1  0.72831926  0.08807773  0.31212427  1  0.040647  0  0.093379  0.129056  0  0.991877  0
H  H18  1  0.64770531  0.18006171  0.35369831  1  0.036281  0  0.094216  0.131684  0  1.005455  0
H  H19  1  0.61035146  0.03144001  0.34724883  1  0.070903  0  0.096524  0.136179  0  0.994598  0
H  H20  1  0.08807759  0.72832034  0.68787614  1  0.040402  0  0.093384  0.129035  0  0.991911  0
H  H21  1  0.18006059  0.64770715  0.64630211  1  0.036247  0  0.094229  0.131703  0  1.005456  0
H  H22  1  0.03143980  0.61035158  0.65275150  1  0.071019  0  0.096511  0.136153  0  0.994655  0
H  H23  1  0.91192103  0.27168016  0.68787591  1  0.040427  0  0.093406  0.129056  0  0.991878  0
H  H24  1  0.81993877  0.35229415  0.64630186  1  0.033649  0  0.094206  0.131655  0  1.00551  0
H  H25  1  0.96855958  0.38964800  0.65275135  1  0.07093  0  0.096527  0.136178  0  0.99462  0
H  H26  1  0.72832076  0.91192204  0.18787709  1  0.040399  0  0.09342  0.129102  0  0.991847  0
H  H27  1  0.64770757  0.81993980  0.14630224  1  0.036306  0  0.094235  0.131718  0  1.005456  0
H  H28  1  0.61035285  0.96855977  0.15275209  1  0.071035  0  0.096513  0.136161  0  0.994665  0
H  H29  1  0.27167988  0.08807853  0.18787568  1  0.040444  0  0.093405  0.129058  0  0.991879  0
H  H30  1  0.35229382  0.18006070  0.14630167  1  0.03625  0  0.094215  0.131676  0  1.005491  0
H  H31  1  0.38964769  0.03143987  0.15275149  1  0.070924  0  0.096522  0.136164  0  0.994646  0
H  H32  1  0.08807690  0.27167808  0.18787719  1  0.040572  0  0.093431  0.129125  0  0.991917  0
H  H33  1  0.18005990  0.35229206  0.14630280  1  0.033707  0  0.094227  0.131705  0  1.005495  0
H  H34  1  0.03143910  0.38964766  0.15275221  1  0.071025  0  0.096519  0.136177  0  0.994616  0
H  H35  1  0.91192202  0.72832076  0.18787635  1  0.040603  0  0.093408  0.129063  0  0.99188  0
H  H36  1  0.81993804  0.64770757  0.14630188  1  0.033728  0  0.094224  0.131704  0  1.005447  0
H  H37  1  0.96855972  0.61035198  0.15275136  1  0.070917  0  0.096526  0.136188  0  0.994624  0
H  H38  1  0.72831980  0.08807804  0.68787583  1  0.040635  0  0.093385  0.129046  0  0.991866  0
H  H39  1  0.64770573  0.18006108  0.64630178  1  0.03628  0  0.094217  0.13169  0  1.005472  0
H  H40  1  0.61035189  0.03143939  0.65275119  1  0.070909  0  0.096537  0.13619  0  0.994569  0
H  H41  1  0.27167968  0.91192247  0.68787583  1  0.040616  0  0.093406  0.129095  0  0.991907  0
H  H42  1  0.35229277  0.81993849  0.64630180  1  0.033759  0  0.094208  0.131675  0  1.005483  0
H  H43  1  0.38964749  0.96856019  0.65275128  1  0.071004  0  0.096514  0.136172  0  0.994654  0
H  H44  1  0.91192136  0.27168072  0.31212397  1  0.040422  0  0.093394  0.129068  0  0.991897  0
H  H45  1  0.81993835  0.35229305  0.35369800  1  0.033666  0  0.094212  0.131665  0  1.005484  0
H  H46  1  0.96855915  0.38964862  0.34724899  1  0.070916  0  0.096528  0.136179  0  0.99462  0
H  H47  1  0.08807705  0.72832091  0.31212419  1  0.040612  0  0.093406  0.129062  0  0.99182  0
H  H48  1  0.18006104  0.64770691  0.35369787  1  0.033691  0  0.094208  0.131662  0  1.005496  0
H  H49  1  0.03144022  0.61035220  0.34724876  1  0.071014  0  0.096525  0.136185  0  0.994619  0
H  H50  1  0.27167905  0.08807816  0.81212340  1  0.040379  0  0.09342  0.129098  0  0.991851  0
H  H51  1  0.35229224  0.18006126  0.85369787  1  0.033714  0  0.094224  0.131701  0  1.005456  0
H  H52  1  0.38964782  0.03143956  0.84724841  1  0.071026  0  0.096504  0.136144  0  0.994673  0
H  H53  1  0.72831906  0.91192167  0.81212405  1  0.040439  0  0.093386  0.129059  0  0.991862  0
H  H54  1  0.64770598  0.81993950  0.85369805  1  0.036232  0  0.094219  0.131676  0  1.00549  0
H  H55  1  0.61035211  0.96856033  0.84724862  1  0.070918  0  0.096518  0.136149  0  0.994653  0
H  H56  1  0.63113718  0.63113755  0.95162197  1  0.056235  0  0.10368  0.106596  0  1.005666  0
H  H57  1  0.36886305  0.36886424  0.95162147  1  0.056261  0  0.103701  0.106579  0  1.005668  0
H  H58  1  0.36886319  0.63113716  0.45162187  1  0.056254  0  0.103687  0.106601  0  1.005662  0
H  H59  1  0.63113908  0.36886209  0.45162152  1  0.056228  0  0.103683  0.106572  0  1.005599  0
H  H60  1  0.36886159  0.63113811  0.54837859  1  0.056231  0  0.103676  0.106556  0  1.005666  0
H  H61  1  0.63113662  0.36886304  0.54837823  1  0.05625  0  0.103684  0.106591  0  1.005673  0
H  H62  1  0.63113849  0.63113855  0.04837902  1  0.056221  0  0.103683  0.106556  0  1.005646  0
H  H63  1  0.36886262  0.36886352  0.04837775  1  0.056259  0  0.103696  0.106578  0  1.00568  0
C  C64  1  0.89195511  0.64086368  0.82630438  1  -0.064239  0  -0.23201  -0.417944  0  3.995193  0
C  C65  1  0.86247109  0.56061624  0.78337506  1  0.451  0  0.0852  0.201839  0  4.04243  0
C  C66  1  0.10804736  0.35913531  0.82630565  1  -0.06416  0  -0.231974  -0.417874  0  3.995082  0
C  C67  1  0.13752953  0.43938788  0.78337561  1  0.449827  0  0.085159  0.201789  0  4.042484  0
C  C68  1  0.35913588  0.89195348  0.32630462  1  -0.064239  0  -0.232013  -0.417954  0  3.995133  0
C  C69  1  0.43938495  0.86247293  0.28337458  1  0.450982  0  0.085223  0.20184  0  4.042404  0
C  C70  1  0.64086257  0.10804471  0.32630458  1  -0.06421  0  -0.231978  -0.417909  0  3.995063  0
C  C71  1  0.56061338  0.13752692  0.28337488  1  0.450987  0  0.085204  0.201806  0  4.042538  0
C  C72  1  0.10804799  0.64086534  0.67369426  1  -0.064225  0  -0.231958  -0.417864  0  3.995119  0
C  C73  1  0.13753029  0.56061277  0.71662432  1  0.450177  0  0.085168  0.201785  0  4.042395  0
C  C74  1  0.89195318  0.35913687  0.67369559  1  -0.064248  0  -0.232005  -0.417896  0  3.995152  0
C  C75  1  0.86247014  0.43938518  0.71662489  1  0.451017  0  0.085198  0.201837  0  4.042464  0
C  C76  1  0.64086576  0.89195248  0.17369481  1  -0.064254  0  -0.232024  -0.417982  0  3.995139  0
C  C77  1  0.56061064  0.86246854  0.21662293  1  0.450131  0  0.085189  0.201856  0  4.04239  0
C  C78  1  0.35913570  0.10804806  0.17369461  1  -0.064284  0  -0.232006  -0.417917  0  3.995165  0
C  C79  1  0.43938663  0.13753206  0.21662393  1  0.45025  0  0.085222  0.201905  0  4.042468  0
C  C80  1  0.10804643  0.35913306  0.17369496  1  -0.064246  0  -0.232044  -0.418022  0  3.99519  0
C  C81  1  0.13753131  0.43938915  0.21662274  1  0.450158  0  0.085195  0.201852  0  4.0424  0
C  C82  1  0.89195418  0.64086489  0.17369523  1  -0.064211  0  -0.232008  -0.417937  0  3.995161  0
C  C83  1  0.86246855  0.56061405  0.21662412  1  0.450135  0  0.085166  0.201791  0  4.04248  0
C  C84  1  0.64086307  0.10804672  0.67369510  1  -0.064214  0  -0.232015  -0.417942  0  3.994997  0
C  C85  1  0.56061400  0.13752727  0.71662553  1  0.450616  0  0.085243  0.201857  0  4.042421  0
C  C86  1  0.35913637  0.89195549  0.67369553  1  -0.06422  0  -0.232035  -0.418003  0  3.995138  0
C  C87  1  0.43938470  0.86247241  0.71662561  1  0.450993  0  0.085231  0.201864  0  4.042346  0
C  C88  1  0.89195441  0.35913745  0.32630431  1  -0.064236  0  -0.231992  -0.417915  0  3.995143  0
C  C89  1  0.86247298  0.43938570  0.28337463  1  0.450968  0  0.085215  0.201853  0  4.042437  0
C  C90  1  0.10804490  0.64086333  0.32630413  1  -0.064214  0  -0.232004  -0.417924  0  3.995052  0
C  C91  1  0.13752708  0.56061415  0.28337483  1  0.450951  0  0.085208  0.201858  0  4.042392  0
C  C92  1  0.35913404  0.10804772  0.82630529  1  -0.064245  0  -0.232008  -0.417951  0  3.995119  0
C  C93  1  0.43938916  0.13753252  0.78337718  1  0.450165  0  0.08521  0.201863  0  4.04236  0
C  C94  1  0.64086410  0.89195214  0.82630550  1  -0.064297  0  -0.231992  -0.417897  0  3.995141  0
C  C95  1  0.56061318  0.86246814  0.78337618  1  0.45026  0  0.085212  0.201856  0  4.042389  0
C  C96  1  0.57413632  0.57412888  0.97326979  1  -0.105275  0  -0.085019  -0.095446  0  3.985431  0
C  C97  1  0.42587435  0.42586602  0.97326857  1  0.071492  0  -0.085017  -0.095449  0  3.985484  0
C  C98  1  0.42586498  0.57412676  0.47326934  1  -0.106062  0  -0.084999  -0.095422  0  3.985459  0
C  C99  1  0.57413130  0.42586907  0.47326898  1  0.071482  0  -0.084978  -0.095391  0  3.9855  0
C  C100  1  0.42586851  0.57413026  0.52673113  1  0.071482  0  -0.084968  -0.095408  0  3.985587  0
C  C101  1  0.57412705  0.42586479  0.52673077  1  -0.105266  0  -0.084996  -0.095431  0  3.985443  0
C  C102  1  0.57413065  0.57413072  0.02673153  1  0.071471  0  -0.084968  -0.095365  0  3.985523  0
C  C103  1  0.42587300  0.42586526  0.02673070  1  -0.106053  0  -0.084949  -0.095298  0  3.985333  0
C  C104  1  0.93673692  0.50000027  0.75000019  1  -0.065871  0  -0.043891  -0.140024  0  4.06802  0
C  C105  1  0.06327312  0.50000033  0.74999994  1  0.07746  0  -0.04406  -0.140175  0  4.068341  0
C  C106  1  0.50000168  0.93673100  0.24999819  1  0.07718  0  -0.044023  -0.140156  0  4.06823  0
C  C107  1  0.49999741  0.06326793  0.24999843  1  -0.065824  0  -0.043993  -0.140143  0  4.06821  0
C  C108  1  0.06326894  0.49999820  0.24999838  1  0.077155  0  -0.044017  -0.140156  0  4.068213  0
C  C109  1  0.93673188  0.50000247  0.24999863  1  -0.065826  0  -0.043979  -0.140118  0  4.068191  0
C  C110  1  0.49999726  0.06326920  0.75000153  1  0.077524  0  -0.043995  -0.140144  0  4.068231  0
C  C111  1  0.50000153  0.93673227  0.75000167  1  -0.065815  0  -0.044005  -0.140137  0  4.068168  0
C  C112  1  0.50000089  0.50000301  0.88853459  1  1.597568  0  0.223483  0.597551  0  4.159331  0
C  C113  1  0.50000011  0.50000046  0.94616093  1  -0.029967  0  -0.015517  -0.031503  0  3.967963  0
C  C114  1  0.49999931  0.50000087  0.38853456  1  1.597558  0  0.223588  0.597714  0  4.159074  0
C  C115  1  0.50000112  0.49999833  0.44616091  1  -0.029972  0  -0.015523  -0.031519  0  3.967924  0
C  C116  1  0.50000050  0.49999932  0.61146554  1  1.59756  0  0.223342  0.5974  0  4.159503  0
C  C117  1  0.49999868  0.50000101  0.55383920  1  -0.029975  0  -0.015522  -0.0315  0  3.967988  0
C  C118  1  0.49999805  0.49999892  0.11146552  1  1.597568  0  0.223549  0.597683  0  4.159042  0
C  C119  1  0.50000143  0.50000147  0.05383917  1  -0.029986  0  -0.015548  -0.031607  0  3.967959  0
N  N120  1  0.75193387  0.53727115  0.77052727  1  -0.827882  0  -0.285651  -0.260167  0  3.587507  0
N  N121  1  0.24807018  0.46272862  0.77052749  1  -0.803588  0  -0.285666  -0.260197  0  3.58745  0
N  N122  1  0.46272828  0.75193310  0.27052758  1  -0.804328  0  -0.285683  -0.260126  0  3.587502  0
N  N123  1  0.53727087  0.24806673  0.27052752  1  -0.827868  0  -0.285671  -0.260131  0  3.58758  0
N  N124  1  0.24807098  0.53727115  0.72947249  1  -0.827272  0  -0.285671  -0.260112  0  3.587382  0
N  N125  1  0.75193381  0.46272855  0.72947224  1  -0.804257  0  -0.285668  -0.260145  0  3.587544  0
N  N126  1  0.53727078  0.75192787  0.22947259  1  -0.82714  0  -0.285674  -0.260209  0  3.587433  0
N  N127  1  0.46272825  0.24807016  0.22947248  1  -0.803637  0  -0.285702  -0.260205  0  3.587593  0
N  N128  1  0.24807113  0.46272905  0.22947284  1  -0.827135  0  -0.285666  -0.260194  0  3.587445  0
N  N129  1  0.75192877  0.53727158  0.22947261  1  -0.803613  0  -0.285686  -0.260203  0  3.587451  0
N  N130  1  0.53727066  0.24806623  0.72947215  1  -0.804332  0  -0.285682  -0.260179  0  3.587539  0
N  N131  1  0.46272807  0.75193347  0.72947259  1  -0.804315  0  -0.285638  -0.260111  0  3.587499  0
N  N132  1  0.75193402  0.46272905  0.27052761  1  -0.827871  0  -0.285643  -0.260091  0  3.58746  0
N  N133  1  0.24806600  0.53727165  0.27052787  1  -0.804332  0  -0.285653  -0.260118  0  3.587481  0
N  N134  1  0.46272903  0.24807232  0.77052752  1  -0.827161  0  -0.285717  -0.260182  0  3.587446  0
N  N135  1  0.53727155  0.75192917  0.77052762  1  -0.82719  0  -0.285694  -0.260173  0  3.587497  0
O  O136  1  0.56981214  0.56981255  0.86657882  1  -1.182435  0  -0.319268  -0.539869  0  2.358393  0
O  O137  1  0.43018871  0.43018910  0.86657837  1  -1.182341  0  -0.31928  -0.539952  0  2.358082  0
O  O138  1  0.43018885  0.56981043  0.36657875  1  -1.18239  0  -0.319251  -0.539886  0  2.358292  0
O  O139  1  0.56981144  0.43018782  0.36657877  1  -1.182382  0  -0.319399  -0.540071  0  2.357999  0
O  O140  1  0.43018837  0.56981065  0.63342172  1  -1.182433  0  -0.319174  -0.539811  0  2.358334  0
O  O141  1  0.56981096  0.43018890  0.63342136  1  -1.182397  0  -0.319209  -0.539756  0  2.35823  0
O  O142  1  0.56981196  0.56981196  0.13342135  1  -1.182363  0  -0.319342  -0.540001  0  2.358012  0
O  O143  1  0.43018766  0.43018851  0.13342129  1  -1.182421  0  -0.319238  -0.539818  0  2.358193  0
O  O144  1  0.49999896  0.50000030  0.74999968  1  -1.240273  0  -0.589308  -0.871766  0  2.441448  0
O  O145  1  0.49999998  0.50000076  0.25000004  1  -1.240276  0  -0.58931  -0.87176  0  2.441468  0
