# generated using pymatgen
data_Cu3H22C48N6(ClO2)6
_symmetry_space_group_name_H-M   'P 1'
_cell_length_a   9.14412447
_cell_length_b   10.30392258
_cell_length_c   13.08898255
_cell_angle_alpha   91.63130790
_cell_angle_beta   96.60631579
_cell_angle_gamma   111.32693813
_symmetry_Int_Tables_number   1
_chemical_formula_structural   Cu3H22C48N6(ClO2)6
_chemical_formula_sum   'Cu3 H22 C48 N6 Cl6 O12'
_cell_volume   1137.86925461
_cell_formula_units_Z   1
loop_
 _symmetry_equiv_pos_site_id
 _symmetry_equiv_pos_as_xyz
  1  'x, y, z'
loop_
 _atom_site_type_symbol
 _atom_site_label
 _atom_site_symmetry_multiplicity
 _atom_site_fract_x
 _atom_site_fract_y
 _atom_site_fract_z
 _atom_site_occupancy
 _atom_site_hle17_ddec_charge
 _atom_site_hle17_ddec_spin_density
 _atom_site_hle17_ddec_sum_bond_order
 _atom_site_hle17_magmom
 _atom_site_hse06_10hf_ddec_charge
 _atom_site_hse06_10hf_ddec_spin_density
 _atom_site_hse06_10hf_ddec_sum_bond_order
 _atom_site_hse06_10hf_magmom
 _atom_site_hse06_ddec_charge
 _atom_site_hse06_ddec_spin_density
 _atom_site_hse06_ddec_sum_bond_order
 _atom_site_hse06_magmom
 _atom_site_pbe_cm5_charge
 _atom_site_pbe_ddec_charge
 _atom_site_pbe_ddec_spin_density
 _atom_site_pbe_ddec_sum_bond_order
 _atom_site_pbe_magmom
Cu  Cu0  1  0.99999065  0.99999312  0.00000110  1  0.944589  -0.764896  1.686629  -0.514  0.952785  -0.861621  2.08078  -0.651  1.044112  -0.94179  2.008319  -0.735  0.701383  0.886237  -0.79835  2.143191  -0.592
Cu  Cu1  1  0.71811591  0.74091990  0.79050334  1  0.788872  0.727793  1.97827  0.52  0.753612  0.798131  2.376685  0.619  0.829209  0.866546  2.31946  0.699  0.789536  0.710523  0.747626  2.414487  0.566
Cu  Cu2  1  0.28191111  0.25911125  0.20949389  1  0.788885  0.727839  1.979176  0.52  0.75371  0.798112  2.377542  0.619  0.829247  0.866509  2.320356  0.699  0.789758  0.710667  0.747568  2.415312  0.566
H  H3  1  0.55110137  0.88267354  0.92590679  1  0.087686  0.001472  0.933525  0.002  0.093895  0.001218  0.999213  0.002  0.095514  0.000848  0.997807  0.001  0.11715  0.092392  0.001532  1.000636  0.002
H  H4  1  0.44888779  0.11733577  0.07409456  1  0.087686  0.001472  0.933487  0.002  0.093865  0.001218  0.999193  0.002  0.095484  0.000848  0.997788  0.001  0.11712  0.09236  0.001533  1.000619  0.002
H  H5  1  0.33655140  0.98028534  0.88808907  1  0.121557  0.000513  0.93934  0.001  0.128945  0.000501  1.00069  0.001  0.13244  0.000366  0.998985  0.0  0.111125  0.126301  0.000599  1.002262  0.001
H  H6  1  0.66343006  0.01972399  0.11190935  1  0.121687  0.000513  0.939224  0.001  0.129055  0.000501  1.000561  0.001  0.132553  0.000366  0.998852  0.0  0.111186  0.126411  0.000599  1.002123  0.001
H  H7  1  0.23525044  0.99040662  0.70342955  1  0.092677  0.00015  0.977742  0.0  0.098179  -4.3e-05  1.047524  0.0  0.101359  -4.7e-05  1.044779  0.0  0.096595  0.09579  -3e-05  1.049576  0.0
H  H8  1  0.76473476  0.00959850  0.29656756  1  0.092885  0.00015  0.977661  0.0  0.098305  -4.3e-05  1.047474  0.0  0.101485  -4.7e-05  1.044727  0.0  0.09665  0.095914  -3e-05  1.049535  0.0
H  H9  1  0.33842502  0.89133546  0.56379876  1  0.127936  0.000796  0.95852  0.001  0.136008  0.000646  1.01901  0.001  0.139337  0.000448  1.017638  0.001  0.111941  0.13361  0.000813  1.020176  0.001
H  H10  1  0.66156920  0.10867278  0.43619916  1  0.128015  0.000796  0.958535  0.001  0.135989  0.000646  1.019117  0.001  0.139311  0.000448  1.017761  0.001  0.111943  0.133588  0.000813  1.020284  0.001
H  H11  1  0.42674099  0.76927203  0.45300614  1  0.127  0.000957  0.983788  0.001  0.130963  0.00077  1.050967  0.001  0.134658  0.000552  1.049071  0.001  0.109524  0.128167  0.00093  1.052577  0.001
H  H12  1  0.57325433  0.23073095  0.54698182  1  0.127003  0.000957  0.983778  0.001  0.130958  0.00077  1.050969  0.001  0.134652  0.000552  1.049075  0.001  0.109533  0.128153  0.00093  1.05259  0.001
H  H13  1  0.57916857  0.66984026  0.35154938  1  0.115356  0.000165  0.952805  0.0  0.119916  -6.4e-05  1.020448  0.0  0.123378  -6.1e-05  1.016616  0.0  0.108706  0.117198  -5.3e-05  1.023375  0.0
H  H14  1  0.42082806  0.33015538  0.64843548  1  0.115414  0.000165  0.952756  0.0  0.119901  -6.4e-05  1.020471  0.0  0.123373  -6.1e-05  1.016613  0.0  0.108693  0.117183  -5.2e-05  1.023415  0.0
H  H15  1  0.80932666  0.62041663  0.43993824  1  0.110756  0.000933  0.952164  0.001  0.120651  0.000773  1.012756  0.001  0.123214  0.000552  1.012199  0.001  0.110728  0.11865  0.000944  1.013539  0.001
H  H16  1  0.19067546  0.37957900  0.56004860  1  0.110763  0.000933  0.952261  0.001  0.120681  0.000773  1.012814  0.001  0.12321  0.000552  1.0123  0.001  0.110757  0.118684  0.000944  1.013607  0.001
H  H17  1  0.02404182  0.60797657  0.54277133  1  0.118608  0.00086  0.955077  0.001  0.128093  0.000702  1.015899  0.001  0.130757  0.000486  1.015215  0.001  0.112649  0.126183  0.00089  1.016611  0.001
H  H18  1  0.97596645  0.39201802  0.45722592  1  0.118678  0.000859  0.954992  0.001  0.128086  0.000702  1.015934  0.001  0.130754  0.000486  1.01525  0.001  0.112689  0.126175  0.00089  1.016639  0.001
H  H19  1  0.20214127  0.53874634  0.67306531  1  0.095594  0.000225  0.941305  0.0  0.107544  8e-06  0.998382  0.0  0.110012  -1.3e-05  0.996567  0.0  0.108599  0.105654  4e-05  0.999913  0.0
H  H20  1  0.79787844  0.46125449  0.32693224  1  0.095613  0.000225  0.941306  0.0  0.107555  8e-06  0.998406  0.0  0.11002  -1.3e-05  0.996591  0.0  0.108596  0.105662  4e-05  0.999929  0.0
H  H21  1  0.17075568  0.55489934  0.85965336  1  0.099589  0.000505  0.976338  0.001  0.104343  0.000478  1.046077  0.001  0.106495  0.000335  1.046617  0.0  0.098217  0.102591  0.000591  1.046046  0.001
H  H22  1  0.82926778  0.44510254  0.14034833  1  0.099473  0.000505  0.97609  0.001  0.104234  0.000478  1.045862  0.001  0.106381  0.000336  1.046406  0.0  0.098126  0.102477  0.000591  1.04583  0.001
H  H23  1  0.97120688  0.64997987  0.91122965  1  0.094853  0.001708  0.929408  0.003  0.101097  0.001318  0.991843  0.002  0.102888  0.000929  0.990055  0.002  0.120609  0.099492  0.001644  0.993531  0.002
H  H24  1  0.02880645  0.35001891  0.08877268  1  0.094861  0.001708  0.929459  0.003  0.101115  0.001318  0.991877  0.002  0.102905  0.00093  0.990091  0.002  0.120641  0.099507  0.001644  0.993567  0.002
C  C25  1  0.84964498  0.14280232  0.88725414  1  0.241444  -0.000184  3.90769  0.003  0.220058  -0.003303  4.189357  -0.001  0.239193  -0.002683  4.20432  -0.001  0.080011  0.206994  -0.003671  4.178258  -0.002
C  C26  1  0.15035274  0.85719862  0.11275384  1  0.241217  -0.000176  3.907802  0.003  0.219844  -0.003301  4.189455  -0.001  0.238982  -0.002687  4.204417  -0.001  0.07995  0.206793  -0.00367  4.178337  -0.002
C  C27  1  0.91340027  0.07330691  0.81036963  1  0.239202  0.000637  3.927974  0.004  0.213713  -0.003355  4.223331  -0.001  0.234584  -0.002625  4.235458  -0.001  0.078608  0.199471  -0.00379  4.214421  -0.001
C  C28  1  0.08660319  0.92670759  0.18963222  1  0.239336  0.000654  3.928021  0.004  0.213889  -0.003351  4.223322  -0.001  0.234759  -0.002624  4.235443  -0.001  0.078599  0.199623  -0.003786  4.214434  -0.001
C  C29  1  0.90406543  0.10359900  0.70754864  1  -0.152691  -0.012793  3.805177  -0.011  -0.160038  -0.002311  4.101254  -0.002  -0.175214  -0.001181  4.123632  -0.001  -0.053497  -0.149492  -0.003801  4.086143  -0.004
C  C30  1  0.09593890  0.89641235  0.29245322  1  -0.152407  -0.012832  3.804874  -0.011  -0.159787  -0.002316  4.100948  -0.002  -0.174962  -0.001183  4.123327  -0.001  -0.053441  -0.14923  -0.00381  4.085845  -0.004
C  C31  1  0.83021496  0.19681255  0.67080837  1  0.287754  0.001039  3.83206  0.001  0.268926  -5e-05  4.105802  0.0  0.290658  -1.4e-05  4.108158  0.0  0.110292  0.253683  -0.000127  4.104708  0.0
C  C32  1  0.16977860  0.80319149  0.32918253  1  0.287666  0.001043  3.831647  0.001  0.268841  -5.1e-05  4.105451  0.0  0.290568  -1.4e-05  4.107816  0.0  0.110207  0.253585  -0.000129  4.10434  0.0
C  C33  1  0.75729290  0.26391186  0.74948068  1  0.283216  0.001183  3.836048  0.001  0.268008  0.000104  4.104708  0.0  0.288035  -4.5e-05  4.108995  -0.001  0.114583  0.254264  0.000273  4.101583  0.0
C  C34  1  0.24270437  0.73608278  0.25052102  1  0.283105  0.001184  3.836403  0.001  0.267852  0.000104  4.105187  0.0  0.287881  -4.7e-05  4.109476  -0.001  0.114567  0.254156  0.000273  4.101973  0.0
C  C35  1  0.77540881  0.23279440  0.85509229  1  -0.145839  -0.010149  3.810595  -0.009  -0.150428  -0.001344  4.099287  -0.001  -0.16402  -0.000311  4.121754  0.0  -0.048306  -0.141055  -0.002729  4.083626  -0.003
C  C36  1  0.22458847  0.76721071  0.14491193  1  -0.14567  -0.010168  3.810585  -0.009  -0.150278  -0.001347  4.099307  -0.001  -0.16387  -0.000307  4.121773  0.0  -0.048228  -0.140917  -0.002733  4.083605  -0.003
C  C37  1  0.49888203  0.48092609  0.10847254  1  0.294816  0.001188  3.856527  0.003  0.273729  0.000902  4.130379  0.002  0.29615  0.000297  4.133754  0.001  0.110266  0.258296  0.001548  4.128013  0.003
C  C38  1  0.50110661  0.51904565  0.89155932  1  0.294679  0.001188  3.855538  0.003  0.273457  0.0009  4.129653  0.002  0.295951  0.000298  4.132922  0.001  0.110138  0.257993  0.001546  4.127373  0.003
C  C39  1  0.62608642  0.62272474  0.97269387  1  0.247373  -0.000294  3.849513  -0.004  0.230157  0.001164  4.125094  -0.001  0.251471  0.001148  4.135264  -0.001  0.089104  0.215552  0.001329  4.118035  -0.001
C  C40  1  0.37391038  0.37726369  0.02733136  1  0.247127  -0.000292  3.849211  -0.004  0.229782  0.001163  4.124993  -0.001  0.251119  0.001153  4.13517  -0.001  0.088961  0.215188  0.00133  4.117913  -0.001
C  C41  1  0.61844328  0.59854963  0.07602638  1  -0.156191  0.002723  3.851091  0.004  -0.157224  0.001702  4.13453  0.002  -0.17193  0.000481  4.156245  0.001  -0.048632  -0.14728  0.002817  4.119717  0.004
C  C42  1  0.38155550  0.40143040  0.92398967  1  -0.155678  0.002725  3.850337  0.004  -0.156764  0.001704  4.133957  0.003  -0.171494  0.000476  4.155655  0.001  -0.048525  -0.146839  0.002819  4.119211  0.004
C  C43  1  0.50130001  0.88820140  0.84710600  1  0.137902  -0.006919  3.6866  -0.008  0.10815  -0.00086  3.948266  -0.002  0.116598  -0.001865  3.968204  -0.003  0.05246  0.102615  -6.1e-05  3.93557  -0.001
C  C44  1  0.49869091  0.11180686  0.15289623  1  0.138013  -0.006915  3.686661  -0.008  0.108301  -0.00086  3.948317  -0.002  0.116748  -0.001866  3.968254  -0.003  0.052516  0.102755  -6.1e-05  3.935615  -0.001
C  C45  1  0.38376395  0.94351714  0.82543974  1  -0.096741  0.008388  3.684201  0.009  -0.11186  0.003756  3.936767  0.005  -0.118384  0.003264  3.956736  0.004  -0.072786  -0.107975  0.004193  3.923729  0.005
C  C46  1  0.61622698  0.05649635  0.17456183  1  -0.096847  0.008385  3.684212  0.009  -0.111948  0.003756  3.93672  0.005  -0.118473  0.003265  3.956685  0.004  -0.072853  -0.108062  0.004193  3.923668  0.005
C  C47  1  0.32698380  0.94769728  0.72266394  1  0.016877  -0.007223  3.683516  -0.006  -0.000567  -0.002239  3.927617  -0.002  0.003165  -0.002458  3.945683  -0.002  -0.059801  -0.002879  -0.002105  3.915529  -0.002
C  C48  1  0.67301218  0.05230992  0.27733486  1  0.016675  -0.007219  3.683748  -0.006  -0.000671  -0.002238  3.927773  -0.002  0.00306  -0.002457  3.945835  -0.002  -0.059784  -0.002993  -0.002105  3.915687  -0.002
C  C49  1  0.38583753  0.89408970  0.64453718  1  -0.129405  0.004409  3.659603  0.004  -0.143727  0.001789  3.896588  0.002  -0.150798  0.001659  3.917421  0.002  -0.071485  -0.139077  0.001996  3.882551  0.002
C  C50  1  0.61415867  0.10592063  0.35546094  1  -0.129597  0.004406  3.660038  0.004  -0.143905  0.00179  3.896942  0.002  -0.150979  0.001658  3.917785  0.002  -0.071605  -0.139254  0.001996  3.882881  0.002
C  C51  1  0.50249188  0.83919103  0.67168686  1  0.170927  -0.001373  3.737716  -0.001  0.168225  0.001675  3.982097  0.002  0.174781  0.000516  4.004094  0.0  0.118033  0.164039  0.002531  3.967288  0.002
C  C52  1  0.49750630  0.16081615  0.32830983  1  0.170976  -0.001369  3.738055  -0.001  0.168474  0.001675  3.982123  0.002  0.175029  0.000517  4.004115  0.0  0.118024  0.164294  0.002531  3.967272  0.002
C  C53  1  0.57460698  0.77811985  0.59768520  1  0.190729  -0.004261  3.742855  -0.005  0.187574  0.000353  3.985763  -0.001  0.1971  -0.000754  4.00513  -0.002  0.125807  0.181188  0.001165  3.973271  0.0
C  C54  1  0.42539099  0.22188941  0.40230616  1  0.190544  -0.004257  3.743151  -0.005  0.187354  0.000353  3.986004  -0.001  0.196875  -0.000751  4.005374  -0.002  0.125713  0.180989  0.001166  3.973473  0.0
C  C55  1  0.52959262  0.75152009  0.49113810  1  -0.119819  0.007283  3.627711  0.008  -0.136565  0.003444  3.867809  0.004  -0.143751  0.003034  3.886852  0.003  -0.069424  -0.132065  0.003812  3.855725  0.004
C  C56  1  0.47040160  0.24848290  0.50885131  1  -0.119693  0.007279  3.627584  0.008  -0.136421  0.003444  3.867697  0.004  -0.143608  0.003032  3.886741  0.003  -0.069366  -0.131915  0.003811  3.855596  0.004
C  C57  1  0.61453124  0.69346176  0.43448936  1  0.021013  -0.008728  3.656582  -0.008  3.4e-05  -0.002934  3.90965  -0.003  0.005598  -0.003088  3.925382  -0.003  -0.057342  -0.003982  -0.002814  3.899837  -0.002
C  C58  1  0.38546385  0.30653809  0.56550081  1  0.020892  -0.008723  3.656733  -0.008  -8.4e-05  -0.002934  3.909896  -0.003  0.005487  -0.003087  3.92562  -0.003  -0.057419  -0.004113  -0.002813  3.900101  -0.002
C  C59  1  0.74097179  0.66321694  0.48372092  1  -0.121901  0.007121  3.664397  0.007  -0.145094  0.003236  3.918019  0.003  -0.152017  0.002899  3.937453  0.003  -0.06918  -0.140735  0.003508  3.905487  0.004
C  C60  1  0.25902462  0.33677557  0.51626463  1  -0.121883  0.007116  3.664755  0.007  -0.145015  0.003235  3.918328  0.003  -0.151914  0.002897  3.937777  0.003  -0.069178  -0.140661  0.003508  3.905807  0.004
C  C61  1  0.77687511  0.68731983  0.59089624  1  0.194654  -0.005221  3.753427  -0.006  0.188888  -0.000256  4.00124  -0.002  0.199004  -0.001328  4.019506  -0.003  0.128883  0.18216  0.000589  3.989437  -0.001
C  C62  1  0.22312679  0.31267266  0.40909051  1  0.194675  -0.005216  3.75356  -0.006  0.188819  -0.000255  4.001447  -0.002  0.198931  -0.001326  4.019698  -0.003  0.128904  0.182109  0.00059  3.989637  -0.001
C  C63  1  0.89619222  0.65315378  0.65867777  1  0.186235  -0.002144  3.719245  -0.002  0.183264  0.001542  3.962691  0.001  0.191044  0.000291  3.98202  0.0  0.126867  0.178475  0.002437  3.949934  0.002
C  C64  1  0.10381364  0.34684290  0.34131627  1  0.18628  -0.002156  3.719336  -0.002  0.183339  0.001545  3.962664  0.001  0.191124  0.000289  3.981977  0.0  0.12697  0.178545  0.002436  3.949903  0.002
C  C65  1  0.01073938  0.60936734  0.62435603  1  -0.117979  0.005561  3.660002  0.005  -0.136767  0.002136  3.904742  0.002  -0.143261  0.002046  3.924873  0.002  -0.067897  -0.132609  0.002311  3.891142  0.002
C  C66  1  0.98926735  0.39062098  0.37563944  1  -0.118032  0.005574  3.660015  0.005  -0.136798  0.002133  3.904816  0.002  -0.143293  0.002048  3.924931  0.002  -0.068031  -0.132648  0.002311  3.891215  0.002
C  C67  1  0.11086774  0.57313089  0.69683604  1  0.007587  -0.008386  3.7016  -0.007  -0.012082  -0.002573  3.952651  -0.002  -0.008554  -0.002797  3.971784  -0.003  -0.061588  -0.014365  -0.002475  3.940026  -0.002
C  C68  1  0.88913921  0.42686057  0.30316334  1  0.007585  -0.0084  3.701634  -0.007  -0.012086  -0.002574  3.952667  -0.002  -0.008552  -0.002798  3.971803  -0.003  -0.061552  -0.014373  -0.002475  3.940027  -0.002
C  C69  1  0.09566089  0.58326693  0.80106518  1  -0.109255  0.009621  3.71044  0.01  -0.123446  0.004114  3.963859  0.005  -0.131423  0.003611  3.986728  0.004  -0.078694  -0.118619  0.004597  3.949247  0.005
C  C70  1  0.90435463  0.41672661  0.19893722  1  -0.109013  0.009635  3.709897  0.01  -0.123199  0.004115  3.96331  0.005  -0.131175  0.003611  3.986177  0.004  -0.078503  -0.118374  0.004596  3.948677  0.005
C  C71  1  0.98337135  0.63395560  0.83054188  1  0.161917  -0.008403  3.650783  -0.009  0.131786  -0.001342  3.909383  -0.003  0.142005  -0.002393  3.92646  -0.004  0.063829  0.124791  -0.000481  3.89907  -0.002
C  C72  1  0.01664175  0.36604004  0.16945960  1  0.161832  -0.008414  3.65079  -0.009  0.131629  -0.001343  3.909423  -0.003  0.141845  -0.002393  3.926497  -0.004  0.063664  0.124628  -0.000481  3.89911  -0.002
N  N73  1  0.55965237  0.83862342  0.77239009  1  -0.326606  0.080481  3.30779  0.101  -0.28333  0.056661  3.594727  0.075  -0.313567  0.046092  3.620286  0.065  -0.338546  -0.265078  0.063338  3.579064  0.081
N  N74  1  0.44034008  0.16138064  0.22760912  1  -0.326642  0.080478  3.308074  0.101  -0.283485  0.056664  3.594973  0.075  -0.313711  0.046096  3.620528  0.065  -0.33855  -0.265242  0.063351  3.579288  0.081
N  N75  1  0.69343979  0.74348985  0.64301798  1  -0.34283  0.102352  3.403237  0.128  -0.307045  0.071486  3.695766  0.094  -0.337962  0.05966  3.716388  0.082  -0.359244  -0.289571  0.077643  3.684509  0.099
N  N76  1  0.30656125  0.25651101  0.35696659  1  -0.342776  0.102335  3.403363  0.128  -0.30702  0.071478  3.695954  0.094  -0.337916  0.059654  3.716561  0.082  -0.359298  -0.289597  0.077643  3.684723  0.099
N  N77  1  0.88652966  0.66751796  0.76107025  1  -0.293939  0.086591  3.27023  0.109  -0.253876  0.059351  3.559808  0.079  -0.282485  0.048647  3.579882  0.068  -0.330206  -0.237318  0.065876  3.548723  0.084
N  N78  1  0.11348368  0.33248081  0.23892750  1  -0.29412  0.086597  3.270678  0.109  -0.253946  0.059352  3.560144  0.079  -0.282541  0.048651  3.580201  0.068  -0.330329  -0.237402  0.065884  3.549051  0.084
Cl  Cl79  1  0.69770195  0.30815511  0.94332022  1  -0.061754  -0.00268  1.470878  -0.002  -0.044883  -0.000857  1.725319  -0.001  -0.047577  -0.00043  1.723486  0.0  0.0014  -0.042637  -0.001482  1.726604  -0.001
Cl  Cl80  1  0.30230169  0.69184163  0.05669045  1  -0.061794  -0.002683  1.470697  -0.002  -0.044926  -0.000857  1.72513  -0.001  -0.047624  -0.000429  1.723294  0.0  0.001351  -0.042692  -0.001483  1.726417  -0.001
Cl  Cl81  1  0.98963259  0.03393774  0.62067466  1  -0.04905  -0.002792  1.507453  -0.002  -0.034029  -0.000783  1.771438  -0.001  -0.034374  -0.000441  1.767665  0.0  -3e-06  -0.033034  -0.001315  1.774192  -0.001
Cl  Cl82  1  0.01038806  0.96609656  0.37932136  1  -0.049103  -0.002798  1.507327  -0.002  -0.034088  -0.000784  1.771311  -0.001  -0.034427  -0.000441  1.767539  0.0  2e-05  -0.033095  -0.001317  1.774066  -0.001
Cl  Cl83  1  0.75086109  0.71533326  0.17033726  1  -0.032734  0.000534  1.514203  0.0  -0.014628  0.000436  1.774315  0.0  -0.0159  0.000232  1.770857  0.0  0.015483  -0.012908  0.000661  1.776175  0.0
Cl  Cl84  1  0.24913769  0.28465201  0.82968424  1  -0.032783  0.000534  1.514232  0.0  -0.014654  0.000437  1.774411  0.0  -0.015936  0.000232  1.770968  0.0  0.015515  -0.012911  0.000661  1.776249  0.0
O  O85  1  0.86756866  0.10998374  0.98157299  1  -0.508447  -0.080694  2.093045  -0.099  -0.480935  -0.054803  2.375223  -0.075  -0.519637  -0.043146  2.370485  -0.062  -0.317393  -0.453624  -0.061536  2.378753  -0.082
O  O86  1  0.13243743  0.89002658  0.01843205  1  -0.508326  -0.080712  2.092962  -0.099  -0.480793  -0.05481  2.37507  -0.075  -0.519496  -0.043152  2.370331  -0.062  -0.317333  -0.453485  -0.061547  2.378596  -0.082
O  O87  1  0.97521330  0.98710993  0.84800396  1  -0.521885  -0.078924  2.119529  -0.097  -0.505262  -0.056475  2.421806  -0.077  -0.542987  -0.044473  2.413632  -0.063  -0.314642  -0.478889  -0.063541  2.42803  -0.084
O  O88  1  0.02481811  0.01292122  0.15200204  1  -0.522028  -0.078915  2.119727  -0.096  -0.505383  -0.056472  2.421879  -0.077  -0.543127  -0.04447  2.413769  -0.063  -0.314652  -0.479006  -0.063535  2.428116  -0.084
O  O89  1  0.68877035  0.34146560  0.71667466  1  -0.425088  -0.000175  1.974463  0.0  -0.396337  0.000811  2.193262  0.001  -0.411834  0.00139  2.191986  0.002  -0.268093  -0.384829  -0.000205  2.193785  0.0
O  O90  1  0.31120888  0.65851758  0.28332305  1  -0.424977  -0.000176  1.974638  0.0  -0.396233  0.00081  2.193495  0.001  -0.411729  0.001391  2.19222  0.002  -0.268049  -0.384745  -0.000205  2.193984  0.0
O  O91  1  0.82014991  0.22855044  0.57966510  1  -0.474088  -0.001678  1.982848  -0.002  -0.442891  0.000273  2.205888  0.0  -0.458074  0.000724  2.200425  0.001  -0.286817  -0.43186  -0.000472  2.209459  -0.001
O  O92  1  0.17983835  0.77144632  0.42033668  1  -0.474214  -0.001693  1.982267  -0.002  -0.443018  0.00027  2.205305  0.0  -0.458218  0.000725  2.199869  0.001  -0.286852  -0.431985  -0.000476  2.208884  -0.001
O  O93  1  0.73125485  0.72912269  0.94041714  1  -0.49537  0.073945  2.146136  0.097  -0.480465  0.046869  2.448919  0.066  -0.51652  0.036702  2.441824  0.054  -0.309909  -0.454898  0.054551  2.45242  0.074
O  O94  1  0.26874681  0.27087199  0.05960249  1  -0.495158  0.073949  2.146541  0.097  -0.480189  0.046877  2.44936  0.066  -0.516222  0.036715  2.442249  0.054  -0.309766  -0.454629  0.054556  2.452844  0.074
O  O95  1  0.49098097  0.45659912  0.20134240  1  -0.452895  -0.003647  2.043098  -0.003  -0.420687  -0.00193  2.285243  -0.002  -0.440428  -0.00269  2.278016  -0.003  -0.27823  -0.406399  -0.000891  2.289544  0.0
O  O96  1  0.50897862  0.54334541  0.79865445  1  -0.453036  -0.003656  2.04148  -0.003  -0.420722  -0.001935  2.283569  -0.002  -0.440527  -0.0027  2.276359  -0.003  -0.278151  -0.406413  -0.000897  2.287916  0.0
