# generated using pymatgen
data_Co3H24C30(N7O4)2
_symmetry_space_group_name_H-M   'P 1'
_cell_length_a   10.13990329
_cell_length_b   10.32714937
_cell_length_c   10.50734358
_cell_angle_alpha   99.63404752
_cell_angle_beta   101.91281060
_cell_angle_gamma   119.44170419
_symmetry_Int_Tables_number   1
_chemical_formula_structural   Co3H24C30(N7O4)2
_chemical_formula_sum   'Co3 H24 C30 N14 O8'
_cell_volume   889.67925717
_cell_formula_units_Z   1
loop_
 _symmetry_equiv_pos_site_id
 _symmetry_equiv_pos_as_xyz
  1  'x, y, z'
loop_
 _atom_site_type_symbol
 _atom_site_label
 _atom_site_symmetry_multiplicity
 _atom_site_fract_x
 _atom_site_fract_y
 _atom_site_fract_z
 _atom_site_occupancy
 _atom_site_hse06_10hf_ddec_charge
 _atom_site_hse06_10hf_ddec_spin_density
 _atom_site_hse06_10hf_ddec_sum_bond_order
 _atom_site_hse06_10hf_magmom
 _atom_site_hse06_ddec_charge
 _atom_site_hse06_ddec_spin_density
 _atom_site_hse06_ddec_sum_bond_order
 _atom_site_hse06_magmom
 _atom_site_pbe_cm5_charge
 _atom_site_pbe_ddec_charge
 _atom_site_pbe_ddec_spin_density
 _atom_site_pbe_ddec_sum_bond_order
 _atom_site_pbe_magmom
Co  Co0  1  0.50167551  0.50075072  0.50116663  1  0.713606  0.965674  3.018437  0.879  0.781506  0.982853  2.945778  0.909  0.662441  0.680979  0.94519  3.057915  0.847
Co  Co1  1  0.84841217  0.71993836  0.77800849  1  0.903904  2.798051  2.535986  2.548  1.002869  2.870022  2.441848  2.651  0.666482  0.819922  2.720649  2.613445  2.444
Co  Co2  1  0.15155205  0.27916469  0.22151191  1  0.904952  -2.830784  2.537496  -2.552  1.00418  -2.904905  2.443165  -2.657  0.666587  0.820231  -2.748524  2.615151  -2.444
H  H3  1  0.76712078  0.09828673  0.85996961  1  0.10146  0.000147  1.035667  0.0  0.104148  9.8e-05  1.034338  0.0  0.100712  0.099582  0.000191  1.036537  0.0
H  H4  1  0.23234208  0.90135686  0.14042018  1  0.100879  -0.000129  1.036672  0.0  0.103596  -8.1e-05  1.0353  0.0  0.100335  0.098921  -0.000175  1.0377  0.0
H  H5  1  0.81890371  0.57853226  0.43966357  1  0.124217  -0.000149  0.979891  0.0  0.126935  -0.000127  0.976047  0.0  0.147203  0.121963  -0.000171  0.983152  0.0
H  H6  1  0.18319259  0.42294774  0.56110103  1  0.123337  -6e-06  0.981869  0.0  0.126049  1.7e-05  0.977979  0.0  0.146973  0.121101  -1.9e-05  0.985116  0.0
H  H7  1  0.93426926  0.91161076  0.10355195  1  0.124058  0.000139  1.022101  0.0  0.12742  0.000162  1.017677  0.0  0.139576  0.120855  0.000111  1.02646  0.0
H  H8  1  0.06504605  0.08771636  0.89537142  1  0.123538  -0.000151  1.022422  0.0  0.126812  -0.000169  1.018107  0.0  0.139332  0.120378  -0.000117  1.026725  0.0
H  H9  1  0.28947563  0.68272799  0.69801722  1  0.105318  1.1e-05  1.032325  0.0  0.109664  -1.3e-05  1.028139  0.0  0.102358  0.101979  9.1e-05  1.035811  0.0
H  H10  1  0.70990633  0.31700410  0.30223523  1  0.105639  -4.1e-05  1.032603  0.0  0.110059  -1e-05  1.028339  0.0  0.102684  0.102314  -0.000102  1.036074  0.0
H  H11  1  0.36493484  0.12340631  0.90042447  1  0.104313  0.000104  1.003069  0.0  0.107389  6.6e-05  1.001249  0.0  0.103961  0.101785  0.000131  1.004974  0.0
H  H12  1  0.63454947  0.87663407  0.09926292  1  0.104264  -0.000111  1.002512  0.0  0.107374  -6.5e-05  1.000667  0.0  0.103838  0.101667  -0.000145  1.004537  0.0
H  H13  1  0.65785547  0.25392552  0.94071308  1  0.100025  1e-05  1.023156  0.0  0.102572  8e-06  1.023168  0.0  0.099848  0.09838  1.3e-05  1.023226  0.0
H  H14  1  0.34157150  0.74593783  0.05914705  1  0.100055  -1.1e-05  1.023593  0.0  0.102637  -8e-06  1.023513  0.0  0.099725  0.098346  6e-06  1.023783  0.0
H  H15  1  0.83687014  0.96650392  0.34009354  1  0.130841  -0.000111  1.064798  0.0  0.134253  -2.3e-05  1.063224  0.0  0.120365  0.128591  -0.000177  1.065473  0.0
H  H16  1  0.16317124  0.03362670  0.65940256  1  0.130634  6.6e-05  1.066056  0.0  0.134095  -1.7e-05  1.064469  0.0  0.120188  0.128293  0.000146  1.066858  0.0
H  H17  1  0.57365664  0.81204762  0.42742170  1  0.124849  -0.000126  1.005425  0.0  0.126753  -9e-05  1.005142  0.0  0.126255  0.123519  -0.000234  1.005273  0.0
H  H18  1  0.42767979  0.18866788  0.57381753  1  0.125181  0.000295  1.005892  0.0  0.127121  0.000226  1.00553  0.0  0.126501  0.123847  0.000287  1.005857  0.0
H  H19  1  0.07461735  0.77950969  0.38743388  1  0.113379  -6.7e-05  0.981894  0.0  0.114943  -5.6e-05  0.979945  0.0  0.136143  0.111596  -0.000113  0.983869  0.0
H  H20  1  0.92607606  0.22103196  0.61198503  1  0.112625  0.00019  0.981746  0.0  0.114156  0.000148  0.979764  0.0  0.135994  0.11094  0.000201  0.983724  0.0
H  H21  1  0.07986174  0.94531222  0.35276034  1  0.10825  7.7e-05  0.984865  0.0  0.109185  9.9e-05  0.98485  0.0  0.134857  0.107352  6.7e-05  0.985126  0.0
H  H22  1  0.92072737  0.05511114  0.64630112  1  0.108039  -0.000113  0.984746  0.0  0.108864  -0.000121  0.984828  0.0  0.134897  0.107163  -0.000112  0.984994  0.0
H  H23  1  0.84272223  0.46912223  0.90750089  1  0.112488  0.000207  1.028881  0.001  0.114236  0.000142  1.029109  0.0  0.120699  0.11101  0.000287  1.028837  0.001
H  H24  1  0.15664347  0.52992770  0.09247006  1  0.113542  -0.000112  1.028437  -0.001  0.115321  -7.6e-05  1.028663  0.0  0.120957  0.111906  -0.000156  1.028576  -0.001
H  H25  1  0.93117999  0.52115988  0.18814505  1  0.143779  0.000157  1.057718  0.0  0.148314  0.000141  1.054136  0.0  0.122133  0.139896  0.000139  1.061139  0.0
H  H26  1  0.06875560  0.47885308  0.81200229  1  0.143683  6.6e-05  1.056893  0.0  0.148234  4.3e-05  1.053325  0.0  0.122115  0.139778  0.000105  1.060333  0.0
C  C27  1  0.53466283  0.88116428  0.77044198  1  -0.045357  0.002611  3.995035  0.004  -0.056499  0.001954  4.017157  0.003  -0.018544  -0.038512  0.002709  3.982137  0.004
C  C28  1  0.46481243  0.11853221  0.23016002  1  -0.047359  -0.001782  3.998102  -0.003  -0.058741  -0.001179  4.020411  -0.002  -0.019284  -0.040187  -0.001962  3.985113  -0.003
C  C29  1  0.30881015  0.89422414  0.79671502  1  -0.047923  0.001005  4.014116  0.001  -0.057772  0.000504  4.036584  0.001  -0.022014  -0.042041  0.001133  4.000885  0.001
C  C30  1  0.69053341  0.10565657  0.20317055  1  -0.048494  -0.000676  4.013658  -0.001  -0.058405  -0.000212  4.036168  0.0  -0.022236  -0.042557  -0.000872  4.000415  -0.001
C  C31  1  0.63855040  0.04229750  0.84054229  1  -0.076624  -0.001299  3.953701  -0.002  -0.072546  -0.000735  3.971324  -0.001  -0.079255  -0.078211  -0.000602  3.941141  -0.001
C  C32  1  0.36091230  0.95744387  0.15982756  1  -0.075141  0.00034  3.953065  0.0  -0.070978  0.000188  3.970646  0.0  -0.079156  -0.07706  -0.000785  3.94085  -0.001
C  C33  1  0.59629369  0.78526555  0.71935712  1  0.607088  0.000375  4.139266  0.0  0.648858  0.000666  4.130697  0.001  0.219322  0.57608  -0.00052  4.1456  -0.002
C  C34  1  0.40356908  0.21473319  0.28154742  1  0.6085  -0.00319  4.137538  -0.003  0.650364  -0.002321  4.128911  -0.002  0.21971  0.577097  -0.003653  4.14411  -0.003
C  C35  1  0.78622080  0.66169358  0.42561772  1  0.100002  -0.002418  3.876487  -0.003  0.11662  -0.00193  3.88705  -0.003  0.147609  0.089596  -0.002534  3.869684  -0.004
C  C36  1  0.21557929  0.33955916  0.57507862  1  0.101921  -0.003077  3.878114  -0.003  0.118516  -0.002271  3.888519  -0.002  0.14856  0.091457  -0.004108  3.871369  -0.004
C  C37  1  0.13508736  0.80932160  0.78098282  1  0.578741  0.001028  4.204746  -0.001  0.614797  0.000601  4.201312  0.0  0.198317  0.552225  0.000931  4.206498  -0.001
C  C38  1  0.86424359  0.19098214  0.21870016  1  0.581161  -0.001101  4.2071  0.0  0.617166  -0.00068  4.203515  0.0  0.198653  0.554669  -0.000929  4.209172  0.001
C  C39  1  0.92065465  0.79835324  0.08497022  1  0.110566  0.001305  3.883133  0.002  0.127154  0.001242  3.893987  0.002  0.145551  0.098612  0.000658  3.876812  0.001
C  C40  1  0.07885127  0.20106055  0.91430053  1  0.110899  -0.001087  3.882934  -0.001  0.127706  -0.001136  3.893681  -0.001  0.145376  0.098803  -0.000574  3.876751  -0.001
C  C41  1  0.37033522  0.80815298  0.74968189  1  -0.098748  0.001329  3.960679  0.002  -0.094392  0.000885  3.977845  0.001  -0.077638  -0.103365  0.00018  3.95215  0.0
C  C42  1  0.62906420  0.19158852  0.25056911  1  -0.099102  -0.001715  3.961749  -0.003  -0.094738  -0.001158  3.978936  -0.002  -0.078272  -0.103696  -0.000763  3.953043  -0.001
C  C43  1  0.41275818  0.05627740  0.86310998  1  -0.082016  -0.001516  3.969305  -0.002  -0.078543  -0.00087  3.988178  -0.001  -0.078292  -0.082994  -0.000704  3.956328  -0.001
C  C44  1  0.58666476  0.94363206  0.13672652  1  -0.081225  0.000467  3.968709  0.001  -0.077704  0.000253  3.98752  0.0  -0.078174  -0.082348  -0.000877  3.956027  -0.001
C  C45  1  0.57701972  0.12912461  0.88542706  1  -0.081969  0.000406  4.017043  0.001  -0.087298  0.000317  4.038743  0.0  -0.088933  -0.079171  0.000287  4.001955  0.0
C  C46  1  0.42241977  0.87072781  0.11457188  1  -0.083824  -3.4e-05  4.018307  0.0  -0.089131  -1.7e-05  4.039943  0.0  -0.089927  -0.081134  0.000151  4.003551  0.0
C  C47  1  0.79283027  0.86532488  0.37615524  1  -0.114155  0.000703  3.932959  0.001  -0.113993  0.000718  3.951568  0.001  -0.001554  -0.112732  0.00046  3.918137  0.001
C  C48  1  0.20786252  0.13523616  0.62395683  1  -0.113035  -0.000202  3.932079  0.0  -0.112905  -0.000175  3.950772  0.0  -0.001229  -0.111696  -3.7e-05  3.917366  0.0
C  C49  1  0.66327427  0.78635666  0.41750598  1  -0.021977  -0.001542  3.955795  -0.002  -0.018223  -0.001339  3.975423  -0.002  0.004938  -0.0241  -0.001502  3.942313  -0.002
C  C50  1  0.33804011  0.21443526  0.58341108  1  -0.024466  -0.00124  3.955694  -0.002  -0.020901  -0.000991  3.975323  -0.001  0.00362  -0.026421  -0.001127  3.942083  -0.002
C  C51  1  0.00342726  0.81868993  0.33324083  1  0.015973  0.000398  3.854479  0.001  0.025038  0.000324  3.862582  0.0  0.067328  0.010411  0.000398  3.848883  0.001
C  C52  1  0.99715151  0.18180960  0.66626706  1  0.016354  -0.000401  3.855161  -0.001  0.025616  -0.000317  3.863112  0.0  0.067119  0.010651  -0.000447  3.849596  -0.001
C  C53  1  0.87254391  0.56765439  0.98987515  1  -0.021421  9.1e-05  4.006831  0.0  -0.018801  -0.000122  4.028593  0.0  -0.000766  -0.023656  0.000306  3.992836  0.0
C  C54  1  0.12697515  0.43160741  0.00996128  1  -0.022441  -0.000119  4.007202  0.0  -0.019864  0.000141  4.028962  0.0  -0.001034  -0.024816  -0.000188  3.993487  0.0
C  C55  1  0.91752029  0.59292752  0.12840408  1  -0.109962  0.001257  3.909203  0.002  -0.108571  0.000883  3.925565  0.001  0.000792  -0.111419  0.001671  3.90004  0.002
C  C56  1  0.08232677  0.40686127  0.87149999  1  -0.110507  -0.001017  3.910712  -0.002  -0.109126  -0.000678  3.927159  -0.001  0.000444  -0.11195  -0.00138  3.901601  -0.002
N  N57  1  0.86983057  0.78586899  0.38247063  1  0.002137  -0.000801  3.81212  -0.001  -0.013076  -0.00061  3.837427  -0.001  -0.245473  0.012138  -0.000909  3.793148  -0.001
N  N58  1  0.13118548  0.21498215  0.61755447  1  0.002305  -0.000374  3.811536  0.0  -0.012969  -0.000226  3.836793  0.0  -0.246002  0.012347  -0.000709  3.792619  -0.001
N  N59  1  0.66054254  0.65967152  0.44780426  1  -0.25024  -0.002593  3.698251  -0.005  -0.277492  -0.002396  3.715246  -0.004  -0.356679  -0.23425  -0.002567  3.687453  -0.005
N  N60  1  0.34159548  0.34164120  0.55363415  1  -0.251363  -0.006162  3.698901  -0.008  -0.278208  -0.005543  3.715584  -0.008  -0.356721  -0.235475  -0.00583  3.687976  -0.007
N  N61  1  0.87528996  0.69605950  0.96402433  1  -0.32903  0.029973  3.677117  0.039  -0.360095  0.02472  3.690313  0.031  -0.364346  -0.305856  0.034503  3.669348  0.046
N  N62  1  0.12403572  0.30295969  0.03542964  1  -0.328692  -0.030465  3.676973  -0.039  -0.359775  -0.025205  3.689908  -0.031  -0.36391  -0.30555  -0.034808  3.669596  -0.046
N  N63  1  0.94877458  0.73991919  0.18721118  1  0.011099  0.001619  3.788683  0.003  -0.003278  0.001351  3.812423  0.002  -0.243136  0.019828  0.001648  3.773895  0.003
N  N64  1  0.05109243  0.25997123  0.81232372  1  0.010591  -0.00155  3.78994  -0.003  -0.003809  -0.001313  3.81358  -0.002  -0.243136  0.019382  -0.00159  3.77519  -0.003
N  N65  1  0.69644828  0.51115047  0.64837524  1  -0.598238  0.029508  3.337052  0.028  -0.645851  0.013251  3.34141  0.004  -0.326452  -0.561625  0.045006  3.332511  0.051
N  N66  1  0.30312635  0.48802015  0.35034879  1  -0.599707  -0.013095  3.320494  -0.011  -0.647373  -0.004946  3.325176  0.001  -0.324494  -0.561622  -0.019407  3.31435  -0.02
N  N67  1  0.72095782  0.40685014  0.63158059  1  0.449857  0.0049  4.449974  0.001  0.469833  -0.000937  4.485639  -0.007  0.091127  0.435641  0.009986  4.423064  0.008
N  N68  1  0.27851549  0.59214255  0.36750481  1  0.452824  0.003715  4.459828  0.009  0.472853  0.003274  4.495618  0.007  0.092741  0.438517  0.002922  4.431453  0.009
N  N69  1  0.73859582  0.30269239  0.61201326  1  -0.373546  0.084734  2.559678  0.119  -0.384682  0.074844  2.571976  0.108  -0.176711  -0.36229  0.09519  2.548998  0.131
N  N70  1  0.26027851  0.69582092  0.38727087  1  -0.377639  -0.0235  2.565362  -0.034  -0.389075  -0.01863  2.577733  -0.027  -0.177881  -0.364421  -0.030954  2.553461  -0.043
O  O71  1  0.74642686  0.84058448  0.77091629  1  -0.584893  0.033655  2.388996  0.048  -0.625013  0.027044  2.37171  0.038  -0.32032  -0.553625  0.039157  2.402637  0.056
O  O72  1  0.25288227  0.15837490  0.23151198  1  -0.586372  -0.035665  2.389813  -0.051  -0.626799  -0.028342  2.372723  -0.039  -0.320957  -0.554682  -0.041987  2.403307  -0.06
O  O73  1  0.49167287  0.65366394  0.62726869  1  -0.527343  0.003137  2.501061  0.005  -0.566211  0.002289  2.49354  0.003  -0.289875  -0.500448  0.004926  2.504649  0.008
O  O74  1  0.50884175  0.34745492  0.37182339  1  -0.527831  0.000118  2.495677  -0.002  -0.566474  0.00014  2.488165  -0.002  -0.290008  -0.501057  0.001288  2.499302  0.001
O  O75  1  0.06460140  0.88611345  0.77938088  1  -0.596523  0.036755  2.315944  0.054  -0.638414  0.028284  2.304339  0.04  -0.328663  -0.563481  0.044034  2.325082  0.065
O  O76  1  0.93455235  0.11400216  0.21902882  1  -0.598179  -0.037209  2.317761  -0.054  -0.640125  -0.028667  2.306019  -0.04  -0.329887  -0.565162  -0.044381  2.327176  -0.064
O  O77  1  0.05699634  0.66594506  0.77021903  1  -0.564656  0.019176  2.204418  0.032  -0.596901  0.014444  2.199549  0.024  -0.305947  -0.539473  0.024184  2.2067  0.04
O  O78  1  0.94199896  0.33461147  0.23063039  1  -0.566876  -0.018059  2.203012  -0.03  -0.598456  -0.01363  2.197797  -0.023  -0.307463  -0.54267  -0.022592  2.205805  -0.037
