# generated using pymatgen
data_Zn4H25C52NO17
_symmetry_space_group_name_H-M   'P 1'
_cell_length_a   15.30953339
_cell_length_b   15.59504383
_cell_length_c   17.96442111
_cell_angle_alpha   70.07029209
_cell_angle_beta   89.55644826
_cell_angle_gamma   67.99984855
_symmetry_Int_Tables_number   1
_chemical_formula_structural   Zn4H25C52NO17
_chemical_formula_sum   'Zn4 H25 C52 N1 O17'
_cell_volume   3703.01066928
_cell_formula_units_Z   1
loop_
 _symmetry_equiv_pos_site_id
 _symmetry_equiv_pos_as_xyz
  1  'x, y, z'
loop_
 _atom_site_type_symbol
 _atom_site_label
 _atom_site_symmetry_multiplicity
 _atom_site_fract_x
 _atom_site_fract_y
 _atom_site_fract_z
 _atom_site_occupancy
 _atom_site_pbe_bader_charge
 _atom_site_pbe_bader_spin_density
 _atom_site_pbe_cm5_charge
 _atom_site_pbe_ddec_charge
 _atom_site_pbe_ddec_spin_density
 _atom_site_pbe_ddec_sum_bond_order
 _atom_site_pbe_magmom
Zn  Zn0  1  0.42956564  0.57506517  0.56707007  1  1.319616  0  0.674488  0.976156  0  2.340054  0
Zn  Zn1  1  0.54987734  0.57453034  0.41898535  1  1.313796  0  0.670291  0.960211  0  2.370676  0
Zn  Zn2  1  0.40569192  0.47144139  0.44824645  1  1.314171  0  0.676519  0.971075  0  2.362767  0
Zn  Zn3  1  0.60282384  0.37613817  0.56802822  1  1.32214  0  0.677162  0.975402  0  2.361607  0
H  H4  1  0.79155008  0.34183184  0.04399164  1  0.053629  0  0.111518  0.135385  0  0.979358  0
H  H5  1  0.57938397  0.46482583  0.19664570  1  0.079017  0  0.109243  0.110205  0  1.027403  0
H  H6  1  0.30485293  0.67739423  0.19837781  1  0.106438  0  0.110757  0.115449  0  0.981244  0
H  H7  1  0.30720985  0.70526021  0.92735800  1  0.069954  0  0.106141  0.107097  0  0.989426  0
H  H8  1  0.80976849  0.28151050  0.93066292  1  0.04729  0  0.102582  0.104236  0  0.992894  0
H  H9  1  0.74803670  0.30070523  0.79535706  1  0.068301  0  0.105798  0.111603  0  0.995374  0
H  H10  1  0.48538219  0.52806706  0.80004089  1  0.09563  0  0.105816  0.109347  0  1.027708  0
H  H11  1  0.41151145  0.61081511  0.85407591  1  0.056245  0  0.107432  0.110498  0  1.005842  0
H  H12  1  0.26758892  0.72764295  0.05093494  1  0.055423  0  0.106601  0.105473  0  0.988155  0
H  H13  1  0.88298460  0.27741851  0.48526610  1  0.12264  0  0.121567  0.138591  0  0.986167  0
H  H14  1  0.19339221  0.28043589  0.51841862  1  0.11449  0  0.10947  0.137297  0  1.022865  0
H  H15  1  0.82867664  0.56407888  0.49347354  1  0.087547  0  0.110507  0.11392  0  1.009448  0
H  H16  1  0.11522501  0.72672021  0.54152836  1  0.099229  0  0.112737  0.11707  0  0.979059  0
H  H17  1  0.87657105  0.65451155  0.51190378  1  0.079122  0  0.106414  0.105515  0  1.008407  0
H  H18  1  0.94050335  0.76767579  0.53359817  1  0.075977  0  0.109322  0.107377  0  0.9806  0
H  H19  1  0.38291994  0.89761025  0.30780901  1  0.092147  0  0.107403  0.111469  0  0.991025  0
H  H20  1  0.36400655  0.20958277  0.30919978  1  0.051236  0  0.107722  0.107818  0  0.984632  0
H  H21  1  0.35389936  0.07642459  0.27238482  1  0.056003  0  0.105719  0.104793  0  0.990239  0
H  H22  1  0.48388430  0.83533037  0.54977892  1  0.066359  0  0.105416  0.108294  0  1.019227  0
H  H23  1  0.59442979  0.10468340  0.66957096  1  0.110076  0  0.110044  0.114544  0  0.98901  0
H  H24  1  0.54081683  0.87638719  0.62144894  1  0.081328  0  0.106219  0.104663  0  1.006734  0
H  H25  1  0.60853640  0.92929324  0.71260753  1  0.064529  0  0.10639  0.104698  0  0.986375  0
H  H26  1  0.41718542  0.26660257  0.40441469  1  0.0955  0  0.101189  0.113792  0  1.029004  0
H  H27  1  0.31207999  0.33512933  0.54082648  1  0.631253  0  0.323725  0.368696  0  0.90616  0
H  H28  1  0.66731367  0.49473506  0.14288831  1  0.617344  0  0.324674  0.356704  0  0.912325  0
C  C29  1  0.74208276  0.44654380  0.48617001  1  1.562985  0  0.225492  0.608291  0  4.15576  0
C  C30  1  0.24981082  0.57369031  0.52041968  1  1.58067  0  0.228149  0.622441  0  4.166654  0
C  C31  1  0.45065392  0.75134636  0.45377917  1  1.555666  0  0.227273  0.609838  0  4.150842  0
C  C32  1  0.50777629  0.25374585  0.53766086  1  1.54219  0  0.233387  0.617151  0  4.132959  0
C  C33  1  0.46638682  0.54096362  0.29204047  1  1.568799  0  0.231408  0.617326  0  4.150142  0
C  C34  1  0.57556985  0.43317446  0.70848422  1  1.54423  0  0.224714  0.608463  0  4.16508  0
C  C35  1  0.61252678  0.41720789  0.79050985  1  0.032726  0  -0.029898  -0.060081  0  4.017563  0
C  C36  1  0.44697169  0.57080985  0.20354248  1  -0.007063  0  -0.015617  -0.009799  0  3.996458  0
C  C37  1  0.73831447  0.33536810  0.90225770  1  0.001308  0  -0.093124  -0.142438  0  3.997678  0
C  C38  1  0.70469558  0.34577060  0.82743349  1  -0.059909  0  -0.086445  -0.090258  0  4.007675  0
C  C39  1  0.55589013  0.47497362  0.83062846  1  -0.081165  0  -0.077925  -0.120839  0  3.939212  0
C  C40  1  0.58765470  0.46491703  0.90766928  1  -0.026042  0  -0.010238  0.01271  0  3.966844  0
C  C41  1  0.68173619  0.39437664  0.94389974  1  0.047899  0  -0.004311  0.103975  0  4.052759  0
C  C42  1  0.52858640  0.52195031  0.95155966  1  0.000509  0  0.000994  0.057252  0  3.972406  0
C  C43  1  0.56217224  0.50626313  0.03073182  1  -0.022826  0  -0.014652  -0.098134  0  3.938884  0
C  C44  1  0.66158589  0.44475902  0.05930712  1  0.41004  0  0.083449  0.278364  0  4.072478  0
C  C45  1  0.71741677  0.38866842  0.01861336  1  0.045664  0  -0.1085  -0.271129  0  3.971807  0
C  C46  1  0.43585811  0.59544762  0.91577370  1  -0.029856  0  -0.088999  -0.124562  0  4.018843  0
C  C47  1  0.37717589  0.64813130  0.95647458  1  -0.010029  0  -0.089876  -0.132739  0  4.029698  0
C  C48  1  0.40372450  0.62616534  0.03864098  1  -0.079975  0  -0.007534  0.077334  0  4.015317  0
C  C49  1  0.49625093  0.55295497  0.07763867  1  0.025804  0  -0.00272  0.05046  0  3.952527  0
C  C50  1  0.33706018  0.67179725  0.08266502  1  -0.078372  0  -0.083576  -0.121472  0  3.997896  0
C  C51  1  0.35717645  0.64436194  0.16403099  1  0.004191  0  -0.085978  -0.10559  0  4.005781  0
C  C52  1  0.51468753  0.52657280  0.16156706  1  -0.036471  0  -0.093366  -0.187019  0  3.97217  0
C  C53  1  0.00486197  0.31246174  0.49059051  1  0.131373  0  0.074525  0.014918  0  3.887453  0
C  C54  1  0.84559287  0.42417059  0.48936751  1  -0.026216  0  -0.020732  -0.036541  0  4.0141  0
C  C55  1  0.08716441  0.67407590  0.53607122  1  -0.026483  0  -0.079206  -0.096805  0  3.979595  0
C  C56  1  0.98896958  0.69728031  0.53058200  1  0.009652  0  -0.08627  -0.076924  0  4.04392  0
C  C57  1  0.95327301  0.63282018  0.51870429  1  -0.131514  0  -0.084153  -0.125377  0  3.984805  0
C  C58  1  0.01426168  0.54017944  0.51573592  1  0.029218  0  0.003151  0.052137  0  3.957617  0
C  C59  1  0.11420045  0.51469165  0.52551015  1  0.061913  0  -0.001161  -0.036713  0  3.91623  0
C  C60  1  0.97814875  0.47112063  0.50350432  1  0.043636  0  -0.003698  0.018408  0  3.950607  0
C  C61  1  0.04414508  0.37834024  0.50071665  1  0.011546  0  0.007789  0.076235  0  3.994262  0
C  C62  1  0.14313028  0.35283627  0.51582562  1  0.046821  0  -0.116158  -0.299017  0  4.004153  0
C  C63  1  0.17654384  0.41598563  0.53183054  1  0.463433  0  0.096089  0.306649  0  4.066483  0
C  C64  1  0.88029240  0.49295391  0.49455687  1  -0.035942  0  -0.066217  -0.109585  0  3.921024  0
C  C65  1  0.90891018  0.33215779  0.48895401  1  0.092792  0  -0.068709  -0.125103  0  3.953879  0
C  C66  1  0.14929912  0.58527916  0.53116738  1  -0.023039  0  -0.006016  -0.04109  0  3.911323  0
C  C67  1  0.38409898  0.02297330  0.33289801  1  -0.047073  0  -0.085682  -0.129171  0  3.992928  0
C  C68  1  0.43425284  0.85776157  0.43178606  1  0.048857  0  -0.019515  -0.034534  0  4.001724  0
C  C69  1  0.56251754  0.08113883  0.63036068  1  -0.041616  0  -0.082161  -0.085896  0  3.995172  0
C  C70  1  0.57076572  0.98286940  0.65403537  1  -0.006503  0  -0.093497  -0.091231  0  4.060058  0
C  C71  1  0.53214212  0.95361498  0.60244990  1  -0.056489  0  -0.07947  -0.111224  0  3.983096  0
C  C72  1  0.48417706  0.02076170  0.52565207  1  -0.046193  0  -3e-06  0.033501  0  3.936556  0
C  C73  1  0.47296427  0.12231176  0.50166872  1  0.006418  0  0.000118  0.063207  0  3.954195  0
C  C74  1  0.45003257  0.98792477  0.46946622  1  -0.046471  0  -6.7e-05  0.035001  0  3.943086  0
C  C75  1  0.40949792  0.05642145  0.39014523  1  0.014865  0  -0.000621  0.084592  0  4.009849  0
C  C76  1  0.39734807  0.15738104  0.36943540  1  -0.036838  0  -0.082864  -0.115078  0  4.005403  0
C  C77  1  0.42711059  0.18925178  0.42250961  1  -0.057013  0  -0.094911  -0.136203  0  4.005984  0
C  C78  1  0.45761497  0.88958520  0.48925545  1  0.001883  0  -0.076892  -0.1335  0  3.935098  0
C  C79  1  0.39900942  0.92464278  0.35226126  1  -0.058733  0  -0.083563  -0.092776  0  4.001871  0
C  C80  1  0.51316693  0.15084335  0.55621130  1  -0.019582  0  -0.020012  -0.101541  0  3.950739  0
N  N81  1  0.06479208  0.21814739  0.48196346  1  0.366681  0  0.052612  0.518987  0  4.19708  0
O  O82  1  0.49668156  0.49744140  0.50271629  1  -1.235026  0  -0.577517  -1.0359  0  2.55714  0
O  O83  1  0.71832061  0.37277024  0.51574278  1  -1.178442  0  -0.316987  -0.549961  0  2.293657  0
O  O84  1  0.29666566  0.58675720  0.57102203  1  -1.153086  0  -0.311045  -0.540917  0  2.288305  0
O  O85  1  0.47343310  0.71522032  0.39876905  1  -1.174177  0  -0.320568  -0.553018  0  2.303636  0
O  O86  1  0.43188454  0.32712235  0.49529753  1  -1.187936  0  -0.307849  -0.567241  0  2.382917  0
O  O87  1  0.53875173  0.54834469  0.31964115  1  -1.170232  0  -0.318858  -0.551775  0  2.284561  0
O  O88  1  0.62702992  0.37367727  0.67561668  1  -1.177009  0  -0.321562  -0.557302  0  2.322245  0
O  O89  1  0.40658722  0.51272671  0.33215621  1  -1.166858  0  -0.310989  -0.538908  0  2.309821  0
O  O90  1  0.49550609  0.50535137  0.67685794  1  -1.192559  0  -0.321281  -0.55479  0  2.347744  0
O  O91  1  0.44216680  0.70422249  0.52531238  1  -1.17956  0  -0.318058  -0.552668  0  2.307967  0
O  O92  1  0.57868853  0.26121745  0.56710521  1  -1.165181  0  -0.306834  -0.53311  0  2.336334  0
O  O93  1  0.68465817  0.53789701  0.45440707  1  -1.168974  0  -0.318582  -0.548613  0  2.288716  0
O  O94  1  0.27787262  0.55829225  0.45728663  1  -1.173804  0  -0.328291  -0.567234  0  2.336981  0
O  O95  1  0.13912630  0.21281247  0.45164170  1  -0.456364  0  -0.145478  -0.347831  0  1.900599  0
O  O96  1  0.03650635  0.14960124  0.50390749  1  -0.459402  0  -0.152199  -0.350871  0  1.858362  0
O  O97  1  0.26937239  0.38733020  0.55846189  1  -1.141887  0  -0.343908  -0.442655  0  2.357189  0
O  O98  1  0.70670435  0.43998014  0.12703922  1  -1.126293  0  -0.357672  -0.439455  0  2.256176  0
