# generated using pymatgen
data_MnH13C19NCl2O5
_symmetry_space_group_name_H-M   'P 1'
_cell_length_a   7.32916497
_cell_length_b   9.52994431
_cell_length_c   14.31422098
_cell_angle_alpha   109.43758118
_cell_angle_beta   89.99917571
_cell_angle_gamma   90.00317364
_symmetry_Int_Tables_number   1
_chemical_formula_structural   MnH13C19NCl2O5
_chemical_formula_sum   'Mn2 H26 C38 N2 Cl4 O10'
_cell_volume   942.81477837
_cell_formula_units_Z   2
loop_
 _symmetry_equiv_pos_site_id
 _symmetry_equiv_pos_as_xyz
  1  'x, y, z'
loop_
 _atom_site_type_symbol
 _atom_site_label
 _atom_site_symmetry_multiplicity
 _atom_site_fract_x
 _atom_site_fract_y
 _atom_site_fract_z
 _atom_site_occupancy
 _atom_site_hle17_ddec_charge
 _atom_site_hle17_ddec_spin_density
 _atom_site_hle17_ddec_sum_bond_order
 _atom_site_hle17_magmom
 _atom_site_hse06_10hf_ddec_charge
 _atom_site_hse06_10hf_ddec_spin_density
 _atom_site_hse06_10hf_ddec_sum_bond_order
 _atom_site_hse06_10hf_magmom
 _atom_site_hse06_ddec_charge
 _atom_site_hse06_ddec_spin_density
 _atom_site_hse06_ddec_sum_bond_order
 _atom_site_hse06_magmom
 _atom_site_pbe_cm5_charge
 _atom_site_pbe_ddec_charge
 _atom_site_pbe_ddec_spin_density
 _atom_site_pbe_ddec_sum_bond_order
 _atom_site_pbe_magmom
Mn  Mn0  1  0.00000119  0.49999619  0.99999500  1  1.226015  -4.753544  1.854773  -4.661  1.088768  -4.640193  2.374352  -4.497  1.138669  -4.712071  2.296265  -4.581  0.610815  1.053789  -4.550363  2.431116  -4.398
Mn  Mn1  1  0.49999676  0.49999530  0.99999774  1  1.225963  4.753544  1.854988  4.661  1.088738  4.640152  2.374562  4.497  1.13863  4.712046  2.29648  4.581  0.610824  1.053766  4.550307  2.431332  4.398
H  H2  1  0.04190875  0.40377388  0.26644674  1  0.095298  0.000162  0.959944  0.0  0.103828  0.000192  1.023383  0.0  0.107233  0.000203  1.020652  0.0  0.101021  0.101363  0.000182  1.025448  0.0
H  H3  1  0.54190610  0.59622660  0.73354182  1  0.095466  -0.000152  0.959835  0.0  0.103982  -0.000192  1.023273  0.0  0.107388  -0.000203  1.020539  0.0  0.101084  0.101516  -0.000182  1.025335  0.0
H  H4  1  0.45806894  0.13661123  0.73320741  1  0.095037  -0.000159  0.961119  0.0  0.104294  -0.000189  1.023586  0.0  0.10764  -0.0002  1.020955  0.0  0.101178  0.101885  -0.00018  1.025549  0.0
H  H5  1  0.95808903  0.86338255  0.26678690  1  0.094899  0.000157  0.961146  0.0  0.104166  0.00019  1.023634  0.0  0.107515  0.0002  1.020999  0.0  0.101158  0.101758  0.00018  1.025599  0.0
H  H6  1  0.95809539  0.59622937  0.73354920  1  0.095332  0.000152  0.959962  0.0  0.103868  0.000192  1.023387  0.0  0.107274  0.000203  1.020655  0.0  0.101039  0.101401  0.000182  1.025449  0.0
H  H7  1  0.45809805  0.40377884  0.26646229  1  0.095433  -0.000156  0.959888  0.0  0.103959  -0.000192  1.023314  0.0  0.107365  -0.000203  1.020581  0.0  0.101103  0.101493  -0.000182  1.025379  0.0
H  H8  1  0.54192975  0.86339087  0.26679596  1  0.095009  -0.000152  0.961068  0.0  0.104276  -0.000189  1.023543  0.0  0.107623  -0.0002  1.020911  0.0  0.101193  0.101868  -0.00018  1.025508  0.0
H  H9  1  0.04190693  0.13661623  0.73321224  1  0.094942  0.00016  0.961062  0.0  0.104209  0.00019  1.023549  0.0  0.107558  0.0002  1.020913  0.0  0.101194  0.1018  0.00018  1.025512  0.0
H  H10  1  0.04382209  0.36110333  0.43019478  1  0.103356  3.3e-05  0.968869  0.0  0.110138  4.1e-05  1.036348  0.0  0.113241  3.1e-05  1.03528  0.0  0.093885  0.107931  5.4e-05  1.037173  0.0
H  H11  1  0.54381448  0.63889947  0.56979289  1  0.103311  -3.3e-05  0.968894  0.0  0.110117  -4.1e-05  1.036394  0.0  0.113218  -3.1e-05  1.035328  0.0  0.093911  0.107917  -5.4e-05  1.037211  0.0
H  H12  1  0.45620610  0.93007304  0.56956417  1  0.102952  -3e-05  0.969206  0.0  0.10981  -4.1e-05  1.036677  0.0  0.112846  -3.1e-05  1.035695  0.0  0.093632  0.107608  -5.4e-05  1.037476  0.0
H  H13  1  0.95622565  0.06991843  0.43043243  1  0.102988  3.7e-05  0.969367  0.0  0.109895  4.1e-05  1.036774  0.0  0.112879  3e-05  1.035849  0.0  0.093681  0.107688  5.4e-05  1.037577  0.0
H  H14  1  0.95619160  0.63890214  0.56980166  1  0.103466  3.7e-05  0.968774  0.0  0.110254  4.1e-05  1.036236  0.0  0.113357  3.1e-05  1.035167  0.0  0.093911  0.108048  5.4e-05  1.037061  0.0
H  H15  1  0.45620058  0.36111042  0.43021222  1  0.103468  -2.9e-05  0.968806  0.0  0.110217  -4.1e-05  1.036318  0.0  0.113323  -3.1e-05  1.035251  0.0  0.09394  0.108017  -5.4e-05  1.037134  0.0
H  H16  1  0.54378713  0.06992683  0.43044010  1  0.102911  -2.8e-05  0.969167  0.0  0.109798  -4.1e-05  1.036664  0.0  0.112847  -3.1e-05  1.035678  0.0  0.093639  0.10761  -5.4e-05  1.037419  0.0
H  H17  1  0.04376621  0.93007811  0.56956900  1  0.102904  3.2e-05  0.969435  0.0  0.109838  4.1e-05  1.036809  0.0  0.112815  3e-05  1.035895  0.0  0.093649  0.107642  5.4e-05  1.0376  0.0
H  H18  1  0.74999136  0.68458890  0.84753011  1  0.119052  6e-06  0.932288  0.0  0.127568  -0.0  0.993585  0.0  0.131707  -0.0  0.987893  0.0  0.138049  0.12401  -0.0  0.998539  0.0
H  H19  1  0.25000323  0.31540542  0.15247082  1  0.119116  4e-06  0.93214  0.0  0.127583  -0.0  0.993463  0.0  0.13172  0.0  0.987775  0.0  0.138016  0.124032  -0.0  0.998416  0.0
H  H20  1  0.74999363  0.83666202  0.15190025  1  0.118687  1.3e-05  0.931983  0.0  0.126552  -0.0  0.994111  0.0  0.130674  -0.0  0.988465  0.0  0.138295  0.123013  -0.0  0.998995  0.0
H  H21  1  0.25000642  0.16333786  0.84810122  1  0.118685  0.0  0.932024  0.0  0.126547  -0.0  0.994146  0.0  0.130669  -0.0  0.988503  0.0  0.138303  0.123011  -0.0  0.999024  0.0
H  H22  1  0.74999858  0.16263433  0.99975406  1  0.118172  -9e-06  0.956564  0.0  0.122625  0.0  1.023536  0.0  0.126705  0.0  1.019866  0.0  0.113767  0.119299  0.0  1.026608  0.0
H  H23  1  0.24999738  0.83736223  0.00024388  1  0.118168  7e-06  0.956528  0.0  0.122619  0.0  1.023501  0.0  0.126697  0.0  1.019832  0.0  0.113756  0.119291  0.0  1.026568  0.0
H  H24  1  0.74999917  0.94700688  0.83958251  1  0.11165  -5e-06  0.955078  0.0  0.121134  -0.0  1.010457  0.0  0.123487  -0.0  1.011809  0.0  0.110366  0.119104  -0.0  1.010099  0.0
H  H25  1  0.24999270  0.05298633  0.16041608  1  0.111624  -3e-06  0.955119  0.0  0.121083  0.0  1.010528  0.0  0.123437  -0.0  1.011878  0.0  0.110342  0.119054  -0.0  1.010169  0.0
H  H26  1  0.74999560  0.10703108  0.15988230  1  0.110728  7e-06  0.954111  0.0  0.120403  0.0  1.009621  0.0  0.122723  -0.0  1.010995  0.0  0.109678  0.118411  -0.0  1.009234  0.0
H  H27  1  0.25000582  0.89296770  0.84011683  1  0.110756  1e-06  0.95406  0.0  0.120419  -0.0  1.00959  0.0  0.122739  0.0  1.010965  0.0  0.109677  0.118425  -0.0  1.009197  0.0
C  C28  1  0.75000507  0.41845873  0.15430503  1  0.662435  -1.3e-05  3.897252  0.0  0.617268  2e-06  4.184098  0.0  0.651692  1e-06  4.178048  0.0  0.220755  0.593666  1e-06  4.186712  0.0
C  C29  1  0.24999498  0.58154117  0.84569226  1  0.66244  0.0  3.897085  0.0  0.61726  -1e-06  4.18395  0.0  0.651684  -1e-06  4.177898  0.0  0.220753  0.593649  -0.0  4.186572  0.0
C  C30  1  0.74999596  0.26406347  0.84525698  1  0.657374  -4e-06  3.900507  0.0  0.612656  -1e-06  4.187019  0.0  0.646996  1e-06  4.181157  0.0  0.219769  0.589204  -1e-06  4.189394  0.0
C  C31  1  0.25000409  0.73593531  0.15474006  1  0.657265  3e-06  3.900741  0.0  0.61254  0.0  4.187267  0.0  0.646877  -2e-06  4.181419  0.0  0.219755  0.589089  -0.0  4.189644  0.0
C  C32  1  0.75000314  0.40170726  0.25512409  1  -0.078883  -1.8e-05  3.757524  0.0  -0.057717  3e-06  3.988672  0.0  -0.064632  -1e-06  4.009966  0.0  -0.025429  -0.053461  0.0  3.97446  0.0
C  C33  1  0.25000100  0.59829708  0.74487558  1  -0.078724  7e-06  3.757463  0.0  -0.057541  1.4e-05  3.988591  0.0  -0.064457  3e-06  4.009886  0.0  -0.02528  -0.053282  0.0  3.974372  0.0
C  C34  1  0.74999186  0.14607485  0.74456285  1  -0.076153  2.5e-05  3.755315  0.0  -0.054993  6e-06  3.986164  0.0  -0.061862  -7e-06  4.007443  0.0  -0.025129  -0.050783  0.0  3.971953  0.0
C  C35  1  0.25000682  0.85392504  0.25543723  1  -0.076064  -1e-06  3.755324  0.0  -0.054924  1e-06  3.986195  0.0  -0.061795  -1e-06  4.007482  0.0  -0.025124  -0.050717  0.0  3.97199  0.0
C  C36  1  0.75001003  0.35584351  0.43767376  1  0.130458  4.9e-05  3.798369  0.0  0.14355  1e-06  4.060701  0.0  0.147464  1e-06  4.082001  0.0  0.009211  0.140638  0.0  4.046336  0.0
C  C37  1  0.25000366  0.64416973  0.56232930  1  0.130692  -1.3e-05  3.798074  0.0  0.143711  6e-06  4.060518  0.0  0.147624  -9e-06  4.081819  0.0  0.009195  0.140795  -0.0  4.046159  0.0
C  C38  1  0.74998411  0.91722915  0.56212514  1  0.131322  -4.7e-05  3.799182  0.0  0.144733  1e-06  4.061148  0.0  0.148673  1e-06  4.082415  0.0  0.009467  0.14183  -0.0  4.04673  0.0
C  C39  1  0.25001048  0.08276627  0.43787814  1  0.131313  -6e-06  3.799139  0.0  0.144778  -1e-06  4.061032  0.0  0.148716  -0.0  4.082302  0.0  0.009448  0.141874  -1e-06  4.046612  0.0
C  C40  1  0.91472216  0.39168535  0.30223672  1  -0.055343  0.000567  3.748191  0.0  -0.078109  0.000693  3.997829  0.0  -0.077198  0.000562  4.017066  0.0  -0.08719  -0.078387  0.000832  3.984574  0.001
C  C41  1  0.41471378  0.60831648  0.69775762  1  -0.055522  -0.000582  3.748209  0.0  -0.07828  -0.000699  3.997861  0.0  -0.077369  -0.000569  4.017096  0.0  -0.087247  -0.078559  -0.000832  3.984606  -0.001
C  C42  1  0.58532646  0.08881422  0.69748574  1  -0.055166  -0.000564  3.748045  0.0  -0.078352  -0.000686  3.997666  0.0  -0.07742  -0.00055  4.016975  0.0  -0.086735  -0.078613  -0.000765  3.984317  -0.001
C  C43  1  0.08534685  0.91118040  0.30251235  1  -0.05494  0.000547  3.747936  0.0  -0.078117  0.000682  3.997577  0.0  -0.077184  0.000556  4.016873  0.0  -0.086659  -0.078379  0.000764  3.984226  0.001
C  C44  1  0.08528608  0.60832011  0.69776181  1  -0.055309  0.000554  3.748253  0.0  -0.078069  0.000688  3.997868  0.0  -0.077157  0.000556  4.017105  0.0  -0.087179  -0.078346  0.000832  3.984607  0.001
C  C45  1  0.58529445  0.39168452  0.30224271  1  -0.055372  -0.00052  3.74829  0.0  -0.07812  -0.000697  3.997913  0.0  -0.077208  -0.000562  4.01715  0.0  -0.087219  -0.078399  -0.000831  3.984661  -0.001
C  C46  1  0.41466677  0.91118566  0.30251574  1  -0.055162  -0.000548  3.748103  0.0  -0.078365  -0.000683  3.997774  0.0  -0.077434  -0.000553  4.01709  0.0  -0.086772  -0.078628  -0.000765  3.984429  -0.001
C  C47  1  0.91464774  0.08881614  0.69748698  1  -0.05494  0.000509  3.747827  0.0  -0.078134  0.00068  3.997468  0.0  -0.077198  0.000558  4.016759  0.0  -0.08669  -0.078396  0.000764  3.984117  0.001
C  C48  1  0.91621554  0.36850282  0.39323316  1  -0.147205  -1.2e-05  3.78614  0.0  -0.16832  4.5e-05  4.039797  0.0  -0.172897  4.7e-05  4.061856  0.0  -0.104005  -0.16499  3.1e-05  4.024634  0.0
C  C49  1  0.41621256  0.63149908  0.60676188  1  -0.147264  -8e-06  3.786018  0.0  -0.168395  -4.9e-05  4.039663  0.0  -0.172971  -3.9e-05  4.06172  0.0  -0.104043  -0.165071  -3.1e-05  4.024512  0.0
C  C50  1  0.58380967  0.97439459  0.60657930  1  -0.147982  2e-06  3.784557  0.0  -0.169529  -4.8e-05  4.038847  0.0  -0.174031  -5.2e-05  4.060851  0.0  -0.104478  -0.166213  -4.8e-05  4.023703  0.0
C  C51  1  0.08383328  0.02559439  0.39342104  1  -0.148169  1.6e-05  3.784672  0.0  -0.169785  4.8e-05  4.038968  0.0  -0.174243  5e-05  4.060986  0.0  -0.104575  -0.166461  4.9e-05  4.023814  0.0
C  C52  1  0.08379406  0.63150153  0.60676512  1  -0.147567  3.4e-05  3.786176  0.0  -0.16868  4.1e-05  4.039868  0.0  -0.173258  5.7e-05  4.061927  0.0  -0.104126  -0.16535  3.1e-05  4.02471  0.0
C  C53  1  0.58379977  0.36851081  0.39324113  1  -0.147424  -7.7e-05  3.786263  0.0  -0.168526  -4.4e-05  4.039899  0.0  -0.173108  -4.9e-05  4.061954  0.0  -0.104058  -0.165199  -3.1e-05  4.024743  0.0
C  C54  1  0.41617947  0.02559972  0.39342303  1  -0.147924  -3.4e-05  3.784614  0.0  -0.16953  -4.6e-05  4.038874  0.0  -0.174047  -5.1e-05  4.060868  0.0  -0.104475  -0.166212  -4.8e-05  4.023748  0.0
C  C55  1  0.91616131  0.97440104  0.60657945  1  -0.148088  7e-05  3.784601  0.0  -0.169696  4.6e-05  4.038893  0.0  -0.174151  4.9e-05  4.060919  0.0  -0.104558  -0.166387  4.9e-05  4.023742  0.0
C  C56  1  0.74999259  0.78450180  0.91199144  1  0.037573  -3.6e-05  3.576795  0.0  -0.010864  7e-06  3.840658  0.0  0.000405  3e-06  3.848961  0.0  0.055481  -0.019352  8e-06  3.837476  0.0
C  C57  1  0.24999928  0.21549362  0.08801044  1  0.037571  -3.6e-05  3.576571  0.0  -0.010693  5e-06  3.84023  0.0  0.000575  -3e-06  3.848529  0.0  0.055606  -0.019189  4e-06  3.837072  0.0
C  C58  1  0.75000117  0.87217135  0.08745629  1  0.040273  -4.4e-05  3.576221  0.0  -0.007499  9e-06  3.840049  0.0  0.003776  3e-06  3.848327  0.0  0.055254  -0.015982  9e-06  3.836893  0.0
C  C59  1  0.24999888  0.12782964  0.91254543  1  0.040318  -2.2e-05  3.576221  0.0  -0.007437  6e-06  3.840053  0.0  0.003836  -1e-06  3.848334  0.0  0.055307  -0.015923  6e-06  3.836899  0.0
C  C60  1  0.74999873  0.04845871  0.99974872  1  -0.008478  2.1e-05  3.680049  0.0  -0.041711  8e-06  3.942621  0.0  -0.033438  6e-06  3.956716  0.0  -0.070961  -0.048592  1.3e-05  3.934947  0.0
C  C61  1  0.24999996  0.95153784  0.00024992  1  -0.008507  -4.3e-05  3.680012  0.0  -0.041735  7e-06  3.942585  0.0  -0.033462  -1e-06  3.956681  0.0  -0.070977  -0.048611  9e-06  3.934898  0.0
C  C62  1  0.74999623  0.92899649  0.91079196  1  -0.10204  2.4e-05  3.75206  0.0  -0.108707  -1e-06  4.007002  0.0  -0.116644  -1e-06  4.026555  0.0  -0.077465  -0.103995  -2e-06  3.996078  0.0
C  C63  1  0.24999700  0.07099783  0.08920758  1  -0.101984  3.8e-05  3.752003  0.0  -0.10868  -3e-06  4.006903  0.0  -0.116616  2e-06  4.026455  0.0  -0.077424  -0.103968  -1e-06  3.995983  0.0
C  C64  1  0.74999483  0.01783266  0.08865999  1  -0.102303  -1.4e-05  3.749232  0.0  -0.109259  -1e-06  4.004448  0.0  -0.117144  -2e-06  4.024011  0.0  -0.076765  -0.10458  -2e-06  3.993521  0.0
C  C65  1  0.25000386  0.98216611  0.91133914  1  -0.102314  2.8e-05  3.7492  0.0  -0.109284  -2e-06  4.004417  0.0  -0.11717  3e-06  4.02398  0.0  -0.076771  -0.104601  -1e-06  3.993481  0.0
N  N66  1  0.74999597  0.75856449  0.99972461  1  0.290232  2.3e-05  3.629674  0.0  0.340504  4e-06  3.888706  0.0  0.340091  4e-06  3.909652  0.0  -0.103993  0.338708  4e-06  3.874862  0.0
N  N67  1  0.24999862  0.24143317  0.00027707  1  0.290209  1.9e-05  3.629635  0.0  0.340388  1e-06  3.888682  0.0  0.339978  1e-06  3.909625  0.0  -0.104117  0.33859  2e-06  3.874856  0.0
Cl  Cl68  1  0.75001698  0.32401173  0.55013133  1  -0.085208  2e-06  1.388313  0.0  -0.064114  -0.0  1.622423  0.0  -0.069055  -0.0  1.620557  0.0  0.019748  -0.060568  0.0  1.624349  0.0
Cl  Cl69  1  0.25000081  0.67599261  0.44986835  1  -0.085259  -2e-06  1.388253  0.0  -0.064144  0.0  1.622379  0.0  -0.069084  -1e-06  1.62051  0.0  0.019775  -0.060592  -0.0  1.624312  0.0
Cl  Cl70  1  0.74998335  0.77295151  0.44968857  1  -0.085064  -1e-06  1.388811  0.0  -0.064261  0.0  1.623299  0.0  -0.069233  0.0  1.621445  0.0  0.019569  -0.060706  -0.0  1.625169  0.0
Cl  Cl71  1  0.25000851  0.22704836  0.55031430  1  -0.085098  3e-06  1.388724  0.0  -0.064312  -0.0  1.623177  0.0  -0.069284  -0.0  1.621324  0.0  0.019524  -0.060758  -0.0  1.625045  0.0
O  O72  1  0.90472868  0.42248973  0.11486060  1  -0.655161  -0.028711  2.064842  -0.015  -0.599027  -0.032975  2.337414  -0.016  -0.628583  -0.030663  2.323962  -0.014  -0.311861  -0.576892  -0.035214  2.345687  -0.018
O  O73  1  0.40473909  0.57749718  0.88513259  1  -0.655355  0.02872  2.064211  0.015  -0.599217  0.032977  2.336795  0.016  -0.628779  0.030666  2.323348  0.014  -0.312056  -0.577078  0.035218  2.345065  0.018
O  O74  1  0.59521805  0.30764990  0.88459987  1  -0.652975  0.028655  2.062916  0.015  -0.59736  0.033014  2.335279  0.016  -0.626821  0.03068  2.321821  0.014  -0.311468  -0.575257  0.035417  2.343449  0.019
O  O75  1  0.09522832  0.69235521  0.11539420  1  -0.652974  -0.028643  2.062699  -0.015  -0.597338  -0.033009  2.335066  -0.016  -0.62679  -0.030673  2.321596  -0.014  -0.311459  -0.575238  -0.035411  2.343246  -0.019
O  O76  1  0.09527001  0.57751240  0.88513579  1  -0.655148  -0.028705  2.064713  -0.015  -0.59902  -0.03297  2.337305  -0.016  -0.628578  -0.030655  2.323855  -0.014  -0.311875  -0.576885  -0.035211  2.345574  -0.018
O  O77  1  0.59525823  0.42249603  0.11486600  1  -0.655347  0.028725  2.064329  0.015  -0.599206  0.032978  2.336881  0.016  -0.628767  0.030667  2.323432  0.014  -0.312038  -0.577067  0.035218  2.345152  0.018
O  O78  1  0.40478063  0.69234664  0.11540087  1  -0.65286  0.02864  2.062997  0.015  -0.597225  0.033008  2.335333  0.016  -0.626679  0.030674  2.321868  0.014  -0.311387  -0.575124  0.035411  2.343512  0.019
O  O79  1  0.90477310  0.30765138  0.88459969  1  -0.653005  -0.028652  2.062701  -0.015  -0.597378  -0.033014  2.335056  -0.016  -0.626839  -0.03068  2.321597  -0.014  -0.311467  -0.575273  -0.035417  2.343219  -0.019
O  O80  1  0.74999796  0.61867532  0.99976978  1  -0.581223  1.7e-05  1.984435  0.0  -0.521181  -4e-06  2.28231  0.0  -0.548858  -0.0  2.267743  0.0  -0.218341  -0.500342  -1e-06  2.292799  0.0
O  O81  1  0.24999254  0.38132455  0.00023588  1  -0.581355  4e-06  1.984606  0.0  -0.521239  -5e-06  2.28244  0.0  -0.548922  -1e-06  2.267878  0.0  -0.218326  -0.500381  -5e-06  2.292889  0.0
