# generated using pymatgen
data_CoH22C28N4(O5F4)2
_symmetry_space_group_name_H-M   'P 1'
_cell_length_a   9.54667803
_cell_length_b   10.84175991
_cell_length_c   10.96641033
_cell_angle_alpha   114.61532029
_cell_angle_beta   116.23932037
_cell_angle_gamma   93.83352727
_symmetry_Int_Tables_number   1
_chemical_formula_structural   CoH22C28N4(O5F4)2
_chemical_formula_sum   'Co1 H22 C28 N4 O10 F8'
_cell_volume   880.63094336
_cell_formula_units_Z   1
loop_
 _symmetry_equiv_pos_site_id
 _symmetry_equiv_pos_as_xyz
  1  'x, y, z'
loop_
 _atom_site_type_symbol
 _atom_site_label
 _atom_site_symmetry_multiplicity
 _atom_site_fract_x
 _atom_site_fract_y
 _atom_site_fract_z
 _atom_site_occupancy
 _atom_site_pbe_cm5_charge
 _atom_site_pbe_ddec_charge
 _atom_site_pbe_ddec_spin_density
 _atom_site_pbe_ddec_sum_bond_order
 _atom_site_pbe_magmom
Co  Co0  1  0.50001049  0.49999629  0.50000593  1  0.716019  1.019403  0.039577  2.939078  0.019
H  H1  1  0.40610079  0.69562088  0.58618765  1  0.297233  0.369654  1e-05  0.978163  0.0
H  H2  1  0.59389566  0.30436421  0.41379839  1  0.297243  0.369574  1.2e-05  0.978305  0.0
H  H3  1  0.30805850  0.60833099  0.39294776  1  0.298921  0.372725  -9e-06  0.969782  0.0
H  H4  1  0.69194264  0.39163769  0.60703781  1  0.29898  0.372777  -1e-05  0.969741  0.0
H  H5  1  0.06003403  0.36796540  0.15316332  1  0.100288  0.155006  0.009011  1.014805  0.009
H  H6  1  0.93992915  0.63201793  0.84681108  1  0.100309  0.154937  0.008979  1.014631  0.009
H  H7  1  0.96156844  0.47899961  0.08816035  1  0.101862  0.152463  0.007368  1.005544  0.007
H  H8  1  0.03842004  0.52099357  0.91181748  1  0.101826  0.152435  0.007337  1.005546  0.007
H  H9  1  0.95740445  0.31461278  0.94946951  1  0.105243  0.16755  -0.000195  0.981745  0.0
H  H10  1  0.04255352  0.68537941  0.05052269  1  0.105189  0.167437  -0.000203  0.981722  0.0
H  H11  1  0.46468207  0.03860559  0.83991243  1  0.121023  0.117353  -0.001474  0.990469  -0.002
H  H12  1  0.53526186  0.96143253  0.16008149  1  0.120964  0.117307  -0.001476  0.990399  -0.002
H  H13  1  0.54301235  0.24516031  0.13828233  1  0.122205  0.126439  -0.001049  1.044561  -0.002
H  H14  1  0.45697210  0.75484321  0.86172628  1  0.122095  0.12623  -0.001051  1.044528  -0.002
H  H15  1  0.74819976  0.49780294  0.32382488  1  0.110113  0.100998  -0.000292  1.017391  0.0
H  H16  1  0.25179471  0.50221093  0.67617653  1  0.110136  0.100985  -0.000295  1.01746  0.0
H  H17  1  0.90264230  0.54569619  0.28854515  1  0.109901  0.091491  -3e-06  0.97222  0.0
H  H18  1  0.09737056  0.45429822  0.71145282  1  0.109916  0.091502  -7e-06  0.972355  0.0
H  H19  1  0.89632630  0.34397170  0.41716312  1  0.093471  0.095172  8.3e-05  0.976506  0.0
H  H20  1  0.10366584  0.65604700  0.58284977  1  0.093371  0.094963  7.5e-05  0.976261  0.0
H  H21  1  0.05740818  0.40225518  0.39513375  1  0.093069  0.100126  5.8e-05  1.002901  0.0
H  H22  1  0.94256527  0.59774749  0.60488887  1  0.093051  0.100031  5.2e-05  1.00257  0.0
C  C23  1  0.32119128  0.21156380  0.25223767  1  0.233253  0.611954  -0.000141  4.136036  0.0
C  C24  1  0.67881210  0.78843103  0.74775167  1  0.233221  0.611985  -0.000144  4.135801  0.0
C  C25  1  0.15560916  0.10336683  0.12346695  1  -0.016035  -0.195532  0.000159  3.998758  0.0
C  C26  1  0.84438168  0.89664081  0.87652756  1  -0.016009  -0.195465  0.000164  3.998955  0.0
C  C27  1  0.11837460  0.03070749  0.96826933  1  0.097613  0.164783  0.003132  4.064604  0.002
C  C28  1  0.88161546  0.96931101  0.03172719  1  0.097587  0.164734  0.003141  4.064511  0.002
C  C29  1  0.96615528  0.92990186  0.84735893  1  0.09938  0.166928  0.001232  4.062033  0.001
C  C30  1  0.03383134  0.07011012  0.15263610  1  0.099456  0.167111  0.001244  4.061706  0.001
C  C31  1  0.57933320  0.44841512  0.75676287  1  0.231807  0.607609  -0.000181  4.153351  0.0
C  C32  1  0.42070808  0.55158472  0.24323941  1  0.231959  0.607896  -0.000183  4.152586  0.0
C  C33  1  0.54053929  0.47057059  0.88294923  1  -0.019153  -0.203891  0.00097  4.010774  0.0
C  C34  1  0.45951270  0.52944822  0.11706837  1  -0.018946  -0.20368  0.000984  4.010771  0.0
C  C35  1  0.40251630  0.38149815  0.85151791  1  0.098376  0.157862  0.008942  4.114778  0.005
C  C36  1  0.59754340  0.61850324  0.14849798  1  0.098384  0.15796  0.00892  4.114527  0.005
C  C37  1  0.63753882  0.58870247  0.03327406  1  0.096601  0.15018  0.02634  4.094988  0.017
C  C38  1  0.36253142  0.41129537  0.96674757  1  0.096547  0.150089  0.026344  4.095039  0.017
C  C39  1  0.95229135  0.36703718  0.05611488  1  -0.234987  -0.48757  0.005811  3.95576  0.0
C  C40  1  0.04769553  0.63296633  0.94387449  1  -0.235117  -0.487641  0.005802  3.955491  0.0
C  C41  1  0.79810260  0.29019228  0.02770828  1  0.229567  0.366872  0.13942  3.910606  0.09
C  C42  1  0.20189320  0.70983431  0.97230133  1  0.229627  0.367095  0.138827  3.911652  0.089
C  C43  1  0.56915123  0.13435725  0.92506234  1  0.027477  0.030119  0.126038  3.956936  0.069
C  C44  1  0.43079952  0.86564367  0.07491035  1  0.02729  0.029966  0.126005  3.956402  0.069
C  C45  1  0.60549099  0.23758421  0.07462553  1  0.029852  -0.060589  0.147923  3.831283  0.083
C  C46  1  0.39448498  0.76243129  0.92538383  1  0.029916  -0.060463  0.147233  3.831918  0.082
C  C47  1  0.83926448  0.46164249  0.29429590  1  -0.057034  -0.062284  -0.000919  3.879377  0.0
C  C48  1  0.16075125  0.53834601  0.70572958  1  -0.057034  -0.06216  -0.000928  3.879215  0.0
C  C49  1  0.96135402  0.43339525  0.41944081  1  -0.165342  -0.165384  0.000296  3.924098  0.0
C  C50  1  0.03863984  0.56658192  0.58056897  1  -0.165341  -0.1654  0.000295  3.923173  0.0
N  N51  1  0.74985856  0.33562913  0.13763672  1  -0.240795  -0.030867  0.003597  3.713337  -0.003
N  N52  1  0.25014570  0.66437404  0.86238055  1  -0.240898  -0.030921  0.003764  3.713208  -0.003
N  N53  1  0.68838397  0.16804324  0.89831013  1  -0.345571  -0.372612  -0.008271  3.214449  -0.01
N  N54  1  0.31152311  0.83196077  0.10166138  1  -0.345707  -0.372934  -0.008351  3.214713  -0.01
O  O55  1  0.31431488  0.33159549  0.34162271  1  -0.283134  -0.499051  0.001347  2.370408  0.001
O  O56  1  0.68570340  0.66840579  0.65839041  1  -0.283088  -0.498965  0.001338  2.370508  0.001
O  O57  1  0.44768238  0.17945312  0.26079879  1  -0.28142  -0.495694  0.002294  2.20461  0.003
O  O58  1  0.55229192  0.82053738  0.73916641  1  -0.281525  -0.495898  0.0023  2.204177  0.003
O  O59  1  0.48214243  0.48606333  0.66152118  1  -0.281758  -0.494003  -5.5e-05  2.37762  0.0
O  O60  1  0.51788067  0.51391980  0.33848340  1  -0.281863  -0.494266  -4.9e-05  2.37759  0.0
O  O61  1  0.69537072  0.40207210  0.75725106  1  -0.275492  -0.472266  0.0004  2.157516  0.0
O  O62  1  0.30465750  0.59792338  0.24274917  1  -0.275561  -0.472353  0.000385  2.156883  0.0
O  O63  1  0.33609861  0.59765790  0.48827409  1  -0.537157  -0.671343  0.000892  2.204982  0.001
O  O64  1  0.66390654  0.40231486  0.51171752  1  -0.537245  -0.671393  0.000891  2.205253  0.001
F  F65  1  0.22986597  0.05824463  0.93116135  1  -0.080469  -0.109459  0.0028  1.422582  0.002
F  F66  1  0.77011928  0.94176119  0.06882577  1  -0.080471  -0.109453  0.002802  1.422548  0.002
F  F67  1  0.93725091  0.86760740  0.69961038  1  -0.081268  -0.099631  9.8e-05  1.379304  0.0
F  F68  1  0.06273993  0.13239698  0.30038353  1  -0.081328  -0.09969  0.000106  1.379226  0.0
F  F69  1  0.30330840  0.26671905  0.70754585  1  -0.078224  -0.094808  0.001049  1.365399  0.001
F  F70  1  0.69674277  0.73329614  0.29245789  1  -0.078146  -0.094799  0.001032  1.365255  0.001
F  F71  1  0.77370017  0.67702133  0.06894315  1  -0.077116  -0.099615  0.004201  1.405453  0.004
F  F72  1  0.22638649  0.32296129  0.93109731  1  -0.077112  -0.099618  0.004201  1.405339  0.004
