# generated using pymatgen
data_H10PbC12(SO2)2
_symmetry_space_group_name_H-M   'P 1'
_cell_length_a   7.97339951
_cell_length_b   10.03076887
_cell_length_c   10.03072704
_cell_angle_alpha   58.56690848
_cell_angle_beta   74.98907194
_cell_angle_gamma   74.98899863
_symmetry_Int_Tables_number   1
_chemical_formula_structural   H10PbC12(SO2)2
_chemical_formula_sum   'H20 Pb2 C24 S4 O8'
_cell_volume   653.64341957
_cell_formula_units_Z   2
loop_
 _symmetry_equiv_pos_site_id
 _symmetry_equiv_pos_as_xyz
  1  'x, y, z'
loop_
 _atom_site_type_symbol
 _atom_site_label
 _atom_site_symmetry_multiplicity
 _atom_site_fract_x
 _atom_site_fract_y
 _atom_site_fract_z
 _atom_site_occupancy
 _atom_site_pbe_bader_spin_density
 _atom_site_pbe_cm5_charge
 _atom_site_pbe_ddec_charge
 _atom_site_pbe_ddec_spin_density
 _atom_site_pbe_ddec_sum_bond_order
 _atom_site_pbe_magmom
H  H0  1  0.51207746  0.34791108  0.74680371  1  0  0.102404  0.134114  0  1.045822  0
H  H1  1  0.98792402  0.25320737  0.65208973  1  0  0.102445  0.134143  0  1.045751  0
H  H2  1  0.48792596  0.65208874  0.25320195  1  0  0.10239  0.134109  0  1.045734  0
H  H3  1  0.01208323  0.74680075  0.34791015  1  0  0.102476  0.134206  0  1.045741  0
H  H4  1  0.18787301  0.52518955  0.13229285  1  0  0.097026  0.119079  0  1.028166  0
H  H5  1  0.31211542  0.86771766  0.47480787  1  0  0.096995  0.119006  0  1.028266  0
H  H6  1  0.81211980  0.47480465  0.86771159  1  0  0.097001  0.119004  0  1.028231  0
H  H7  1  0.68787393  0.13228949  0.52519191  1  0  0.096993  0.119003  0  1.02826  0
H  H8  1  0.00336316  0.63360073  0.03734991  1  0  0.102006  0.121235  0  1.02717  0
H  H9  1  0.49663211  0.96265339  0.36639966  1  0  0.102  0.121218  0  1.027204  0
H  H10  1  0.99663149  0.36639823  0.96265085  1  0  0.101995  0.121202  0  1.027266  0
H  H11  1  0.50336604  0.03734793  0.63359930  1  0  0.102009  0.121202  0  1.027206  0
H  H12  1  0.44389344  0.38325756  0.99982688  1  0  0.102815  0.127376  0  1.034148  0
H  H13  1  0.05609682  0.00018443  0.61674011  1  0  0.102822  0.12747  0  1.034092  0
H  H14  1  0.55609121  0.61673062  0.00018505  1  0  0.102827  0.127482  0  1.034147  0
H  H15  1  0.94390692  0.99982129  0.38326261  1  0  0.102833  0.127458  0  1.034106  0
H  H16  1  0.03428634  0.72432396  0.72326015  1  0  0.106509  0.144674  0  1.043219  0
H  H17  1  0.46571803  0.27673655  0.27568190  1  0  0.106489  0.144656  0  1.043234  0
H  H18  1  0.96572446  0.27567983  0.27673219  1  0  0.10649  0.144643  0  1.043215  0
H  H19  1  0.53428106  0.72326721  0.72431368  1  0  0.106487  0.14467  0  1.043236  0
Pb  Pb20  1  0.24999902  0.08373474  0.91626111  1  0  0.629351  1.045053  0  1.805101  0
Pb  Pb21  1  0.74999691  0.91625740  0.08373675  1  0  0.629337  1.044995  0  1.805147  0
C  C22  1  0.40682156  0.42936967  0.77172564  1  0  -0.120516  -0.242758  0  4.063341  0
C  C23  1  0.09317524  0.22828507  0.57062752  1  0  -0.120558  -0.242766  0  4.063369  0
C  C24  1  0.59317769  0.57062439  0.22828063  1  0  -0.120511  -0.242776  0  4.063227  0
C  C25  1  0.90682674  0.77172450  0.42936667  1  0  -0.120606  -0.242858  0  4.063366  0
C  C26  1  0.19930333  0.77012674  0.98506274  1  0  0.218799  0.639446  0  4.109231  0
C  C27  1  0.30069464  0.01494135  0.22987092  1  0  0.218845  0.639463  0  4.109207  0
C  C28  1  0.80069886  0.22986648  0.01493540  1  0  0.218779  0.639426  0  4.109324  0
C  C29  1  0.69930050  0.98506229  0.77012847  1  0  0.218805  0.639401  0  4.109169  0
C  C30  1  0.14733632  0.61908303  0.01809356  1  0  -0.158336  -0.334664  0  3.923699  0
C  C31  1  0.35266038  0.98191139  0.38091615  1  0  -0.15834  -0.334621  0  3.923807  0
C  C32  1  0.85265890  0.38091234  0.98190985  1  0  -0.158309  -0.3346  0  3.923748  0
C  C33  1  0.64733847  0.01809342  0.61908197  1  0  -0.158309  -0.334528  0  3.923628  0
C  C34  1  0.22162074  0.57092746  0.89335181  1  0  -0.024699  0.14842  0  3.980896  0
C  C35  1  0.27837719  0.10665394  0.42907322  1  0  -0.024689  0.148445  0  3.980994  0
C  C36  1  0.77837578  0.42906792  0.10665135  1  0  -0.024675  0.148481  0  3.980838  0
C  C37  1  0.72162573  0.89334964  0.57092572  1  0  -0.024709  0.14842  0  3.980914  0
C  C38  1  0.36917380  0.45173348  0.90150272  1  0  -0.110528  -0.154631  0  3.987635  0
C  C39  1  0.13082106  0.09850727  0.54826483  1  0  -0.110569  -0.154784  0  3.987807  0
C  C40  1  0.63081681  0.54825836  0.09850329  1  0  -0.110566  -0.154823  0  3.98763  0
C  C41  1  0.86918364  0.90150095  0.45173351  1  0  -0.110519  -0.154721  0  3.987717  0
C  C42  1  0.15031136  0.63571336  0.75674960  1  0  -0.105086  -0.243265  0  3.891856  0
C  C43  1  0.34969230  0.24325058  0.36429091  1  0  -0.105039  -0.243241  0  3.892019  0
C  C44  1  0.84969220  0.36428681  0.24324788  1  0  -0.105068  -0.243207  0  3.891888  0
C  C45  1  0.65031324  0.75675304  0.63570651  1  0  -0.105054  -0.243233  0  3.891909  0
S  S46  1  0.26141305  0.55317152  0.64032631  1  0  0.06524  0.136744  0  3.143973  0
S  S47  1  0.23860064  0.35967181  0.44683402  1  0  0.065258  0.136729  0  3.144063  0
S  S48  1  0.73860047  0.44683091  0.35967016  1  0  0.065243  0.136715  0  3.144011  0
S  S49  1  0.76140897  0.64033058  0.55316421  1  0  0.065234  0.136716  0  3.143992  0
O  O50  1  0.10116320  0.84010510  0.06254183  1  0  -0.301038  -0.588835  0  2.231818  0
O  O51  1  0.39883551  0.93745165  0.15990113  1  0  -0.301025  -0.588817  0  2.231791  0
O  O52  1  0.89883754  0.15989784  0.93744586  1  0  -0.301027  -0.588856  0  2.231817  0
O  O53  1  0.60115869  0.06254954  0.84010163  1  0  -0.301055  -0.588846  0  2.231716  0
O  O54  1  0.33369728  0.82397352  0.88854435  1  0  -0.289271  -0.52943  0  2.148186  0
O  O55  1  0.16630405  0.11146056  0.17601868  1  0  -0.289297  -0.529427  0  2.148175  0
O  O56  1  0.66630975  0.17601370  0.11145779  1  0  -0.289243  -0.529342  0  2.148185  0
O  O57  1  0.83369092  0.88854431  0.82397915  1  0  -0.289257  -0.529376  0  2.148169  0
