# generated using pymatgen
data_ZnH12C22I4NO5
_symmetry_space_group_name_H-M   'P 1'
_cell_length_a   16.00085033
_cell_length_b   17.06422559
_cell_length_c   17.84429593
_cell_angle_alpha   89.94663620
_cell_angle_beta   88.34153291
_cell_angle_gamma   89.95393105
_symmetry_Int_Tables_number   1
_chemical_formula_structural   ZnH12C22I4NO5
_chemical_formula_sum   'Zn2 H24 C44 I8 N2 O10'
_cell_volume   4870.19982976
_cell_formula_units_Z   2
loop_
 _symmetry_equiv_pos_site_id
 _symmetry_equiv_pos_as_xyz
  1  'x, y, z'
loop_
 _atom_site_type_symbol
 _atom_site_label
 _atom_site_symmetry_multiplicity
 _atom_site_fract_x
 _atom_site_fract_y
 _atom_site_fract_z
 _atom_site_occupancy
 _atom_site_pbe_bader_charge
 _atom_site_pbe_bader_spin_density
 _atom_site_pbe_cm5_charge
 _atom_site_pbe_ddec_charge
 _atom_site_pbe_ddec_spin_density
 _atom_site_pbe_ddec_sum_bond_order
 _atom_site_pbe_magmom
Zn  Zn0  1  0.49944508  0.58766303  0.49979038  1  1.326571  0  0.664042  0.87867  0  2.316343  0
Zn  Zn1  1  0.49966797  0.41220456  0.49991749  1  1.33775  0  0.663714  0.87831  0  2.319132  0
H  H2  1  0.07615558  0.57656853  0.41073311  1  0.064771  0  0.101676  0.115714  0  0.956451  0
H  H3  1  0.07992183  0.42385486  0.40859721  1  0.043743  0  0.103077  0.118564  0  0.956481  0
H  H4  1  0.93065355  0.57550292  0.41017477  1  0.078009  0  0.10031  0.094136  0  0.96893  0
H  H5  1  0.93495019  0.43786384  0.40094957  1  0.096314  0  0.100954  0.09512  0  0.965579  0
H  H6  1  0.06987877  0.37389374  0.49511897  1  0.076407  0  0.097742  0.116556  0  0.997054  0
H  H7  1  0.07364228  0.62502539  0.49831860  1  0.087997  0  0.099755  0.120941  0  0.998244  0
H  H8  1  0.92227413  0.54161218  0.62070193  1  0.073759  0  0.097598  0.123798  0  1.003271  0
H  H9  1  0.92372536  0.43822029  0.61165284  1  0.046126  0  0.095088  0.118889  0  1.020892  0
H  H10  1  0.52040459  0.62634658  0.87613131  1  0.075393  0  0.102253  0.106889  0  0.997694  0
H  H11  1  0.52043175  0.37356376  0.87636950  1  0.071737  0  0.102254  0.106984  0  0.998176  0
H  H12  1  0.51044905  0.62564356  0.73599643  1  0.103649  0  0.098903  0.102558  0  1.021187  0
H  H13  1  0.51044541  0.37430120  0.73621575  1  0.103646  0  0.098739  0.102543  0  1.021844  0
H  H14  1  0.50693905  0.62559048  0.26273484  1  0.126887  0  0.098158  0.115595  0  1.031256  0
H  H15  1  0.50665767  0.37437890  0.26288531  1  0.125808  0  0.098156  0.115794  0  1.030994  0
H  H16  1  0.59879210  0.86941224  0.41564920  1  0.086909  0  0.113965  0.134178  0  0.992646  0
H  H17  1  0.59833780  0.13044176  0.41543634  1  0.08697  0  0.11389  0.134541  0  0.992367  0
H  H18  1  0.40038509  0.86859280  0.58509771  1  0.12826  0  0.113209  0.132587  0  0.995128  0
H  H19  1  0.40034601  0.13138536  0.58526637  1  0.124805  0  0.113205  0.132168  0  0.9954  0
H  H20  1  0.10386172  0.52987862  0.72897456  1  0.052009  0  0.095  0.091649  0  0.998053  0
H  H21  1  0.99803558  0.56418298  0.72039894  1  0.011358  0  0.090091  0.080729  0  1.00748  0
H  H22  1  0.08308037  0.63210276  0.71583206  1  0.061452  0  0.106047  0.112501  0  0.971974  0
H  H23  1  0.99556656  0.34314747  0.65141589  1  0.043027  0  0.083965  0.07851  0  1.032684  0
H  H24  1  0.00160280  0.42162026  0.71829939  1  0.032229  0  0.094935  0.0894  0  1.00698  0
H  H25  1  0.08505367  0.35250367  0.70877137  1  0.058456  0  0.105986  0.112833  0  0.968958  0
C  C26  1  0.50231031  0.49998107  0.35456998  1  1.581011  0  0.214725  0.599804  0  4.152683  0
C  C27  1  0.66105626  0.49972631  0.50430660  1  1.639809  0  0.218981  0.678118  0  4.217939  0
C  C28  1  0.50297164  0.49995065  0.64476117  1  1.55385  0  0.212938  0.596836  0  4.156326  0
C  C29  1  0.33849102  0.49990662  0.49689052  1  1.619848  0  0.21929  0.684261  0  4.215275  0
C  C30  1  0.95391532  0.57362239  0.46726041  1  -0.129921  0  -0.085885  -0.016637  0  3.638831  0
C  C31  1  0.95447115  0.43034933  0.45884829  1  -0.193912  0  -0.084264  -0.013368  0  3.632888  0
C  C32  1  0.04992464  0.42611670  0.46471188  1  0.013155  0  -0.161965  -0.229066  0  3.871607  0
C  C33  1  0.04985552  0.57426063  0.46829326  1  -0.063097  0  -0.161366  -0.2261  0  3.861135  0
C  C34  1  0.24818450  0.49961510  0.50003694  1  0.166151  0  -0.057812  -0.20777  0  3.970294  0
C  C35  1  0.91781579  0.49915140  0.50696557  1  0.191584  0  -0.005831  0.150902  0  3.897143  0
C  C36  1  0.08179046  0.49900284  0.50663349  1  0.165201  0  0.002988  0.090805  0  3.870816  0
C  C37  1  0.04568331  0.49608196  0.58911373  1  0.984271  0  0.165464  0.380388  0  3.786985  0
C  C38  1  0.94890266  0.49283804  0.58781535  1  -0.067072  0  -0.167732  -0.328956  0  3.804693  0
C  C39  1  0.17241984  0.49908346  0.50557221  1  -0.424665  0  -0.027582  -0.016311  0  4.043441  0
C  C40  1  0.82722265  0.49930986  0.50683380  1  -0.440708  0  -0.051365  -0.064746  0  4.081113  0
C  C41  1  0.75141231  0.49964965  0.50630578  1  0.140135  0  -0.051629  -0.177012  0  3.956243  0
C  C42  1  0.51827884  0.57140449  0.84512774  1  -0.102022  0  -0.083446  -0.124064  0  3.941166  0
C  C43  1  0.51829246  0.42850719  0.84526657  1  -0.103433  0  -0.083686  -0.124348  0  3.941985  0
C  C44  1  0.51282121  0.57105555  0.76759006  1  -0.013914  0  -0.085783  -0.090603  0  3.989602  0
C  C45  1  0.51282570  0.42887613  0.76772825  1  -0.013022  0  -0.085959  -0.091275  0  3.991503  0
C  C46  1  0.50976634  0.49996463  0.72828592  1  -0.035513  0  -0.016386  -0.024166  0  3.945867  0
C  C47  1  0.52058928  0.49996078  0.88515344  1  0.234894  0  0.00053  0.137289  0  4.104085  0
C  C48  1  0.52302423  0.49999804  0.96422068  1  -0.193902  0  -0.032766  -0.074197  0  4.077738  0
C  C49  1  0.52210089  0.50004469  0.03266373  1  -0.148581  0  -0.064797  -0.111828  0  4.181071  0
C  C50  1  0.51508005  0.57093373  0.15335616  1  -0.223158  0  -0.040973  0.03668  0  3.847912  0
C  C51  1  0.51492361  0.42912240  0.15344021  1  -0.219504  0  -0.04063  0.03699  0  3.847294  0
C  C52  1  0.50903227  0.57109582  0.23114703  1  -0.012288  0  -0.095192  -0.139048  0  3.981455  0
C  C53  1  0.50887416  0.42889478  0.23123298  1  -0.014554  0  -0.095457  -0.139373  0  3.980406  0
C  C54  1  0.50605220  0.49998914  0.27037865  1  0.064753  0  -0.013884  0.003386  0  3.93542  0
C  C55  1  0.51797932  0.50003815  0.11148758  1  0.054215  0  -0.010462  0.076664  0  4.085025  0
C  C56  1  0.55486640  0.83913986  0.45316084  1  0.007471  0  -0.082252  -0.204863  0  3.905679  0
C  C57  1  0.55454503  0.16075043  0.45304278  1  0.004709  0  -0.082916  -0.206954  0  3.907287  0
C  C58  1  0.55302885  0.75743878  0.45483029  1  0.334181  0  0.090941  0.207988  0  3.882956  0
C  C59  1  0.55275682  0.24243860  0.45466173  1  0.33929  0  0.090927  0.209153  0  3.882613  0
C  C60  1  0.44661124  0.75698809  0.54535223  1  0.311855  0  0.090569  0.206418  0  3.887783  0
C  C61  1  0.44651392  0.24295471  0.54535452  1  0.314844  0  0.090427  0.206257  0  3.887803  0
C  C62  1  0.44439956  0.83866502  0.54742184  1  -0.028994  0  -0.083453  -0.208939  0  3.911194  0
C  C63  1  0.44428729  0.16128398  0.54750118  1  -0.027943  0  -0.083724  -0.20888  0  3.910664  0
C  C64  1  0.49950823  0.88137610  0.50036809  1  0.133754  0  0.022661  0.206836  0  4.091948  0
C  C65  1  0.49931319  0.11854791  0.50038597  1  0.133646  0  0.022388  0.207558  0  4.090463  0
C  C66  1  0.49929734  0.96424070  0.50050411  1  -0.285916  0  -0.021068  -0.075315  0  4.042938  0
C  C67  1  0.49919299  0.03567798  0.50055301  1  -0.041993  0  -0.020375  -0.075133  0  4.042368  0
C  C68  1  0.06365139  0.57267041  0.70100606  1  0.428108  0  -0.144594  -0.161003  0  3.969194  0
C  C69  1  0.03779089  0.38517692  0.67812156  1  0.407178  0  -0.14435  -0.162403  0  3.952975  0
I  I70  1  0.64091342  0.70481229  0.38095640  1  0.227505  0  0.143191  0.041794  0  1.511735  0
I  I71  1  0.64067230  0.29492269  0.38070847  1  0.226828  0  0.143198  0.041321  0  1.530143  0
I  I72  1  0.35932337  0.70323342  0.61911611  1  0.225404  0  0.143735  0.047148  0  1.467111  0
I  I73  1  0.35933325  0.29684627  0.61914515  1  0.2236  0  0.142699  0.045847  0  1.469033  0
I  I74  1  0.89692000  0.31776374  0.48840592  1  -0.002541  0  0.014217  -0.111404  0  1.302752  0
I  I75  1  0.90054902  0.68133295  0.51476221  1  0.000852  0  0.004874  -0.111792  0  1.264106  0
I  I76  1  0.52052630  0.67954383  0.09736197  1  0.09359  0  0.040767  -0.059724  0  1.307466  0
I  I77  1  0.52016413  0.32055354  0.09756463  1  0.093312  0  0.040398  -0.060126  0  1.307838  0
N  N78  1  0.49987995  0.71545536  0.49994279  1  -1.127951  0  -0.298896  -0.254847  0  3.375497  0
N  N79  1  0.49975091  0.28444367  0.49988852  1  -1.128485  0  -0.299091  -0.255181  0  3.375438  0
O  O80  1  0.50148514  0.56662406  0.38643901  1  -1.170515  0  -0.319585  -0.552664  0  2.390527  0
O  O81  1  0.50157176  0.43330471  0.38650995  1  -1.169251  0  -0.319598  -0.552655  0  2.390792  0
O  O82  1  0.62612406  0.56662842  0.50317414  1  -1.150294  0  -0.315205  -0.549326  0  2.342811  0
O  O83  1  0.62624721  0.43277345  0.50321744  1  -1.153808  0  -0.315834  -0.549999  0  2.341924  0
O  O84  1  0.50002297  0.56654256  0.61261435  1  -1.168773  0  -0.322668  -0.560676  0  2.40109  0
O  O85  1  0.50022151  0.43332102  0.61273886  1  -1.168131  0  -0.323182  -0.561032  0  2.398922  0
O  O86  1  0.37359134  0.56683697  0.49590906  1  -1.160343  0  -0.319316  -0.556079  0  2.343287  0
O  O87  1  0.37394453  0.43305401  0.49595179  1  -1.151607  0  -0.319378  -0.556107  0  2.345071  0
O  O88  1  0.07351191  0.56734636  0.62165240  1  -1.05241  0  -0.225299  -0.257516  0  2.517997  0
O  O89  1  0.08377173  0.43042696  0.62347896  1  -1.050825  0  -0.222981  -0.251114  0  2.497852  0
