# generated using pymatgen
data_Cd2H34C50N4O17
_symmetry_space_group_name_H-M   'P 1'
_cell_length_a   11.12174993
_cell_length_b   13.01498392
_cell_length_c   17.11067105
_cell_angle_alpha   86.56906952
_cell_angle_beta   90.60299951
_cell_angle_gamma   85.65149827
_symmetry_Int_Tables_number   1
_chemical_formula_structural   Cd2H34C50N4O17
_chemical_formula_sum   'Cd4 H68 C100 N8 O34'
_cell_volume   2464.92080853
_cell_formula_units_Z   2
loop_
 _symmetry_equiv_pos_site_id
 _symmetry_equiv_pos_as_xyz
  1  'x, y, z'
loop_
 _atom_site_type_symbol
 _atom_site_label
 _atom_site_symmetry_multiplicity
 _atom_site_fract_x
 _atom_site_fract_y
 _atom_site_fract_z
 _atom_site_occupancy
 _atom_site_pbe_bader_charge
 _atom_site_pbe_bader_spin_density
 _atom_site_pbe_cm5_charge
 _atom_site_pbe_ddec_charge
 _atom_site_pbe_ddec_spin_density
 _atom_site_pbe_ddec_sum_bond_order
 _atom_site_pbe_magmom
Cd  Cd0  1  0.16575720  0.47322932  0.11627545  1  1.271926  0  0.779663  0.889449  0  2.100035  0
Cd  Cd1  1  0.83424140  0.52677031  0.88372640  1  1.271991  0  0.779644  0.889393  0  2.10009  0
Cd  Cd2  1  0.97413602  0.23844849  0.50852392  1  1.245229  0  0.783433  0.867458  0  2.146375  0
Cd  Cd3  1  0.02587270  0.76154807  0.49147284  1  1.245212  0  0.783386  0.867345  0  2.146526  0
H  H4  1  0.43360338  0.16258688  0.12304662  1  0.082688  0  0.11224  0.148889  0  1.009336  0
H  H5  1  0.56640172  0.83741046  0.87695361  1  0.082689  0  0.112228  0.148857  0  1.009299  0
H  H6  1  0.34632620  0.61046224  0.01708408  1  0.132941  0  0.118126  0.092629  0  0.987199  0
H  H7  1  0.65367674  0.38953897  0.98291770  1  0.133253  0  0.118105  0.092585  0  0.987221  0
H  H8  1  0.29106256  0.51551527  0.44340167  1  0.123984  0  0.116844  0.127413  0  0.991709  0
H  H9  1  0.70893470  0.48447972  0.55660042  1  0.124271  0  0.116814  0.127356  0  0.991743  0
H  H10  1  0.89948908  0.14102458  0.82987492  1  0.105736  0  0.098968  0.103671  0  1.05883  0
H  H11  1  0.10051572  0.85897504  0.17012051  1  0.105203  0  0.099018  0.10377  0  1.058732  0
H  H12  1  0.65559366  0.99613098  0.88738395  1  0.065443  0  0.097724  0.099435  0  1.089376  0
H  H13  1  0.34440669  0.00386863  0.11261382  1  0.065433  0  0.097722  0.09946  0  1.08933  0
H  H14  1  0.32726307  0.14780079  0.88100196  1  0.102944  0  0.110683  0.142446  0  1.019218  0
H  H15  1  0.67273479  0.85219729  0.11899997  1  0.102944  0  0.110692  0.142466  0  1.019143  0
H  H16  1  0.70292218  0.16742620  0.94227570  1  0.141726  0  0.118078  0.157851  0  0.98665  0
H  H17  1  0.29707765  0.83257882  0.05772296  1  0.141661  0  0.118109  0.15792  0  0.986635  0
H  H18  1  0.20122536  0.97716378  0.95633116  1  0.085166  0  0.105438  0.121058  0  1.025181  0
H  H19  1  0.79877664  0.02283739  0.04366711  1  0.08499  0  0.105455  0.121052  0  1.025146  0
H  H20  1  0.55562400  0.95654323  0.29661870  1  0.140525  0  0.109849  0.118442  0  1.01111  0
H  H21  1  0.44437810  0.04345719  0.70338195  1  0.14047  0  0.109835  0.118409  0  1.011161  0
H  H22  1  0.13211762  0.28312461  0.24583259  1  0.119262  0  0.11774  0.09164  0  0.994136  0
H  H23  1  0.86787985  0.71687651  0.75416334  1  0.119541  0  0.11777  0.091687  0  0.994186  0
H  H24  1  0.83305030  0.90211416  0.83160813  1  0.090499  0  0.100314  0.104779  0  1.017158  0
H  H25  1  0.16694685  0.09788158  0.16839159  1  0.090543  0  0.100314  0.104781  0  1.017171  0
H  H26  1  0.54313452  0.01652163  0.15614148  1  0.108176  0  0.104169  0.11288  0  1.069279  0
H  H27  1  0.45686378  0.98348108  0.84385964  1  0.10819  0  0.104175  0.112853  0  1.069321  0
H  H28  1  0.92146242  0.97560193  0.70877643  1  0.075616  0  0.094186  0.094032  0  1.06947  0
H  H29  1  0.07853491  0.02439228  0.29122512  1  0.075511  0  0.094175  0.094018  0  1.069474  0
H  H30  1  0.56491362  0.32350103  0.27838202  1  0.106119  0  0.110525  0.116419  0  1.01427  0
H  H31  1  0.43508045  0.67649854  0.72161632  1  0.106094  0  0.11051  0.116394  0  1.014215  0
H  H32  1  0.03125491  0.97740322  0.86069145  1  0.139577  0  0.097489  0.102207  0  1.04558  0
H  H33  1  0.96875312  0.02260028  0.13930437  1  0.139627  0  0.097466  0.102183  0  1.045582  0
H  H34  1  0.69602847  0.03621135  0.38655130  1  0.099966  0  0.110846  0.117778  0  0.986668  0
H  H35  1  0.30397348  0.96379060  0.61344869  1  0.099962  0  0.110832  0.117788  0  0.986709  0
H  H36  1  0.56224364  0.65711256  0.01788509  1  0.099096  0  0.10089  0.100391  0  1.047233  0
H  H37  1  0.43775900  0.34288246  0.98211583  1  0.099106  0  0.100882  0.100394  0  1.047169  0
H  H38  1  0.25442049  0.15752334  0.33652473  1  0.084253  0  0.101944  0.100378  0  1.051102  0
H  H39  1  0.74557369  0.84248476  0.66347669  1  0.084247  0  0.101921  0.100374  0  1.051065  0
H  H40  1  0.62575503  0.44856492  0.22096296  1  0.075856  0  0.107652  0.113044  0  1.020121  0
H  H41  1  0.37424317  0.55143855  0.77903636  1  0.075833  0  0.107621  0.113022  0  1.020059  0
H  H42  1  0.70161503  0.57703953  0.12388278  1  0.124909  0  0.110573  0.113654  0  1.004901  0
H  H43  1  0.29838993  0.42295937  0.87611853  1  0.12496  0  0.11056  0.113588  0  1.004974  0
H  H44  1  0.90931911  0.39537443  0.35202629  1  0.100104  0  0.113218  0.083495  0  1.001614  0
H  H45  1  0.09067843  0.60462673  0.64797432  1  0.100129  0  0.113189  0.083421  0  1.001688  0
H  H46  1  0.13358422  0.17090968  0.66437692  1  0.07492  0  0.117695  0.087249  0  0.986606  0
H  H47  1  0.86642028  0.82908374  0.33561765  1  0.075091  0  0.117674  0.087205  0  0.986637  0
H  H48  1  0.47495746  0.18333987  0.35690317  1  0.091295  0  0.113596  0.113952  0  0.980313  0
H  H49  1  0.52503641  0.81666204  0.64309740  1  0.091163  0  0.11356  0.113953  0  0.980275  0
H  H50  1  0.00170357  0.53652495  0.27343642  1  0.175341  0  0.112587  0.13494  0  1.015063  0
H  H51  1  0.99829543  0.46347679  0.72656691  1  0.175279  0  0.112561  0.13492  0  1.015166  0
H  H52  1  0.20122172  0.59522961  0.32085709  1  0.219253  0  0.120378  0.144997  0  0.996983  0
H  H53  1  0.79877758  0.40477236  0.67914640  1  0.219252  0  0.120359  0.144991  0  0.996935  0
H  H54  1  0.34309445  0.46319036  0.55290888  1  0.087435  0  0.113744  0.120465  0  0.993097  0
H  H55  1  0.65691149  0.53680777  0.44709306  1  0.087397  0  0.113768  0.120494  0  0.993149  0
H  H56  1  0.31222377  0.22715361  0.73703352  1  0.093125  0  0.112784  0.117365  0  0.995795  0
H  H57  1  0.68777605  0.77284213  0.26296386  1  0.093101  0  0.112769  0.117321  0  0.995841  0
H  H58  1  0.42232751  0.37388013  0.67748632  1  0.183535  0  0.112636  0.11872  0  1.02524  0
H  H59  1  0.57767123  0.62611795  0.32251503  1  0.183535  0  0.11263  0.118713  0  1.025206  0
H  H60  1  0.03152115  0.16414202  0.36223890  1  0.640968  0  0.309642  0.366821  0  0.959107  0
H  H61  1  0.96847526  0.83586145  0.63776100  1  0.640816  0  0.309642  0.366865  0  0.959018  0
H  H62  1  0.91148624  0.43438829  0.15982542  1  0.648806  0  0.284903  0.380328  0  0.956607  0
H  H63  1  0.08851125  0.56561284  0.84017168  1  0.648994  0  0.284882  0.380319  0  0.956615  0
H  H64  1  0.91207216  0.53206639  0.09927248  1  0.649867  0  0.291947  0.388016  0  0.942876  0
H  H65  1  0.08792673  0.46793942  0.90072848  1  0.649921  0  0.291947  0.388025  0  0.942861  0
H  H66  1  0.19057650  0.11822586  0.45238346  1  0.633234  0  0.329415  0.409743  0  0.864124  0
H  H67  1  0.80942458  0.88177610  0.54761828  1  0.633266  0  0.32941  0.409717  0  0.864112  0
H  H68  1  0.10011316  0.03092909  0.43020014  1  0.648712  0  0.287894  0.40078  0  0.936958  0
H  H69  1  0.89988890  0.96907130  0.56979759  1  0.648803  0  0.287879  0.400766  0  0.936983  0
H  H70  1  0.98962402  0.25340412  0.11239337  1  0.649577  0  0.300653  0.365858  0  0.984221  0
H  H71  1  0.01037371  0.74659470  0.88760502  1  0.649574  0  0.300634  0.365868  0  0.984202  0
C  C72  1  0.45903609  0.15913865  0.06206560  1  0.053412  0  -0.127824  -0.361085  0  3.986121  0
C  C73  1  0.54096503  0.84086253  0.93793442  1  0.053425  0  -0.127764  -0.360936  0  3.986025  0
C  C74  1  0.19846521  0.36277454  0.54081437  1  0.490999  0  0.112905  0.161718  0  4.009633  0
C  C75  1  0.80153716  0.63722277  0.45918410  1  0.490582  0  0.112917  0.161767  0  4.009336  0
C  C76  1  0.64008678  0.11507948  0.79430656  1  0.425169  0  0.082053  0.216467  0  3.994924  0
C  C77  1  0.35991608  0.88492249  0.20569459  1  0.425348  0  0.082068  0.216403  0  3.995075  0
C  C78  1  0.98780380  0.22584870  0.91387893  1  -0.012035  0  -0.010795  -0.018622  0  3.962879  0
C  C79  1  0.01219315  0.77414938  0.08612301  1  -0.011925  0  -0.010786  -0.018546  0  3.96283  0
C  C80  1  0.36998596  0.15124556  0.00476498  1  0.404709  0  0.089686  0.312249  0  4.065803  0
C  C81  1  0.63001436  0.84875485  0.99523625  1  0.404689  0  0.089655  0.312142  0  4.065876  0
C  C82  1  0.08303766  0.22572683  0.96827756  1  -0.012867  0  -0.015026  -0.146894  0  3.947769  0
C  C83  1  0.91696379  0.77427128  0.03172438  1  -0.012912  0  -0.015087  -0.147  0  3.947862  0
C  C84  1  0.51703841  0.15896612  0.90339419  1  0.396277  0  0.090208  0.30435  0  4.072303  0
C  C85  1  0.48295896  0.84103657  0.09660517  1  0.395919  0  0.090209  0.304344  0  4.072274  0
C  C86  1  0.41199813  0.57577209  0.06069701  1  0.467888  0  0.055061  0.105644  0  3.946882  0
C  C87  1  0.58800493  0.42422755  0.93930193  1  0.468128  0  0.055059  0.105686  0  3.946929  0
C  C88  1  0.78459734  0.10122995  0.69226042  1  0.043995  0  -0.022357  -0.065208  0  3.985762  0
C  C89  1  0.21540056  0.89876734  0.30773922  1  0.043959  0  -0.022326  -0.065227  0  3.985752  0
C  C90  1  0.20572350  0.49003468  0.42321482  1  -0.039281  0  -0.073155  -0.151926  0  3.903712  0
C  C91  1  0.79427537  0.50996184  0.57678485  1  -0.039523  0  -0.073036  -0.15164  0  3.903831  0
C  C92  1  0.67586393  0.12742366  0.16598355  1  0.450913  0  0.095769  0.239732  0  4.011399  0
C  C93  1  0.32413652  0.87257519  0.83401659  1  0.451033  0  0.095708  0.239605  0  4.011445  0
C  C94  1  0.97206652  0.13775443  0.87331977  1  -0.011859  0  -0.089486  -0.109701  0  3.976803  0
C  C95  1  0.02793820  0.86224677  0.12668026  1  -0.002236  0  -0.089575  -0.109883  0  3.976633  0
C  C96  1  0.57826628  0.16086438  0.03806736  1  0.370249  0  0.086133  0.297146  0  4.063248  0
C  C97  1  0.42173416  0.83913447  0.96193220  1  0.37026  0  0.086086  0.297087  0  4.063192  0
C  C98  1  0.10920448  0.31658549  0.01406806  1  1.569821  0  0.218443  0.616021  0  4.173758  0
C  C99  1  0.89079689  0.68341338  0.98593325  1  1.569846  0  0.218483  0.616129  0  4.173654  0
C  C100  1  0.69182233  0.02446945  0.83223659  1  -0.021155  0  -0.107952  -0.207128  0  4.041398  0
C  C101  1  0.30817624  0.97553016  0.16776234  1  -0.0209  0  -0.107966  -0.207172  0  4.041454  0
C  C102  1  0.16077446  0.13678400  0.97993609  1  0.413202  0  0.079331  0.220123  0  4.022707  0
C  C103  1  0.83922600  0.86321486  0.02006464  1  0.413236  0  0.079344  0.220104  0  4.022696  0
C  C104  1  0.39705287  0.15222138  0.92537129  1  0.051682  0  -0.124876  -0.360429  0  3.992028  0
C  C105  1  0.60294564  0.84777901  0.07462877  1  0.051688  0  -0.124926  -0.360476  0  3.991936  0
C  C106  1  0.60941715  0.16216765  0.95913118  1  0.027119  0  -0.115864  -0.340663  0  3.958927  0
C  C107  1  0.39058029  0.83783427  0.04086764  1  0.027497  0  -0.115889  -0.340709  0  3.958842  0
C  C108  1  0.68164815  0.15485238  0.72242673  1  -0.083935  0  0.000887  -0.08725  0  3.842474  0
C  C109  1  0.31835583  0.84514727  0.27757396  1  -0.084249  0  0.000908  -0.087166  0  3.842375  0
C  C110  1  0.14212413  0.04673464  0.94311526  1  -0.022456  0  -0.096487  -0.179065  0  3.975159  0
C  C111  1  0.85787632  0.95326421  0.05688488  1  -0.022211  0  -0.096486  -0.179003  0  3.975083  0
C  C112  1  0.76717926  0.13282341  0.29404879  1  -0.064577  0  -0.01427  -0.057072  0  4.010744  0
C  C113  1  0.23282058  0.86718162  0.70595045  1  -0.064194  0  -0.01422  -0.057029  0  4.010912  0
C  C114  1  0.61178571  0.01670741  0.27415965  1  -0.017976  0  -0.08064  -0.053696  0  3.989533  0
C  C115  1  0.38821594  0.98329763  0.72584017  1  -0.027803  0  -0.080598  -0.05363  0  3.989451  0
C  C116  1  0.22822259  0.29019070  0.25538482  1  0.446902  0  0.050484  0.105598  0  3.961136  0
C  C117  1  0.77177371  0.70981352  0.74461329  1  0.446881  0  0.050364  0.105486  0  3.961247  0
C  C118  1  0.76212665  0.16599123  0.21448603  1  0.045205  0  -0.012339  -0.153078  0  3.94294  0
C  C119  1  0.23787358  0.83400994  0.78551400  1  0.045242  0  -0.012341  -0.152996  0  3.942845  0
C  C120  1  0.44588681  0.45946660  0.16846610  1  0.51139  0  0.124248  0.173869  0  3.983035  0
C  C121  1  0.55411266  0.54053302  0.83153342  1  0.51137  0  0.124255  0.173882  0  3.982931  0
C  C122  1  0.84584890  0.14142666  0.62157409  1  1.511486  0  0.206581  0.579243  0  4.144668  0
C  C123  1  0.15415043  0.85857451  0.37842594  1  1.511813  0  0.206616  0.579368  0  4.144653  0
C  C124  1  0.60736273  0.24339044  0.67710393  1  1.673613  0  0.176412  0.57964  0  4.331389  0
C  C125  1  0.39263605  0.75660766  0.32289975  1  1.673917  0  0.176256  0.579589  0  4.331515  0
C  C126  1  0.79159202  0.97166025  0.80069155  1  -0.084745  0  -0.101906  -0.076373  0  4.052095  0
C  C127  1  0.20840572  0.02833858  0.19930743  1  -0.0848  0  -0.10185  -0.07629  0  4.05221  0
C  C128  1  0.60438956  0.05036957  0.19516129  1  -0.018112  0  -0.095261  -0.191701  0  3.977374  0
C  C129  1  0.39560893  0.94963080  0.80483761  1  -0.00878  0  -0.095212  -0.191553  0  3.977185  0
C  C130  1  0.83880982  0.01136648  0.73146049  1  -0.006124  0  -0.107454  -0.139522  0  4.043389  0
C  C131  1  0.16118965  0.98863314  0.26853902  1  -0.005991  0  -0.107486  -0.139573  0  4.043536  0
C  C132  1  0.46883115  0.31414513  0.27322751  1  -0.043831  0  -0.076757  -0.155861  0  3.924549  0
C  C133  1  0.53116356  0.68585676  0.72676956  1  -0.043827  0  -0.076755  -0.155841  0  3.92445  0
C  C134  1  0.39554189  0.37888247  0.22079449  1  0.512466  0  0.130716  0.188299  0  3.958495  0
C  C135  1  0.60445577  0.62111713  0.77920445  1  0.512247  0  0.130723  0.188322  0  3.958157  0
C  C136  1  0.04663084  0.04775413  0.88932850  1  -0.078958  0  -0.093651  -0.066858  0  4.007013  0
C  C137  1  0.95337133  0.95224551  0.11067102  1  -0.088206  0  -0.093606  -0.066796  0  4.006889  0
C  C138  1  0.14841669  0.41227812  0.46531997  1  0.442416  0  0.111376  0.158055  0  4.001198  0
C  C139  1  0.85158307  0.58771840  0.53467854  1  0.442424  0  0.111232  0.15769  0  4.001635  0
C  C140  1  0.69043932  0.06011192  0.32442367  1  -0.031378  0  -0.086034  -0.117675  0  3.988496  0
C  C141  1  0.30956061  0.93989234  0.67557678  1  -0.030957  0  -0.086078  -0.117799  0  3.988884  0
C  C142  1  0.53092919  0.60243193  0.06223134  1  -0.026151  0  -0.078955  -0.111742  0  3.962505  0
C  C143  1  0.46907411  0.39756539  0.93776830  1  -0.026713  0  -0.078939  -0.111788  0  3.962417  0
C  C144  1  0.84523731  0.24287189  0.18166330  1  1.585338  0  0.23687  0.61748  0  4.151808  0
C  C145  1  0.15476305  0.75712773  0.81833564  1  1.585404  0  0.236813  0.617412  0  4.15185  0
C  C146  1  0.29619938  0.22170629  0.30705958  1  0.034578  0  -0.08915  -0.134125  0  3.981295  0
C  C147  1  0.70379515  0.77829793  0.69294029  1  0.034901  0  -0.089062  -0.134094  0  3.981302  0
C  C148  1  0.56549759  0.48494163  0.17516685  1  -0.02472  0  -0.072713  -0.142376  0  3.920134  0
C  C149  1  0.43450277  0.51505799  0.82483208  1  -0.024758  0  -0.072674  -0.142347  0  3.919961  0
C  C150  1  0.90740277  0.32251650  0.89927812  1  1.56111  0  0.182868  0.550465  0  4.245965  0
C  C151  1  0.09259405  0.67748313  0.10072490  1  1.561106  0  0.182893  0.550483  0  4.246122  0
C  C152  1  0.60841313  0.55697483  0.12105639  1  0.00118  0  -0.059623  -0.007893  0  3.917891  0
C  C153  1  0.39159016  0.44302249  0.87894267  1  0.001238  0  -0.059625  -0.007801  0  3.917932  0
C  C154  1  0.99347535  0.42465399  0.37128279  1  0.442081  0  0.040229  0.087124  0  3.983885  0
C  C155  1  0.00652427  0.57534409  0.62871681  1  0.442124  0  0.040262  0.087237  0  3.98385  0
C  C156  1  0.18273875  0.23565465  0.64186031  1  0.457866  0  0.046681  0.092293  0  3.971686  0
C  C157  1  0.81726644  0.76434111  0.35813591  1  0.457087  0  0.04676  0.092423  0  3.971739  0
C  C158  1  0.85911962  0.16732424  0.34796588  1  1.510426  0  0.247274  0.602616  0  4.071241  0
C  C159  1  0.14088030  0.83268002  0.65203340  1  1.509876  0  0.247209  0.602525  0  4.071372  0
C  C160  1  0.41851425  0.23514051  0.31694778  1  -0.061958  0  -0.063212  -0.015361  0  3.963061  0
C  C161  1  0.58147952  0.76486215  0.68305100  1  -0.061762  0  -0.063209  -0.015405  0  3.963174  0
C  C162  1  0.04493395  0.50337977  0.32768386  1  -0.090239  0  -0.078179  -0.121105  0  3.914339  0
C  C163  1  0.95506683  0.49661601  0.67231820  1  -0.090165  0  -0.078173  -0.121133  0  3.914343  0
C  C164  1  0.15461530  0.53579285  0.35362305  1  -0.004325  0  -0.049312  0.008638  0  3.871586  0
C  C165  1  0.84538501  0.46420756  0.64637760  1  -0.004444  0  -0.049293  0.008608  0  3.871486  0
C  C166  1  0.29793421  0.39840854  0.57874325  1  0.011261  0  -0.07687  -0.157638  0  3.921034  0
C  C167  1  0.70206445  0.60159031  0.42125690  1  0.011376  0  -0.076927  -0.157723  0  3.921068  0
C  C168  1  0.28081700  0.26760037  0.68220169  1  0.030841  0  -0.069805  -0.096941  0  3.923827  0
C  C169  1  0.71918445  0.73239692  0.31779502  1  0.031804  0  -0.069778  -0.09689  0  3.923761  0
C  C170  1  0.34130393  0.34961253  0.64935691  1  -0.045182  0  -0.048472  0.023694  0  3.892437  0
C  C171  1  0.65869945  0.65038403  0.35064335  1  -0.045524  0  -0.048454  0.023705  0  3.892362  0
N  N172  1  0.37141015  0.50541556  0.11198884  1  -1.213485  0  -0.319432  -0.272097  0  3.501349  0
N  N173  1  0.62858669  0.49458326  0.88800954  1  -1.2135  0  -0.319417  -0.272106  0  3.501417  0
N  N174  1  0.27632230  0.36689803  0.21377680  1  -1.23508  0  -0.317345  -0.274867  0  3.473436  0
N  N175  1  0.72367326  0.63310464  0.78622139  1  -1.235509  0  -0.31727  -0.274793  0  3.47327  0
N  N176  1  0.14345340  0.28120924  0.57256338  1  -1.251204  0  -0.344906  -0.308746  0  3.551048  0
N  N177  1  0.85655248  0.71878885  0.42743388  1  -1.250935  0  -0.344913  -0.308717  0  3.550782  0
N  N178  1  0.04367056  0.37969181  0.43800767  1  -1.257643  0  -0.338729  -0.31243  0  3.536674  0
N  N179  1  0.95633095  0.62030552  0.56199313  1  -1.257567  0  -0.33868  -0.312324  0  3.53671  0
O  O180  1  0.25622675  0.14074595  0.03314881  1  -1.103686  0  -0.148445  -0.20952  0  2.595221  0
O  O181  1  0.74377176  0.85925444  0.96685125  1  -1.103669  0  -0.148437  -0.209469  0  2.595207  0
O  O182  1  0.16292789  0.39027737  0.98326666  1  -1.166525  0  -0.301068  -0.535447  0  2.189477  0
O  O183  1  0.83707639  0.60971920  0.01673419  1  -1.166545  0  -0.301034  -0.535432  0  2.189452  0
O  O184  1  0.53649596  0.16538893  0.82393626  1  -1.080397  0  -0.144898  -0.200698  0  2.553883  0
O  O185  1  0.46350059  0.83461298  0.17606255  1  -1.080404  0  -0.144955  -0.200735  0  2.554065  0
O  O186  1  0.67389199  0.16783632  0.08966430  1  -1.108522  0  -0.142449  -0.199488  0  2.593864  0
O  O187  1  0.32610779  0.83216021  0.91033596  1  -1.108549  0  -0.142387  -0.199455  0  2.593862  0
O  O188  1  0.91782708  0.07986030  0.58326300  1  -1.184854  0  -0.339499  -0.580993  0  2.212018  0
O  O189  1  0.08217821  0.92014397  0.41673453  1  -1.18531  0  -0.339455  -0.580973  0  2.212269  0
O  O190  1  0.08592986  0.31104410  0.08786299  1  -1.155199  0  -0.31589  -0.557458  0  2.347187  0
O  O191  1  0.91407058  0.68895475  0.91213657  1  -1.155222  0  -0.315929  -0.557536  0  2.347178  0
O  O192  1  0.92319487  0.20308378  0.13322125  1  -1.15683  0  -0.308434  -0.467701  0  2.336466  0
O  O193  1  0.07680086  0.79691654  0.86677297  1  -1.156976  0  -0.308375  -0.467668  0  2.336475  0
O  O194  1  0.83682323  0.33298197  0.20222292  1  -1.163849  0  -0.289415  -0.515533  0  2.151316  0
O  O195  1  0.16318346  0.66701771  0.79777894  1  -1.163726  0  -0.289426  -0.51555  0  2.151327  0
O  O196  1  0.89192241  0.37853493  0.95860266  1  -1.148406  0  -0.343571  -0.561246  0  2.187238  0
O  O197  1  0.10808751  0.62146864  0.04139959  1  -1.148412  0  -0.343535  -0.561224  0  2.18734  0
O  O198  1  0.53862522  0.21035201  0.62623886  1  -1.16064  0  -0.371188  -0.600454  0  2.027292  0
O  O199  1  0.46136612  0.78964917  0.37376817  1  -1.160681  0  -0.371065  -0.600394  0  2.027413  0
O  O200  1  0.83417276  0.23738188  0.60149587  1  -1.120213  0  -0.30187  -0.490423  0  2.221593  0
O  O201  1  0.16582647  0.76262087  0.39850816  1  -1.120097  0  -0.301974  -0.490556  0  2.221597  0
O  O202  1  0.61655171  0.33447960  0.69604148  1  -1.181234  0  -0.354965  -0.580417  0  2.078676  0
O  O203  1  0.38345345  0.66551778  0.30396342  1  -1.181553  0  -0.35493  -0.580415  0  2.078704  0
O  O204  1  0.86559975  0.34733544  0.83148915  1  -1.148777  0  -0.322761  -0.530658  0  2.120139  0
O  O205  1  0.13438752  0.65266106  0.16851578  1  -1.148901  0  -0.322807  -0.530724  0  2.120094  0
O  O206  1  0.96901614  0.17050832  0.31799851  1  -1.155601  0  -0.319809  -0.474902  0  2.350011  0
O  O207  1  0.03098357  0.82948900  0.68200229  1  -1.155352  0  -0.31989  -0.474994  0  2.349947  0
O  O208  1  0.83531463  0.18680152  0.41651249  1  -1.129635  0  -0.2818  -0.476399  0  2.22944  0
O  O209  1  0.16468572  0.81320736  0.58348597  1  -1.129573  0  -0.281677  -0.476267  0  2.229583  0
O  O210  1  0.95277748  0.49798391  0.14663406  1  -1.275475  0  -0.588088  -0.758473  0  2.069532  0
O  O211  1  0.04721998  0.50201803  0.85336651  1  -1.275723  0  -0.588053  -0.758445  0  2.069596  0
O  O212  1  0.10738293  0.10963783  0.43783999  1  -1.262269  0  -0.559675  -0.774142  0  2.110702  0
O  O213  1  0.89261900  0.89036412  0.56215883  1  -1.2624  0  -0.559646  -0.774103  0  2.110755  0
