# generated using pymatgen
data_H10PbC6S2N6O
_symmetry_space_group_name_H-M   'P 1'
_cell_length_a   7.49982067
_cell_length_b   9.35746290
_cell_length_c   9.09294751
_cell_angle_alpha   92.15775593
_cell_angle_beta   114.37511469
_cell_angle_gamma   90.01085975
_symmetry_Int_Tables_number   1
_chemical_formula_structural   H10PbC6S2N6O
_chemical_formula_sum   'H20 Pb2 C12 S4 N12 O2'
_cell_volume   580.75618279
_cell_formula_units_Z   2
loop_
 _symmetry_equiv_pos_site_id
 _symmetry_equiv_pos_as_xyz
  1  'x, y, z'
loop_
 _atom_site_type_symbol
 _atom_site_label
 _atom_site_symmetry_multiplicity
 _atom_site_fract_x
 _atom_site_fract_y
 _atom_site_fract_z
 _atom_site_occupancy
 _atom_site_hle17_bader_spin_density
 _atom_site_hle17_ddec_charge
 _atom_site_hle17_ddec_spin_density
 _atom_site_hle17_ddec_sum_bond_order
 _atom_site_hle17_magmom
 _atom_site_hse06_10hf_bader_spin_density
 _atom_site_hse06_10hf_ddec_charge
 _atom_site_hse06_10hf_ddec_spin_density
 _atom_site_hse06_10hf_ddec_sum_bond_order
 _atom_site_hse06_10hf_magmom
 _atom_site_hse06_bader_spin_density
 _atom_site_hse06_ddec_charge
 _atom_site_hse06_ddec_spin_density
 _atom_site_hse06_ddec_sum_bond_order
 _atom_site_hse06_magmom
 _atom_site_pbe_bader_spin_density
 _atom_site_pbe_cm5_charge
 _atom_site_pbe_ddec_charge
 _atom_site_pbe_ddec_spin_density
 _atom_site_pbe_ddec_sum_bond_order
 _atom_site_pbe_magmom
H  H0  1  0.84887804  0.18490352  0.93168580  1  0  0.391256  0  0.927227  0  0  0.347221  0  1.012252  0  0  0.358718  0  0.99605  0  0  0.275536  0.339039  0  1.023703  0
H  H1  1  0.91705374  0.31449692  0.06802551  1  0  0.391051  0  0.927443  0  0  0.347012  0  1.012766  0  0  0.35851  0  0.996564  0  0  0.27568  0.338828  0  1.024219  0
H  H2  1  0.15117191  0.81510417  0.06832784  1  0  0.391185  0  0.927339  0  0  0.347152  0  1.012367  0  0  0.358649  0  0.996166  0  0  0.275457  0.33897  0  1.023819  0
H  H3  1  0.08295124  0.68552476  0.93197695  1  0  0.391076  0  0.927399  0  0  0.347052  0  1.012694  0  0  0.358549  0  0.996494  0  0  0.275704  0.338868  0  1.024148  0
H  H4  1  0.05384386  0.57656631  0.33305326  1  0  0.104662  0  0.939479  0  0  0.119065  0  0.998478  0  0  0.12143  0  0.99575  0  0  0.13325  0.117213  0  1.000524  0
H  H5  1  0.72088675  0.92274122  0.66640386  1  0  0.104723  0  0.938155  0  0  0.118678  0  0.997649  0  0  0.121147  0  0.994835  0  0  0.132999  0.11673  0  0.99981  0
H  H6  1  0.94614871  0.42342197  0.66697975  1  0  0.104737  0  0.93952  0  0  0.119131  0  0.998502  0  0  0.121497  0  0.995775  0  0  0.133305  0.117261  0  1.000599  0
H  H7  1  0.27912989  0.07727609  0.33361111  1  0  0.104849  0  0.937851  0  0  0.118742  0  0.997421  0  0  0.121215  0  0.994607  0  0  0.13303  0.116794  0  0.999578  0
H  H8  1  0.58206944  0.67827768  0.51873622  1  0  0.100613  0  0.964496  0  0  0.116547  0  1.035689  0  0  0.117219  0  1.036012  0  0  0.101229  0.116163  0  1.035271  0
H  H9  1  0.06304160  0.82134439  0.48064398  1  0  0.100525  0  0.964511  0  0  0.116598  0  1.035639  0  0  0.117207  0  1.036063  0  0  0.101504  0.116247  0  1.035165  0
H  H10  1  0.41796970  0.32171190  0.48126634  1  0  0.100779  0  0.964392  0  0  0.116751  0  1.035569  0  0  0.117422  0  1.035897  0  0  0.101267  0.11636  0  1.035165  0
H  H11  1  0.93693108  0.17862175  0.51934500  1  0  0.100506  0  0.964568  0  0  0.11652  0  1.035748  0  0  0.117128  0  1.036173  0  0  0.101509  0.116169  0  1.035278  0
H  H12  1  0.35107954  0.73883181  0.50536996  1  0  0.100151  0  0.975587  0  0  0.114515  0  1.052677  0  0  0.11559  0  1.052602  0  0  0.099113  0.113808  0  1.052561  0
H  H13  1  0.84547475  0.76060601  0.49389497  1  0  0.099701  0  0.975064  0  0  0.114152  0  1.052233  0  0  0.115231  0  1.052176  0  0  0.09902  0.113407  0  1.052162  0
H  H14  1  0.64894255  0.26117159  0.49464510  1  0  0.100076  0  0.975578  0  0  0.114488  0  1.052669  0  0  0.115566  0  1.052586  0  0  0.099145  0.113778  0  1.052551  0
H  H15  1  0.15453918  0.23937519  0.50608440  1  0  0.099681  0  0.975049  0  0  0.114129  0  1.052235  0  0  0.11521  0  1.052172  0  0  0.099026  0.113406  0  1.052148  0
H  H16  1  0.44413907  0.79770767  0.36480858  1  0  0.097338  0  0.97406  0  0  0.113315  0  1.048833  0  0  0.113815  0  1.049275  0  0  0.09439  0.112062  0  1.050164  0
H  H17  1  0.07910798  0.70181552  0.63449602  1  0  0.09727  0  0.974233  0  0  0.113152  0  1.049393  0  0  0.113705  0  1.049783  0  0  0.094561  0.111859  0  1.050743  0
H  H18  1  0.55585604  0.20227443  0.63519200  1  0  0.097292  0  0.97401  0  0  0.113273  0  1.048834  0  0  0.113776  0  1.049276  0  0  0.09438  0.112021  0  1.05016  0
H  H19  1  0.92088648  0.29818994  0.36552853  1  0  0.097302  0  0.974297  0  0  0.113109  0  1.049483  0  0  0.113656  0  1.049885  0  0  0.094543  0.111816  0  1.050832  0
Pb  Pb20  1  0.46601885  0.24994865  0.99964717  1  0  1.077062  0  1.608521  0  0  0.879898  0  2.044241  0  0  0.937659  0  2.00813  0  0  0.498439  0.832682  0  2.075064  0
Pb  Pb21  1  0.53400088  0.75004253  0.00028514  1  0  1.077081  0  1.608537  0  0  0.87989  0  2.044287  0  0  0.937655  0  2.008175  0  0  0.498452  0.832704  0  2.075045  0
C  C22  1  0.42090210  0.50004729  0.24627501  1  0  0.28769  0  3.868848  0  0  0.253517  0  4.151074  0  0  0.271468  0  4.166931  0  0  0.202833  0.240341  0  4.139734  0
C  C23  1  0.17486296  0.99930653  0.75348794  1  0  0.287154  0  3.869335  0  0  0.25265  0  4.151567  0  0  0.270575  0  4.167478  0  0  0.202735  0.2395  0  4.140177  0
C  C24  1  0.57907375  0.49992297  0.75373503  1  0  0.287548  0  3.86959  0  0  0.253282  0  4.151936  0  0  0.271239  0  4.167793  0  0  0.202827  0.240108  0  4.140591  0
C  C25  1  0.82513168  0.00071750  0.24648695  1  0  0.287385  0  3.869119  0  0  0.252853  0  4.151422  0  0  0.270799  0  4.167295  0  0  0.20286  0.23969  0  4.14005  0
C  C26  1  0.15566493  0.53201610  0.28760047  1  0  0.145526  0  3.657281  0  0  0.08202  0  3.93114  0  0  0.095116  0  3.941001  0  0  0.147801  0.073728  0  3.924151  0
C  C27  1  0.86811523  0.96743464  0.71192588  1  0  0.148506  0  3.655282  0  0  0.084994  0  3.928963  0  0  0.097993  0  3.938752  0  0  0.149348  0.076759  0  3.922018  0
C  C28  1  0.84433309  0.46801293  0.71242088  1  0  0.145412  0  3.65696  0  0  0.081933  0  3.93079  0  0  0.095025  0  3.940649  0  0  0.14776  0.073639  0  3.923795  0
C  C29  1  0.13187548  0.03253975  0.28810475  1  0  0.148443  0  3.655529  0  0  0.085034  0  3.929184  0  0  0.098021  0  3.938982  0  0  0.14937  0.076803  0  3.92223  0
C  C30  1  0.43438620  0.70775677  0.43536570  1  0  -0.165077  0  3.650103  0  0  -0.271798  0  3.904793  0  0  -0.267818  0  3.912587  0  0  -0.137968  -0.274273  0  3.900125  0
C  C31  1  0.99881564  0.79183874  0.56403080  1  0  -0.16412  0  3.650512  0  0  -0.271327  0  3.905405  0  0  -0.26728  0  3.91301  0  0  -0.138783  -0.273841  0  3.900926  0
C  C32  1  0.56563862  0.29223801  0.56465758  1  0  -0.165222  0  3.649985  0  0  -0.272117  0  3.904766  0  0  -0.268145  0  3.912566  0  0  -0.138064  -0.274583  0  3.900094  0
C  C33  1  0.00117426  0.20816250  0.43598542  1  0  -0.16399  0  3.650156  0  0  -0.271055  0  3.904987  0  0  -0.267002  0  3.91258  0  0  -0.138635  -0.273586  0  3.900489  0
S  S34  1  0.65151957  0.51819292  0.25200733  1  0  -0.515028  0  1.97148  0  0  -0.4623  0  2.293412  0  0  -0.486028  0  2.291515  0  0  -0.177993  -0.441937  0  2.296024  0
S  S35  1  0.39981184  0.98117214  0.74784907  1  0  -0.513994  0  1.97054  0  0  -0.46117  0  2.292188  0  0  -0.484883  0  2.290312  0  0  -0.178009  -0.440832  0  2.294809  0
S  S36  1  0.34842515  0.48182478  0.74795485  1  0  -0.514876  0  1.97149  0  0  -0.462124  0  2.293479  0  0  -0.485854  0  2.291588  0  0  -0.177964  -0.441759  0  2.296089  0
S  S37  1  0.60019858  0.01884338  0.25211863  1  0  -0.5141  0  1.970726  0  0  -0.461278  0  2.292403  0  0  -0.484994  0  2.290507  0  0  -0.178098  -0.440944  0  2.295036  0
N  N38  1  0.28816934  0.39920244  0.16060277  1  0  -0.3551  0  3.073719  0  0  -0.300906  0  3.349593  0  0  -0.319699  0  3.367902  0  0  -0.235287  -0.287605  0  3.337183  0
N  N39  1  0.12787562  0.09999952  0.83930524  1  0  -0.354536  0  3.07439  0  0  -0.300244  0  3.350389  0  0  -0.319067  0  3.368745  0  0  -0.234863  -0.286923  0  3.337952  0
N  N40  1  0.71184286  0.60076249  0.83940606  1  0  -0.355296  0  3.074028  0  0  -0.301032  0  3.349903  0  0  -0.319846  0  3.368227  0  0  -0.235153  -0.28771  0  3.337459  0
N  N41  1  0.87207875  0.90000007  0.16064615  1  0  -0.354669  0  3.073549  0  0  -0.30036  0  3.34957  0  0  -0.319195  0  3.367917  0  0  -0.235006  -0.287037  0  3.337149  0
N  N42  1  0.12175138  0.41994204  0.18677125  1  0  -0.220104  0  3.079886  0  0  -0.178857  0  3.356606  0  0  -0.18737  0  3.370353  0  0  -0.217549  -0.172701  0  3.346706  0
N  N43  1  0.93519701  0.07939630  0.81297000  1  0  -0.221365  0  3.078856  0  0  -0.180363  0  3.355613  0  0  -0.188848  0  3.369349  0  0  -0.218823  -0.174231  0  3.345719  0
N  N44  1  0.87825864  0.58010871  0.81320787  1  0  -0.219906  0  3.079615  0  0  -0.178673  0  3.356295  0  0  -0.187177  0  3.370043  0  0  -0.217602  -0.172522  0  3.346402  0
N  N45  1  0.06479267  0.92059085  0.18707188  1  0  -0.221607  0  3.079202  0  0  -0.180597  0  3.355932  0  0  -0.189078  0  3.369674  0  0  -0.218885  -0.174471  0  3.346042  0
N  N46  1  0.34031089  0.58516411  0.32934710  1  0  -0.087827  0  3.544912  0  0  0.012472  0  3.766473  0  0  -0.004152  0  3.78905  0  0  -0.241893  0.023509  0  3.751322  0
N  N47  1  0.01099784  0.91434571  0.67016800  1  0  -0.090921  0  3.545938  0  0  0.010364  0  3.766755  0  0  -0.00625  0  3.789348  0  0  -0.242159  0.021421  0  3.751548  0
N  N48  1  0.65967320  0.41483601  0.67067700  1  0  -0.087607  0  3.544808  0  0  0.012758  0  3.766294  0  0  -0.003862  0  3.788873  0  0  -0.241844  0.023797  0  3.751135  0
N  N49  1  0.98897455  0.08566105  0.32982609  1  0  -0.091036  0  3.545822  0  0  0.010204  0  3.766654  0  0  -0.006411  0  3.789238  0  0  -0.242313  0.021262  0  3.751455  0
O  O50  1  0.80411014  0.24980893  0.99967067  1  0  -0.845125  0  1.935591  0  0  -0.769157  0  2.150959  0  0  -0.793939  0  2.12098  0  0  -0.585104  -0.750915  0  2.17218  0
O  O51  1  0.19591062  0.75020427  0.00032240  1  0  -0.845076  0  1.935624  0  0  -0.769112  0  2.150917  0  0  -0.79389  0  2.120944  0  0  -0.58508  -0.750872  0  2.172137  0
