# generated using pymatgen
data_KH2C3N3O2
_symmetry_space_group_name_H-M   'P 1'
_cell_length_a   6.39864288
_cell_length_b   9.59731742
_cell_length_c   10.33957351
_cell_angle_alpha   110.79177328
_cell_angle_beta   98.41208625
_cell_angle_gamma   110.55148251
_symmetry_Int_Tables_number   1
_chemical_formula_structural   KH2C3N3O2
_chemical_formula_sum   'K4 H8 C12 N12 O8'
_cell_volume   528.53658836
_cell_formula_units_Z   4
loop_
 _symmetry_equiv_pos_site_id
 _symmetry_equiv_pos_as_xyz
  1  'x, y, z'
loop_
 _atom_site_type_symbol
 _atom_site_label
 _atom_site_symmetry_multiplicity
 _atom_site_fract_x
 _atom_site_fract_y
 _atom_site_fract_z
 _atom_site_occupancy
 _atom_site_hle17_bader_spin_density
 _atom_site_hle17_ddec_charge
 _atom_site_hle17_ddec_spin_density
 _atom_site_hle17_ddec_sum_bond_order
 _atom_site_hle17_magmom
 _atom_site_hse06_10hf_bader_spin_density
 _atom_site_hse06_10hf_ddec_charge
 _atom_site_hse06_10hf_ddec_spin_density
 _atom_site_hse06_10hf_ddec_sum_bond_order
 _atom_site_hse06_10hf_magmom
 _atom_site_hse06_bader_spin_density
 _atom_site_hse06_ddec_charge
 _atom_site_hse06_ddec_spin_density
 _atom_site_hse06_ddec_sum_bond_order
 _atom_site_hse06_magmom
 _atom_site_pbe_bader_spin_density
 _atom_site_pbe_cm5_charge
 _atom_site_pbe_ddec_charge
 _atom_site_pbe_ddec_spin_density
 _atom_site_pbe_ddec_sum_bond_order
 _atom_site_pbe_magmom
K  K0  1  0.28577052  0.54937110  0.84208382  1  0  0.924422  0  0.428988  0  0  0.856279  0  0.629521  0  0  0.87181  0  0.606927  0  0  0.787379  0.843803  0  0.646613  0
K  K1  1  0.94327618  0.70744431  0.15841427  1  0  0.924169  0  0.429025  0  0  0.855728  0  0.630428  0  0  0.871494  0  0.607476  0  0  0.787226  0.84391  0  0.647028  0
K  K2  1  0.02993167  0.62452391  0.50400578  1  0  0.938577  0  0.432435  0  0  0.892304  0  0.61559  0  0  0.907202  0  0.591105  0  0  0.759711  0.880984  0  0.633426  0
K  K3  1  0.02554913  0.12062778  0.49614836  1  0  0.938507  0  0.432002  0  0  0.892575  0  0.614668  0  0  0.907404  0  0.590292  0  0  0.759607  0.880995  0  0.632855  0
H  H4  1  0.38429922  0.92287073  0.38512407  1  0  0.377214  0  0.945383  0  0  0.338756  0  1.023923  0  0  0.349683  0  1.007714  0  0  0.281387  0.33097  0  1.035465  0
H  H5  1  0.49940022  0.53799982  0.61489257  1  0  0.378564  0  0.943972  0  0  0.339932  0  1.022661  0  0  0.350921  0  1.006352  0  0  0.281897  0.332125  0  1.034239  0
H  H6  1  0.35718903  0.97331100  0.54428468  1  0  0.376799  0  0.949956  0  0  0.337828  0  1.027905  0  0  0.349096  0  1.011458  0  0  0.276655  0.32987  0  1.039535  0
H  H7  1  0.31315342  0.42896404  0.45580374  1  0  0.37785  0  0.948264  0  0  0.338999  0  1.026053  0  0  0.350213  0  1.009683  0  0  0.277715  0.330701  0  1.038142  0
H  H8  1  0.71144018  0.28486689  0.47032642  1  0  0.369442  0  0.958338  0  0  0.331376  0  1.03542  0  0  0.342493  0  1.019099  0  0  0.275259  0.323496  0  1.046995  0
H  H9  1  0.74114214  0.81451181  0.52950907  1  0  0.369819  0  0.957913  0  0  0.331529  0  1.035295  0  0  0.34263  0  1.019004  0  0  0.275222  0.323627  0  1.04686  0
H  H10  1  0.70547153  0.34043055  0.63326227  1  0  0.388668  0  0.924722  0  0  0.35135  0  1.00079  0  0  0.362063  0  0.984919  0  0  0.286875  0.343741  0  1.012049  0
H  H11  1  0.57217494  0.70688814  0.36666261  1  0  0.389553  0  0.923825  0  0  0.352004  0  0.999981  0  0  0.362771  0  0.984041  0  0  0.287638  0.344352  0  1.011278  0
C  C12  1  0.39617070  0.95350367  0.88029241  1  0  0.380631  0  3.805244  0  0  0.363138  0  4.071306  0  0  0.386871  0  4.073351  0  0  0.15947  0.346699  0  4.069889  0
C  C13  1  0.01564089  0.07282624  0.11969149  1  0  0.384427  0  3.80055  0  0  0.365663  0  4.06799  0  0  0.389686  0  4.069513  0  0  0.160469  0.349196  0  4.066712  0
C  C14  1  0.47533908  0.10367680  0.85769955  1  0  -0.005299  0  3.801055  0  0  -0.016818  0  4.063915  0  0  -0.021571  0  4.086988  0  0  0.083031  -0.013492  0  4.048396  0
C  C15  1  0.11714136  0.24558513  0.14227194  1  0  -0.005358  0  3.799838  0  0  -0.01652  0  4.062671  0  0  -0.021382  0  4.085587  0  0  0.083527  -0.013081  0  4.046922  0
C  C16  1  0.58990564  0.26510008  0.97152733  1  0  -0.012163  0  3.837557  0  0  -0.016824  0  4.100688  0  0  -0.021924  0  4.124456  0  0  0.079205  -0.013455  0  4.084399  0
C  C17  1  0.11787428  0.29330572  0.02844987  1  0  -0.013655  0  3.841291  0  0  -0.018028  0  4.10301  0  0  -0.023022  0  4.126668  0  0  0.078558  -0.014439  0  4.086738  0
C  C18  1  0.65000832  0.30398631  0.12670555  1  0  0.382251  0  3.805585  0  0  0.362541  0  4.073439  0  0  0.386588  0  4.074924  0  0  0.159258  0.346213  0  4.072014  0
C  C19  1  0.02301225  0.17738550  0.87331084  1  0  0.383156  0  3.807109  0  0  0.36438  0  4.073005  0  0  0.388417  0  4.074356  0  0  0.158972  0.347909  0  4.07177  0
C  C20  1  0.56946365  0.15408163  0.14934309  1  0  -0.003517  0  3.805178  0  0  -0.013574  0  4.068483  0  0  -0.018381  0  4.091342  0  0  0.085022  -0.010348  0  4.052991  0
C  C21  1  0.92013456  0.00483490  0.85065203  1  0  -0.002448  0  3.804099  0  0  -0.012854  0  4.066411  0  0  -0.017689  0  4.089269  0  0  0.086006  -0.00949  0  4.050836  0
C  C22  1  0.45217495  0.99264225  0.03556142  1  0  -0.012162  0  3.836927  0  0  -0.01797  0  4.100192  0  0  -0.023038  0  4.124027  0  0  0.07935  -0.014429  0  4.083828  0
C  C23  1  0.91647444  0.95692961  0.96439423  1  0  -0.013907  0  3.837779  0  0  -0.018877  0  4.10064  0  0  -0.024017  0  4.124406  0  0  0.078714  -0.015258  0  4.084331  0
N  N24  1  0.45953905  0.11812548  0.73166031  1  0  -0.229756  0  3.028018  0  0  -0.193458  0  3.29247  0  0  -0.200731  0  3.307029  0  0  -0.198909  -0.188478  0  3.282805  0
N  N25  1  0.22768924  0.38591894  0.26830211  1  0  -0.231146  0  3.028437  0  0  -0.195143  0  3.292833  0  0  -0.202468  0  3.307418  0  0  -0.199059  -0.189618  0  3.282758  0
N  N26  1  0.55890344  0.28078959  0.76697336  1  0  -0.085038  0  3.009817  0  0  -0.053469  0  3.293604  0  0  -0.056819  0  3.306208  0  0  -0.090534  -0.050965  0  3.284855  0
N  N27  1  0.29187126  0.51328177  0.23293895  1  0  -0.084633  0  3.010231  0  0  -0.053067  0  3.293905  0  0  -0.056307  0  3.306464  0  0  -0.090791  -0.050367  0  3.284944  0
N  N28  1  0.63948252  0.37296311  0.91203575  1  0  -0.299544  0  3.003441  0  0  -0.287159  0  3.296356  0  0  -0.292232  0  3.309965  0  0  -0.267925  -0.283389  0  3.286911  0
N  N29  1  0.22720830  0.46056013  0.08788866  1  0  -0.299438  0  3.003589  0  0  -0.287415  0  3.296367  0  0  -0.292559  0  3.310039  0  0  -0.267678  -0.283593  0  3.287192  0
N  N30  1  0.40448626  0.88504126  0.09540604  1  0  -0.301263  0  3.002746  0  0  -0.288401  0  3.294814  0  0  -0.293495  0  3.308526  0  0  -0.272807  -0.284692  0  3.28546  0
N  N31  1  0.80895064  0.78956166  0.90448320  1  0  -0.300956  0  3.003962  0  0  -0.288376  0  3.296281  0  0  -0.293489  0  3.310008  0  0  -0.272255  -0.284468  0  3.28662  0
N  N32  1  0.49010583  0.97778626  0.24043739  1  0  -0.089728  0  3.028678  0  0  -0.055704  0  3.311726  0  0  -0.059462  0  3.324659  0  0  -0.104026  -0.052876  0  3.30281  0
N  N33  1  0.74962488  0.73756338  0.75945362  1  0  -0.091055  0  3.032754  0  0  -0.057368  0  3.316152  0  0  -0.061022  0  3.328949  0  0  -0.10495  -0.054347  0  3.306897  0
N  N34  1  0.58985428  0.14031979  0.27567841  1  0  -0.22921  0  3.017173  0  0  -0.195209  0  3.281719  0  0  -0.202103  0  3.296053  0  0  -0.199324  -0.190444  0  3.27221  0
N  N35  1  0.81423065  0.86495756  0.72428815  1  0  -0.229883  0  3.019149  0  0  -0.19601  0  3.28395  0  0  -0.202926  0  3.298278  0  0  -0.199476  -0.190942  0  3.27403  0
O  O36  1  0.75914402  0.44724373  0.22575393  1  0  -0.520371  0  1.991177  0  0  -0.47916  0  2.223694  0  0  -0.497328  0  2.218522  0  0  -0.388378  -0.466697  0  2.227241  0
O  O37  1  0.03283241  0.22188925  0.77432828  1  0  -0.520501  0  1.991652  0  0  -0.479465  0  2.222879  0  0  -0.497561  0  2.217824  0  0  -0.38788  -0.466753  0  2.226446  0
O  O38  1  0.29530073  0.80981101  0.78126257  1  0  -0.520277  0  1.980929  0  0  -0.479498  0  2.210156  0  0  -0.497416  0  2.205122  0  0  -0.386586  -0.467118  0  2.213852  0
O  O39  1  0.01380307  0.02811556  0.21875359  1  0  -0.521947  0  1.978862  0  0  -0.481158  0  2.209409  0  0  -0.499073  0  2.204142  0  0  -0.387946  -0.468751  0  2.213282  0
O  O40  1  0.27422617  0.89378768  0.43960855  1  0  -0.926695  0  1.872249  0  0  -0.879851  0  2.064569  0  0  -0.897718  0  2.031295  0  0  -0.716548  -0.866822  0  2.087969  0
O  O41  1  0.33489730  0.45445897  0.56058003  1  0  -0.928937  0  1.869552  0  0  -0.88215  0  2.062121  0  0  -0.899957  0  2.028762  0  0  -0.718126  -0.868906  0  2.086018  0
O  O42  1  0.80967032  0.36005629  0.57333572  1  0  -0.901973  0  1.844212  0  0  -0.854959  0  2.023307  0  0  -0.87235  0  1.990887  0  0  -0.687194  -0.842227  0  2.045993  0
O  O43  1  0.73625083  0.78646491  0.42641403  1  0  -0.903189  0  1.842297  0  0  -0.855892  0  2.023017  0  0  -0.873303  0  1.990406  0  0  -0.68776  -0.843146  0  2.04601  0
