# generated using pymatgen
data_ZnPH4CO4
_symmetry_space_group_name_H-M   'P 1'
_cell_length_a   4.83836125
_cell_length_b   5.70477347
_cell_length_c   15.45463578
_cell_angle_alpha   90.00119061
_cell_angle_beta   89.99968094
_cell_angle_gamma   95.84829941
_symmetry_Int_Tables_number   1
_chemical_formula_structural   ZnPH4CO4
_chemical_formula_sum   'Zn4 P4 H16 C4 O16'
_cell_volume   424.35481701
_cell_formula_units_Z   4
loop_
 _symmetry_equiv_pos_site_id
 _symmetry_equiv_pos_as_xyz
  1  'x, y, z'
loop_
 _atom_site_type_symbol
 _atom_site_label
 _atom_site_symmetry_multiplicity
 _atom_site_fract_x
 _atom_site_fract_y
 _atom_site_fract_z
 _atom_site_occupancy
 _atom_site_hle17_bader_spin_density
 _atom_site_hle17_ddec_charge
 _atom_site_hle17_ddec_spin_density
 _atom_site_hle17_ddec_sum_bond_order
 _atom_site_hle17_magmom
 _atom_site_hse06_10hf_bader_spin_density
 _atom_site_hse06_10hf_ddec_charge
 _atom_site_hse06_10hf_ddec_spin_density
 _atom_site_hse06_10hf_ddec_sum_bond_order
 _atom_site_hse06_10hf_magmom
 _atom_site_hse06_bader_spin_density
 _atom_site_hse06_ddec_charge
 _atom_site_hse06_ddec_spin_density
 _atom_site_hse06_ddec_sum_bond_order
 _atom_site_hse06_magmom
 _atom_site_pbe_bader_spin_density
 _atom_site_pbe_cm5_charge
 _atom_site_pbe_ddec_charge
 _atom_site_pbe_ddec_spin_density
 _atom_site_pbe_ddec_sum_bond_order
 _atom_site_pbe_magmom
Zn  Zn0  1  0.44055368  0.94938111  0.77081078  1  0  1.248776  0  1.693009  0  0  1.090953  0  2.132917  0  0  1.135362  0  2.074332  0  0  0.706668  1.058901  0  2.174287  0
Zn  Zn1  1  0.05944004  0.55062102  0.27081464  1  0  1.248725  0  1.693043  0  0  1.090922  0  2.132916  0  0  1.135318  0  2.074331  0  0  0.706644  1.058865  0  2.174289  0
Zn  Zn2  1  0.55945511  0.05062498  0.22918918  1  0  1.248733  0  1.693264  0  0  1.090939  0  2.133211  0  0  1.135334  0  2.074628  0  0  0.706594  1.058879  0  2.174571  0
Zn  Zn3  1  0.94054746  0.44937745  0.72918856  1  0  1.248712  0  1.693215  0  0  1.090908  0  2.133128  0  0  1.135305  0  2.074542  0  0  0.706621  1.058851  0  2.174496  0
P  P4  1  0.99262190  0.96307009  0.64217192  1  0  1.511957  0  4.763083  0  0  1.355352  0  5.248712  0  0  1.40341  0  5.216115  0  0  0.330107  1.32173  0  5.270428  0
P  P5  1  0.50738755  0.53692678  0.14217641  1  0  1.511873  0  4.762552  0  0  1.355347  0  5.248218  0  0  1.403403  0  5.21562  0  0  0.330267  1.3217  0  5.269927  0
P  P6  1  0.00738189  0.03692532  0.35782093  1  0  1.512067  0  4.763294  0  0  1.355501  0  5.248835  0  0  1.403533  0  5.216244  0  0  0.330205  1.321898  0  5.270564  0
P  P7  1  0.49262052  0.46307050  0.85782096  1  0  1.512076  0  4.7639  0  0  1.355495  0  5.249412  0  0  1.403521  0  5.216834  0  0  0.33005  1.321889  0  5.27115  0
H  H8  1  0.96660603  0.86117209  0.86093051  1  0  0.443512  0  0.848327  0  0  0.413454  0  0.909629  0  0  0.423638  0  0.894855  0  0  0.296597  0.406131  0  0.920281  0
H  H9  1  0.53340711  0.63883539  0.36093185  1  0  0.443509  0  0.848325  0  0  0.413439  0  0.90965  0  0  0.423625  0  0.894874  0  0  0.296567  0.406117  0  0.920301  0
H  H10  1  0.03338754  0.13882479  0.13906880  1  0  0.443559  0  0.848292  0  0  0.413508  0  0.909582  0  0  0.423694  0  0.894807  0  0  0.29658  0.40618  0  0.92024  0
H  H11  1  0.46659417  0.36115468  0.63906811  1  0  0.443571  0  0.84823  0  0  0.413516  0  0.909545  0  0  0.423706  0  0.894761  0  0  0.296577  0.406189  0  0.920203  0
H  H12  1  0.08092221  0.13395847  0.86696361  1  0  0.421386  0  0.872746  0  0  0.391997  0  0.942944  0  0  0.402172  0  0.928068  0  0  0.296338  0.384685  0  0.953633  0
H  H13  1  0.41908747  0.36605212  0.36696729  1  0  0.421299  0  0.872944  0  0  0.391908  0  0.943098  0  0  0.402083  0  0.928221  0  0  0.296298  0.384601  0  0.953781  0
H  H14  1  0.91909078  0.86602314  0.13303571  1  0  0.421392  0  0.872803  0  0  0.392068  0  0.942864  0  0  0.402243  0  0.927988  0  0  0.296322  0.384754  0  0.953557  0
H  H15  1  0.58092075  0.63394692  0.63303138  1  0  0.421373  0  0.872854  0  0  0.392003  0  0.942975  0  0  0.40218  0  0.928093  0  0  0.296344  0.384697  0  0.953657  0
H  H16  1  0.28719383  0.91729957  0.52260695  1  0  0.139062  0  0.928076  0  0  0.153926  0  0.981678  0  0  0.156211  0  0.981423  0  0  0.11038  0.152254  0  0.982027  0
H  H17  1  0.21280389  0.58270457  0.02261660  1  0  0.138992  0  0.92823  0  0  0.153907  0  0.981768  0  0  0.156191  0  0.981514  0  0  0.110338  0.152236  0  0.982117  0
H  H18  1  0.71282032  0.08269613  0.47739172  1  0  0.139045  0  0.928096  0  0  0.153849  0  0.981782  0  0  0.15613  0  0.981531  0  0  0.110346  0.15218  0  0.982128  0
H  H19  1  0.78717540  0.41732003  0.97738983  1  0  0.139082  0  0.927942  0  0  0.153819  0  0.981702  0  0  0.156093  0  0.981469  0  0  0.110347  0.152152  0  0.982042  0
H  H20  1  0.97358141  0.72969807  0.51474456  1  0  0.138798  0  0.922762  0  0  0.156114  0  0.97269  0  0  0.158206  0  0.972635  0  0  0.111681  0.154393  0  0.973288  0
H  H21  1  0.52640007  0.77031197  0.01475468  1  0  0.138847  0  0.922746  0  0  0.156218  0  0.972611  0  0  0.158296  0  0.972567  0  0  0.111724  0.154478  0  0.973237  0
H  H22  1  0.02639914  0.27029142  0.48525670  1  0  0.138801  0  0.922668  0  0  0.156105  0  0.97261  0  0  0.158195  0  0.972555  0  0  0.111677  0.154382  0  0.973218  0
H  H23  1  0.47359788  0.22971315  0.98525240  1  0  0.13889  0  0.922486  0  0  0.156204  0  0.972404  0  0  0.158292  0  0.972355  0  0  0.111736  0.154478  0  0.973009  0
C  C24  1  0.06051407  0.91089661  0.52960373  1  0  -0.383479  0  3.677239  0  0  -0.403051  0  3.924577  0  0  -0.411198  0  3.933736  0  0  -0.16117  -0.397312  0  3.918383  0
C  C25  1  0.43947865  0.58912360  0.02959880  1  0  -0.38335  0  3.677088  0  0  -0.402998  0  3.924279  0  0  -0.411118  0  3.93341  0  0  -0.161185  -0.397266  0  3.918115  0
C  C26  1  0.93948706  0.08909169  0.47038912  1  0  -0.383477  0  3.676985  0  0  -0.403059  0  3.924412  0  0  -0.41121  0  3.933599  0  0  -0.161197  -0.39733  0  3.918228  0
C  C27  1  0.56050059  0.41092560  0.97037593  1  0  -0.383708  0  3.677113  0  0  -0.40315  0  3.924382  0  0  -0.411273  0  3.933509  0  0  -0.161213  -0.397451  0  3.918277  0
O  O28  1  0.13058493  0.77010958  0.69487070  1  0  -0.91515  0  2.106708  0  0  -0.808291  0  2.412978  0  0  -0.838502  0  2.386177  0  0  -0.379446  -0.786643  0  2.431223  0
O  O29  1  0.36941434  0.72989548  0.19487990  1  0  -0.915277  0  2.106845  0  0  -0.808383  0  2.413073  0  0  -0.838621  0  2.386296  0  0  -0.379522  -0.786711  0  2.431311  0
O  O30  1  0.86941105  0.22986628  0.30513121  1  0  -0.915151  0  2.107144  0  0  -0.808325  0  2.413435  0  0  -0.838519  0  2.386616  0  0  -0.379437  -0.786681  0  2.4316  0
O  O31  1  0.63058447  0.27014020  0.80513494  1  0  -0.915135  0  2.10735  0  0  -0.808292  0  2.413631  0  0  -0.838519  0  2.386847  0  0  -0.379352  -0.786571  0  2.431633  0
O  O32  1  0.14372282  0.20538651  0.66856316  1  0  -0.896497  0  2.04147  0  0  -0.796621  0  2.321889  0  0  -0.825098  0  2.297311  0  0  -0.368468  -0.77611  0  2.338715  0
O  O33  1  0.35627014  0.29458437  0.16856318  1  0  -0.896414  0  2.041038  0  0  -0.796659  0  2.321536  0  0  -0.825145  0  2.296964  0  0  -0.368485  -0.776118  0  2.338333  0
O  O34  1  0.85628005  0.79462293  0.33143745  1  0  -0.896526  0  2.041578  0  0  -0.796562  0  2.321912  0  0  -0.825038  0  2.297348  0  0  -0.368511  -0.776066  0  2.338749  0
O  O35  1  0.64371496  0.70535956  0.83143744  1  0  -0.896512  0  2.041635  0  0  -0.796655  0  2.322071  0  0  -0.825127  0  2.2975  0  0  -0.368552  -0.776153  0  2.338898  0
O  O36  1  0.67782142  0.94592040  0.65632129  1  0  -0.87665  0  2.012748  0  0  -0.781779  0  2.280828  0  0  -0.810657  0  2.260996  0  0  -0.369883  -0.761164  0  2.2939  0
O  O37  1  0.82219072  0.55406153  0.15632794  1  0  -0.876573  0  2.012756  0  0  -0.781863  0  2.28097  0  0  -0.810702  0  2.261101  0  0  -0.36992  -0.761199  0  2.293989  0
O  O38  1  0.32217393  0.05407302  0.34367738  1  0  -0.876703  0  2.012975  0  0  -0.781871  0  2.281071  0  0  -0.81071  0  2.261216  0  0  -0.369933  -0.761222  0  2.294077  0
O  O39  1  0.17783644  0.44594156  0.84367590  1  0  -0.876664  0  2.012857  0  0  -0.781843  0  2.28096  0  0  -0.810677  0  2.261102  0  0  -0.369914  -0.761192  0  2.293951  0
O  O40  1  0.13615585  0.97165255  0.87042720  1  0  -0.831699  0  1.881081  0  0  -0.772006  0  2.085562  0  0  -0.793496  0  2.052314  0  0  -0.572719  -0.756858  0  2.109113  0
O  O41  1  0.36384614  0.52834310  0.37043488  1  0  -0.831568  0  1.881056  0  0  -0.771865  0  2.085448  0  0  -0.79336  0  2.052227  0  0  -0.572667  -0.756713  0  2.108997  0
O  O42  1  0.86384350  0.02833922  0.12957341  1  0  -0.831774  0  1.88112  0  0  -0.772105  0  2.085365  0  0  -0.793601  0  2.052124  0  0  -0.572709  -0.756945  0  2.108925  0
O  O43  1  0.63616430  0.47165777  0.62956961  1  0  -0.831729  0  1.881031  0  0  -0.772073  0  2.085343  0  0  -0.793572  0  2.05211  0  0  -0.572725  -0.756917  0  2.108892  0
