# generated using pymatgen
data_Zn2H15C28Br2N3O10
_symmetry_space_group_name_H-M   'P 1'
_cell_length_a   9.71974877
_cell_length_b   11.06973742
_cell_length_c   11.06157161
_cell_angle_alpha   96.02199145
_cell_angle_beta   89.96693348
_cell_angle_gamma   92.07433672
_symmetry_Int_Tables_number   1
_chemical_formula_structural   Zn2H15C28Br2N3O10
_chemical_formula_sum   'Zn2 H15 C28 Br2 N3 O10'
_cell_volume   1182.82100280
_cell_formula_units_Z   1
loop_
 _symmetry_equiv_pos_site_id
 _symmetry_equiv_pos_as_xyz
  1  'x, y, z'
loop_
 _atom_site_type_symbol
 _atom_site_label
 _atom_site_symmetry_multiplicity
 _atom_site_fract_x
 _atom_site_fract_y
 _atom_site_fract_z
 _atom_site_occupancy
 _atom_site_pbe_bader_charge
 _atom_site_pbe_bader_spin_density
 _atom_site_pbe_cm5_charge
 _atom_site_pbe_ddec_charge
 _atom_site_pbe_ddec_spin_density
 _atom_site_pbe_ddec_sum_bond_order
 _atom_site_pbe_magmom
Zn  Zn0  1  0.35723076  0.50444308  0.49998198  1  1.26184  0  0.667224  0.814909  0  2.418586  0
Zn  Zn1  1  0.64318936  0.51419986  0.50127801  1  1.280759  0  0.668017  0.816672  0  2.424422  0
H  H2  1  0.52108684  0.16177703  0.66534307  1  0.037722  0  0.106104  0.110863  0  0.984445  0
H  H3  1  0.48995726  0.79214308  0.08865792  1  0.099962  0  0.10488  0.119332  0  1.008473  0
H  H4  1  0.51712493  0.73759173  0.29758341  1  0.084781  0  0.105512  0.109605  0  1.045489  0
H  H5  1  0.52409422  0.94265058  0.69512542  1  0.083333  0  0.100843  0.107152  0  1.003221  0
H  H6  1  0.71641946  0.51159786  0.89094318  1  0.089291  0  0.103344  0.107244  0  1.004319  0
H  H7  1  0.71304660  0.51453517  0.11649242  1  0.089703  0  0.105818  0.113291  0  0.996855  0
H  H8  1  0.16500303  0.46236284  0.10991037  1  0.124426  0  0.109302  0.106175  0  0.958276  0
H  H9  1  0.16833564  0.45214286  0.87917635  1  0.054739  0  0.095856  0.109809  0  0.996844  0
H  H10  1  0.18232154  0.61482760  0.89221003  1  0.041431  0  0.098363  0.120869  0  0.982603  0
H  H11  1  0.88150937  0.66198434  0.40556237  1  0.146029  0  0.136601  0.121135  0  0.967868  0
H  H12  1  0.14021454  0.65777037  0.40759427  1  0.174302  0  0.123075  0.107018  0  1.016382  0
H  H13  1  0.11112744  0.23154975  0.56366377  1  0.104112  0  0.116235  0.143303  0  0.959944  0
H  H14  1  0.11768999  0.32367216  0.70640678  1  0.079691  0  0.109125  0.127456  0  0.988139  0
H  H15  1  0.84955761  0.23716144  0.56537182  1  0.102008  0  0.11447  0.14267  0  0.968043  0
H  H16  1  0.85695928  0.33139628  0.70675222  1  0.085653  0  0.112014  0.133301  0  0.967921  0
C  C17  1  0.49959505  0.50975025  0.73585046  1  1.530201  0  0.21436  0.593868  0  4.186866  0
C  C18  1  0.49434563  0.26991058  0.47312213  1  1.584904  0  0.210482  0.589469  0  4.209718  0
C  C19  1  0.49338146  0.52053554  0.26704487  1  1.575198  0  0.211771  0.580359  0  4.217083  0
C  C20  1  0.51349722  0.74961654  0.51810522  1  1.588134  0  0.215096  0.600371  0  4.189336  0
C  C21  1  0.46214248  0.07178162  0.24551776  1  0.206577  0  0.069189  -0.029025  0  3.913292  0
C  C22  1  0.46266041  0.98269716  0.14802583  1  -0.092194  0  -0.01336  0.061245  0  3.983854  0
C  C23  1  0.48581577  0.86109674  0.16614782  1  0.075763  0  -0.097653  -0.13184  0  4.040206  0
C  C24  1  0.50096547  0.83148852  0.28266492  1  -7.3e-05  0  -0.081597  -0.096803  0  3.958714  0
C  C25  1  0.49799492  0.91985444  0.38494547  1  0.015999  0  -0.000237  0.057416  0  3.952736  0
C  C26  1  0.48476871  0.04632329  0.36784574  1  0.038376  0  0.006101  0.026572  0  3.923746  0
C  C27  1  0.49598354  0.13347013  0.47266347  1  0.040299  0  -0.012389  -0.062648  0  3.930034  0
C  C28  1  0.51174220  0.09384276  0.58653192  1  -0.02484  0  -0.086902  -0.102731  0  4.009789  0
C  C29  1  0.51517087  0.96987058  0.60361127  1  -0.073542  0  -0.091243  -0.109996  0  4.017473  0
C  C30  1  0.50934073  0.88352922  0.50426020  1  0.006186  0  -0.004166  -0.043303  0  3.929309  0
C  C31  1  0.37560306  0.52792782  0.93782351  1  -0.087074  0  -0.001705  0.075167  0  3.887308  0
C  C32  1  0.49706072  0.51771573  0.87121741  1  0.038265  0  -0.013331  -0.07193  0  3.96781  0
C  C33  1  0.61904656  0.51615698  0.93981868  1  -0.018342  0  -0.081198  -0.094551  0  3.973308  0
C  C34  1  0.61734101  0.51896801  0.06625095  1  -0.008243  0  -0.07951  -0.088404  0  3.953552  0
C  C35  1  0.49375881  0.52547235  0.13282168  1  -0.07024  0  -0.00605  -0.048888  0  3.952431  0
C  C36  1  0.37425578  0.53298039  0.06460572  1  0.050238  0  -0.010646  0.011337  0  3.890127  0
C  C37  1  0.21951073  0.53653365  0.06972781  1  0.000851  0  -0.058236  0.038197  0  3.714889  0
C  C38  1  0.22049880  0.53300632  0.92715556  1  0.027656  0  -0.153706  -0.237999  0  3.876424  0
C  C39  1  0.92267590  0.42557971  0.54941518  1  0.533505  0  0.146764  0.201187  0  3.857449  0
C  C40  1  0.93429973  0.59225008  0.44810396  1  0.515754  0  0.067374  0.049381  0  3.859118  0
C  C41  1  0.07769147  0.59027968  0.44969066  1  0.410133  0  0.06389  0.050364  0  3.865778  0
C  C42  1  0.06591770  0.42308552  0.55029379  1  0.5963  0  0.147223  0.198685  0  3.853438  0
C  C43  1  0.06807794  0.31061795  0.61668236  1  -0.054026  0  -0.135769  -0.227098  0  3.816565  0
C  C44  1  0.90438891  0.31431785  0.61677260  1  0.001745  0  -0.137006  -0.228182  0  3.819678  0
Br  Br45  1  0.14119726  0.68718456  0.15015107  1  -0.161099  0  -0.030345  -0.141818  0  1.275808  0
Br  Br46  1  0.43573211  0.01948077  0.98594374  1  -0.043241  0  0.028719  -0.05413  0  1.376621  0
N  N47  1  0.85347812  0.50898239  0.49933285  1  -1.217882  0  -0.288904  -0.178697  0  3.467971  0
N  N48  1  0.14659333  0.50448122  0.50186030  1  -1.212002  0  -0.288341  -0.17541  0  3.458489  0
N  N49  1  0.43954751  0.19696962  0.21731835  1  0.39433  0  0.054184  0.518815  0  4.246834  0
O  O50  1  0.38327608  0.49587651  0.68170240  1  -1.15991  0  -0.315609  -0.539333  0  2.313523  0
O  O51  1  0.61659041  0.51707381  0.68495806  1  -1.160988  0  -0.316398  -0.543585  0  2.330543  0
O  O52  1  0.37763778  0.31689902  0.46690470  1  -1.153324  0  -0.313038  -0.538023  0  2.300104  0
O  O53  1  0.61028919  0.32620477  0.48756227  1  -1.155749  0  -0.310127  -0.543494  0  2.324523  0
O  O54  1  0.37610190  0.51760897  0.31812507  1  -1.15127  0  -0.310151  -0.532841  0  2.350427  0
O  O55  1  0.60978460  0.52138937  0.32012852  1  -1.157367  0  -0.314998  -0.544261  0  2.351043  0
O  O56  1  0.39786652  0.69349561  0.52550091  1  -1.161961  0  -0.315999  -0.548684  0  2.280857  0
O  O57  1  0.63145894  0.70385946  0.51789438  1  -1.155759  0  -0.316338  -0.54217  0  2.270885  0
O  O58  1  0.54331804  0.26479812  0.21486332  1  -0.437552  0  -0.104924  -0.295622  0  1.954029  0
O  O59  1  0.32052498  0.22332510  0.19511773  1  -0.413516  0  -0.122058  -0.311776  0  1.902912  0
