# generated using pymatgen
data_NiH34C38N10(ClO2)2
_symmetry_space_group_name_H-M   'P 1'
_cell_length_a   7.61710746
_cell_length_b   18.11821027
_cell_length_c   18.76538548
_cell_angle_alpha   89.97316400
_cell_angle_beta   90.00183032
_cell_angle_gamma   95.76588830
_symmetry_Int_Tables_number   1
_chemical_formula_structural   NiH34C38N10(ClO2)2
_chemical_formula_sum   'Ni2 H68 C76 N20 Cl4 O8'
_cell_volume   2576.67721111
_cell_formula_units_Z   2
loop_
 _symmetry_equiv_pos_site_id
 _symmetry_equiv_pos_as_xyz
  1  'x, y, z'
loop_
 _atom_site_type_symbol
 _atom_site_label
 _atom_site_symmetry_multiplicity
 _atom_site_fract_x
 _atom_site_fract_y
 _atom_site_fract_z
 _atom_site_occupancy
 _atom_site_pbe_bader_charge
 _atom_site_pbe_bader_spin_density
 _atom_site_pbe_cm5_charge
 _atom_site_pbe_ddec_charge
 _atom_site_pbe_ddec_spin_density
 _atom_site_pbe_ddec_sum_bond_order
 _atom_site_pbe_magmom
Ni  Ni0  1  0.50000486  0.49999889  0.50000058  1  1.035599  -1.493905  0.54567  0.537416  -1.735035  2.598521  -1.483
Ni  Ni1  1  0.99999722  0.99999863  0.00000143  1  1.035473  -1.494263  0.545381  0.53706  -1.735261  2.593685  -1.484
H  H2  1  0.17593870  0.38594062  0.99126235  1  0.128301  2.2e-05  0.114114  0.123834  3.2e-05  1.008555  0.0
H  H3  1  0.32406082  0.11405725  0.49125098  1  0.128261  2.2e-05  0.114061  0.123796  3.2e-05  1.008504  0.0
H  H4  1  0.82406549  0.61405606  0.00874041  1  0.128162  2.2e-05  0.114154  0.123903  3.2e-05  1.008523  0.0
H  H5  1  0.67593319  0.88594610  0.50874859  1  0.12812  2.2e-05  0.114088  0.123815  3.2e-05  1.008546  0.0
H  H6  1  0.05662872  0.42167357  0.11085749  1  0.067705  -2e-06  0.111369  0.107661  -0.0  0.973436  0.0
H  H7  1  0.44334499  0.07827320  0.61085079  1  0.067405  -2e-06  0.111347  0.107491  -0.0  0.973688  0.0
H  H8  1  0.94337719  0.57832477  0.88914421  1  0.067727  -2e-06  0.111359  0.107692  -0.0  0.973458  0.0
H  H9  1  0.55665324  0.92173126  0.38914878  1  0.067289  -2e-06  0.111339  0.107467  -0.0  0.973771  0.0
H  H10  1  0.11119520  0.55699697  0.14908804  1  0.114801  2e-06  0.118762  0.13013  6e-06  0.988748  0.0
H  H11  1  0.38874528  0.94293081  0.64910506  1  0.11371  2e-06  0.118762  0.129998  6e-06  0.988618  0.0
H  H12  1  0.88879971  0.44300472  0.85090940  1  0.114764  2e-06  0.118747  0.130134  6e-06  0.988717  0.0
H  H13  1  0.61125253  0.05707198  0.35089344  1  0.11364  2e-06  0.118733  0.129979  6e-06  0.9886  0.0
H  H14  1  0.57260909  0.46998121  0.79310016  1  0.110341  -6.7e-05  0.120398  0.106353  -2.6e-05  0.96941  0.0
H  H15  1  0.92745334  0.03006029  0.29306477  1  0.110559  -6.6e-05  0.120486  0.106526  -2.5e-05  0.969188  0.0
H  H16  1  0.42739710  0.53001824  0.20690101  1  0.110401  -6.6e-05  0.120403  0.106328  -2.6e-05  0.969452  0.0
H  H17  1  0.07254366  0.96993917  0.70693639  1  0.110591  -6.6e-05  0.120489  0.106556  -2.5e-05  0.969129  0.0
H  H18  1  0.62313745  0.56737103  0.78334932  1  0.053704  -7.7e-05  0.115555  0.095216  -3.1e-05  0.951381  0.0
H  H19  1  0.87687119  0.93264815  0.28339778  1  0.053726  -7.7e-05  0.115493  0.095266  -3e-05  0.950902  0.0
H  H20  1  0.37687661  0.43262841  0.21665664  1  0.05377  -7.7e-05  0.115545  0.095212  -3e-05  0.951353  0.0
H  H21  1  0.12312359  0.06735298  0.71660338  1  0.053757  -7.7e-05  0.115483  0.09525  -3e-05  0.950958  0.0
H  H22  1  0.15108481  0.53686115  0.78535052  1  0.05267  2.7e-05  0.099164  0.09362  8.7e-05  1.021362  0.0
H  H23  1  0.34895371  0.96315238  0.28538373  1  0.051623  2.7e-05  0.099069  0.093332  8.7e-05  1.02164  0.0
H  H24  1  0.84893061  0.46314384  0.21465011  1  0.052586  2.7e-05  0.099145  0.093592  8.7e-05  1.021373  0.0
H  H25  1  0.65104025  0.03684542  0.71461903  1  0.051604  2.7e-05  0.099103  0.093342  8.7e-05  1.021661  0.0
H  H26  1  0.96576211  0.52725552  0.67255179  1  0.109386  -0.001161  0.1012  0.110131  -0.000565  1.009574  0.0
H  H27  1  0.53427240  0.97272476  0.17258570  1  0.109753  -0.001159  0.101248  0.110098  -0.000564  1.009798  0.0
H  H28  1  0.03425200  0.47274947  0.32744777  1  0.109318  -0.001161  0.101191  0.110116  -0.000565  1.009644  0.0
H  H29  1  0.46572198  0.02727470  0.82741600  1  0.109689  -0.001159  0.101232  0.110078  -0.000564  1.009814  0.0
H  H30  1  0.11405891  0.51168193  0.55704786  1  0.124933  -0.001832  0.098722  0.078023  -0.000659  1.075964  -0.001
H  H31  1  0.38593787  0.98827104  0.05707440  1  0.124422  -0.001835  0.098806  0.078009  -0.000661  1.076256  -0.001
H  H32  1  0.88596212  0.48831917  0.44295171  1  0.124819  -0.001832  0.09871  0.078009  -0.000659  1.075925  -0.001
H  H33  1  0.61405705  0.01173065  0.94292783  1  0.124444  -0.001835  0.098816  0.078007  -0.000661  1.076217  -0.001
H  H34  1  0.59996032  0.50313047  0.65293316  1  0.138001  -0.001636  0.100154  0.088979  -0.000388  1.056396  -0.001
H  H35  1  0.90010144  0.99683379  0.15293416  1  0.138784  -0.001639  0.100202  0.089001  -0.000389  1.056376  -0.001
H  H36  1  0.40005152  0.49687064  0.34707014  1  0.138157  -0.001636  0.100101  0.088917  -0.000388  1.056327  -0.001
H  H37  1  0.09989121  0.00316402  0.84706701  1  0.138877  -0.001639  0.100174  0.088994  -0.000389  1.056502  -0.001
H  H38  1  0.36666476  0.80427396  0.09263084  1  0.087502  -0.000163  0.117974  0.105983  -5.1e-05  0.971438  0.0
H  H39  1  0.13328547  0.69564847  0.59264851  1  0.088116  -0.000163  0.118066  0.106003  -5.1e-05  0.972237  0.0
H  H40  1  0.63333590  0.19572439  0.90735913  1  0.08738  -0.000163  0.118005  0.106098  -5.1e-05  0.971555  0.0
H  H41  1  0.86671406  0.30435598  0.40735692  1  0.08792  -0.000163  0.118006  0.105864  -5.1e-05  0.972165  0.0
H  H42  1  0.36809035  0.82676585  0.00025088  1  0.116066  -0.000524  0.100037  0.094359  -0.000409  1.015697  0.0
H  H43  1  0.13190047  0.67325688  0.50027764  1  0.116137  -0.000527  0.100228  0.094647  -0.00041  1.015387  0.0
H  H44  1  0.63190085  0.17323141  0.99974016  1  0.116246  -0.000524  0.100035  0.094347  -0.000409  1.015738  0.0
H  H45  1  0.86810038  0.32674757  0.49972832  1  0.116006  -0.000528  0.100121  0.094478  -0.00041  1.015408  0.0
H  H46  1  0.67242350  0.70090984  0.08888118  1  0.182644  2e-06  0.104564  0.119326  0.0001  1.048018  0.0
H  H47  1  0.82750928  0.79903739  0.58889284  1  0.181845  2e-06  0.104479  0.119487  0.0001  1.047624  0.0
H  H48  1  0.32757110  0.29908518  0.91110986  1  0.182607  2e-06  0.104576  0.119264  9.9e-05  1.048127  0.0
H  H49  1  0.17248364  0.20096152  0.41111579  1  0.182189  2e-06  0.104478  0.119446  0.0001  1.047654  0.0
H  H50  1  0.99900248  0.73551525  0.09386973  1  0.121066  -0.000935  0.102678  0.118021  -0.000452  1.035129  0.0
H  H51  1  0.50091964  0.76440295  0.59385454  1  0.12028  -0.000937  0.102758  0.117921  -0.000453  1.034759  0.0
H  H52  1  0.00099066  0.26447922  0.90612771  1  0.120767  -0.000936  0.102695  0.117978  -0.000452  1.035136  0.0
H  H53  1  0.49907074  0.23559098  0.40614982  1  0.120324  -0.000937  0.102812  0.117985  -0.000453  1.034701  0.0
H  H54  1  0.12052786  0.85985202  0.04655740  1  0.093461  -0.001673  0.104807  0.074722  -0.000421  1.06974  -0.001
H  H55  1  0.37945333  0.64011052  0.54653039  1  0.093854  -0.001671  0.104807  0.07491  -0.000419  1.070027  -0.001
H  H56  1  0.87947122  0.14014522  0.95344536  1  0.093462  -0.001673  0.1048  0.074773  -0.000421  1.069723  -0.001
H  H57  1  0.62054665  0.35988505  0.45347131  1  0.0938  -0.001671  0.104828  0.074944  -0.000419  1.069956  -0.001
H  H58  1  0.62186570  0.91804454  0.00132265  1  0.087229  -0.001937  0.107545  0.085034  -0.000747  1.052222  -0.001
H  H59  1  0.87814258  0.58196178  0.50131559  1  0.086788  -0.001936  0.107553  0.085094  -0.000747  1.052057  -0.001
H  H60  1  0.37813351  0.08195326  0.99867318  1  0.087016  -0.001937  0.107573  0.08507  -0.000747  1.052226  -0.001
H  H61  1  0.12186573  0.41804100  0.49868504  1  0.086765  -0.001936  0.107522  0.085026  -0.000747  1.052179  -0.001
H  H62  1  0.44233425  0.58505245  0.88318011  1  0.4686  -1e-05  0.314141  0.262874  -1e-06  0.966821  0.0
H  H63  1  0.05772071  0.91497349  0.38322398  1  0.468639  -1e-05  0.314109  0.262881  -1e-06  0.966681  0.0
H  H64  1  0.55766849  0.41494367  0.11682319  1  0.468574  -1e-05  0.3141  0.262845  -1e-06  0.966903  0.0
H  H65  1  0.94227461  0.08502986  0.61677771  1  0.468748  -1e-05  0.314144  0.262975  -1e-06  0.966714  0.0
H  H66  1  0.39684852  0.69011061  0.98020438  1  0.463147  -6e-06  0.31225  0.258425  4e-06  0.966528  0.0
H  H67  1  0.10318637  0.80990764  0.48024476  1  0.46397  -7e-06  0.312345  0.258588  4e-06  0.966429  0.0
H  H68  1  0.60315395  0.30988441  0.01979199  1  0.463829  -6e-06  0.312308  0.258525  4e-06  0.966429  0.0
H  H69  1  0.89679950  0.19009461  0.51975800  1  0.463921  -7e-06  0.312371  0.258557  4e-06  0.966578  0.0
C  C70  1  0.35146148  0.47718963  0.89688662  1  1.437161  -0.000211  0.232448  0.421348  -0.000132  4.186016  0.0
C  C71  1  0.14854546  0.02284905  0.39687918  1  1.434421  -0.000211  0.232706  0.421939  -0.000132  4.185939  0.0
C  C72  1  0.64853863  0.52280650  0.10311188  1  1.437039  -0.000211  0.232647  0.421742  -0.000132  4.185761  0.0
C  C73  1  0.85144882  0.97715541  0.60311985  1  1.434691  -0.000211  0.232784  0.422002  -0.000132  4.185796  0.0
C  C74  1  0.28326944  0.49779780  0.96871697  1  0.485776  7e-06  0.112204  0.111003  1.9e-05  4.024996  0.0
C  C75  1  0.21672645  0.00221434  0.46872934  1  0.485992  7e-06  0.112361  0.111163  2e-05  4.024622  0.0
C  C76  1  0.71673344  0.50219888  0.03128313  1  0.485782  7e-06  0.112225  0.111005  1.9e-05  4.024924  0.0
C  C77  1  0.78326914  0.99779012  0.53126916  1  0.486021  7e-06  0.112326  0.111236  2e-05  4.024227  0.0
C  C78  1  0.19365111  0.44268710  0.01108053  1  0.017557  -0.000177  -0.073389  -0.129047  -9.6e-05  3.926444  0.0
C  C79  1  0.30634881  0.05729865  0.51108320  1  0.018047  -0.000177  -0.073322  -0.129103  -9.7e-05  3.926319  0.0
C  C80  1  0.80635321  0.55731013  0.98892063  1  0.017758  -0.000177  -0.073399  -0.129052  -9.6e-05  3.926473  0.0
C  C81  1  0.69364810  0.94270581  0.48891477  1  0.01844  -0.000177  -0.073386  -0.129226  -9.7e-05  3.926277  0.0
C  C82  1  0.12926496  0.46308241  0.07693879  1  -0.047666  3.7e-05  -0.068664  -0.032801  4e-05  3.976671  0.0
C  C83  1  0.37075145  0.03686801  0.57694567  1  -0.044785  3.7e-05  -0.068674  -0.032478  4e-05  3.976669  0.0
C  C84  1  0.87073728  0.53691704  0.92306291  1  -0.047646  3.7e-05  -0.068688  -0.03294  4e-05  3.976775  0.0
C  C85  1  0.62924822  0.96313700  0.42305336  1  -0.044772  3.7e-05  -0.068656  -0.032422  4e-05  3.976869  0.0
C  C86  1  0.15813588  0.53694455  0.09849014  1  -0.041381  -0.000204  -0.068238  -0.128865  -0.000118  3.920578  0.0
C  C87  1  0.34181000  0.96299558  0.59850759  1  -0.043121  -0.000204  -0.068295  -0.128245  -0.000118  3.92094  0.0
C  C88  1  0.84186492  0.46305435  0.90150836  1  -0.041683  -0.000204  -0.068187  -0.128757  -0.000118  3.920539  0.0
C  C89  1  0.65819126  0.03701054  0.40149251  1  -0.044269  -0.000204  -0.068279  -0.128306  -0.000118  3.921052  0.0
C  C90  1  0.25152938  0.58795830  0.05295972  1  0.497601  -2.5e-05  0.12019  0.130746  -5e-06  3.985658  0.0
C  C91  1  0.24845738  0.91200333  0.55299164  1  0.499151  -2.6e-05  0.120338  0.129236  -5e-06  3.988515  0.0
C  C92  1  0.74847142  0.41204060  0.94703825  1  0.498902  -2.5e-05  0.120256  0.130723  -4e-06  3.98565  0.0
C  C93  1  0.75153863  0.08800280  0.44700899  1  0.500473  -2.6e-05  0.120398  0.129405  -5e-06  3.988579  0.0
C  C94  1  0.28823187  0.66747600  0.07690147  1  1.441868  -0.000295  0.234264  0.422358  -0.000204  4.187903  0.0
C  C95  1  0.21171333  0.83247405  0.57695405  1  1.440609  -0.000296  0.234264  0.423336  -0.000204  4.187981  0.0
C  C96  1  0.71175960  0.33252236  0.92309276  1  1.441404  -0.000295  0.234324  0.422508  -0.000204  4.187732  0.0
C  C97  1  0.78828268  0.16753207  0.42304871  1  1.44105  -0.000296  0.234404  0.423564  -0.000204  4.187923  0.0
C  C98  1  0.51464319  0.52326084  0.79102381  1  0.333762  -0.000712  -0.045364  -0.042527  -0.000461  3.956002  0.0
C  C99  1  0.98536238  0.97676461  0.29103980  1  0.334323  -0.000711  -0.045326  -0.042682  -0.00046  3.955026  0.0
C  C100  1  0.48536707  0.47673916  0.20897842  1  0.333948  -0.000712  -0.045284  -0.042329  -0.000461  3.955895  0.0
C  C101  1  0.01463344  0.02323541  0.70896030  1  0.334384  -0.000711  -0.04529  -0.042676  -0.00046  3.954973  0.0
C  C102  1  0.39017843  0.52126879  0.72787528  1  0.022532  -0.00467  -0.007422  0.051611  -0.002703  3.949955  -0.004
C  C103  1  0.10988653  0.97873822  0.22790849  1  0.022277  -0.004664  -0.007583  0.051186  -0.0027  3.950134  -0.004
C  C104  1  0.60983894  0.47873342  0.27212642  1  0.022892  -0.00467  -0.007572  0.051239  -0.002703  3.950303  -0.004
C  C105  1  0.89011046  0.02126125  0.77209214  1  0.022185  -0.004663  -0.007606  0.051265  -0.0027  3.949994  -0.004
C  C106  1  0.20998753  0.52820013  0.73339283  1  -0.108135  0.005121  -0.077086  -0.090619  0.005232  3.970651  0.003
C  C107  1  0.29007587  0.97179865  0.23341923  1  -0.100823  0.005104  -0.077033  -0.090194  0.005216  3.970562  0.003
C  C108  1  0.79003327  0.47180541  0.26660887  1  -0.108381  0.005121  -0.076966  -0.090454  0.005232  3.97072  0.003
C  C109  1  0.70991678  0.02819915  0.76658247  1  -0.101109  0.005103  -0.077014  -0.090134  0.005215  3.970561  0.003
C  C110  1  0.10773856  0.52356757  0.67165615  1  0.009204  -0.005586  -0.086727  -0.114606  -0.003351  3.988631  -0.004
C  C111  1  0.39232172  0.97640736  0.17168549  1  0.002898  -0.005579  -0.086836  -0.114488  -0.003347  3.989126  -0.004
C  C112  1  0.89228025  0.47643519  0.32834608  1  0.009423  -0.005587  -0.086742  -0.114585  -0.003351  3.988718  -0.004
C  C113  1  0.60767278  0.02359266  0.82831514  1  0.003012  -0.005578  -0.086844  -0.114552  -0.003347  3.989183  -0.004
C  C114  1  0.18889844  0.51302477  0.60648480  1  0.428228  0.002176  0.039236  0.077039  0.002322  3.927937  0.002
C  C115  1  0.31115786  0.98693464  0.10651473  1  0.458214  0.002208  0.039167  0.07697  0.002308  3.929855  0.002
C  C116  1  0.81111810  0.48697411  0.39351636  1  0.427947  0.002175  0.039273  0.077087  0.002321  3.928028  0.002
C  C117  1  0.68883547  0.01306593  0.89348537  1  0.458297  0.002207  0.039129  0.07698  0.002308  3.929807  0.002
C  C118  1  0.46026529  0.51017380  0.66041306  1  0.47175  0.003549  0.042171  0.032841  0.003831  3.893677  0.003
C  C119  1  0.03980322  0.98980104  0.16043397  1  0.472057  0.00354  0.042319  0.033194  0.00382  3.893972  0.003
C  C120  1  0.53974931  0.48982786  0.33958970  1  0.47146  0.003549  0.042243  0.033088  0.003832  3.89348  0.003
C  C121  1  0.96018825  0.01019732  0.83956666  1  0.43676  0.003534  0.042279  0.033045  0.003819  3.894321  0.003
C  C122  1  0.42304363  0.79131940  0.04060270  1  0.305735  -0.000986  -0.052222  -0.05004  -0.000639  3.920032  -0.001
C  C123  1  0.07691751  0.70865436  0.54062655  1  0.304216  -0.000988  -0.052584  -0.05072  -0.000639  3.92221  -0.001
C  C124  1  0.57695255  0.20867674  0.95938728  1  0.305751  -0.000986  -0.052148  -0.050044  -0.000639  3.920089  -0.001
C  C125  1  0.92308161  0.29134843  0.45937941  1  0.304426  -0.000988  -0.052392  -0.050441  -0.000639  3.921926  -0.001
C  C126  1  0.62161380  0.80688300  0.04312530  1  -0.062021  -0.005499  -0.011982  0.044771  -0.003146  3.9577  -0.004
C  C127  1  0.87835782  0.69307753  0.54312968  1  -0.063107  -0.005507  -0.011876  0.045079  -0.003151  3.957699  -0.004
C  C128  1  0.37838514  0.19311369  0.95687054  1  -0.062225  -0.005499  -0.012071  0.044712  -0.003146  3.957782  -0.004
C  C129  1  0.12164076  0.30692304  0.45687521  1  -0.063199  -0.005507  -0.011779  0.045213  -0.003151  3.95762  -0.004
C  C130  1  0.72886209  0.75503554  0.06977241  1  -0.11103  0.00635  -0.080747  -0.102168  0.006408  3.950833  0.004
C  C131  1  0.77113881  0.74491756  0.56978124  1  -0.108492  0.006369  -0.08084  -0.102714  0.006428  3.950688  0.004
C  C132  1  0.27113658  0.24496004  0.93022076  1  -0.110758  0.006349  -0.080762  -0.102057  0.006407  3.950836  0.004
C  C133  1  0.22885479  0.25508412  0.43021993  1  -0.108731  0.006368  -0.08094  -0.102749  0.006427  3.950826  0.004
C  C134  1  0.91076131  0.77353628  0.07194626  1  -0.080467  -0.004886  -0.093364  -0.12824  -0.002825  3.988574  -0.004
C  C135  1  0.58922625  0.72641524  0.57193024  1  -0.079242  -0.004893  -0.093323  -0.12776  -0.002829  3.988085  -0.004
C  C136  1  0.08923501  0.22646041  0.92805011  1  -0.080121  -0.004886  -0.093306  -0.128147  -0.002824  3.988515  -0.004
C  C137  1  0.41076902  0.27358256  0.42807199  1  -0.079238  -0.004893  -0.093378  -0.127888  -0.002829  3.988162  -0.004
C  C138  1  0.97958684  0.84294256  0.04746731  1  0.525146  0.004145  0.035209  0.077972  0.004365  3.945505  0.003
C  C139  1  0.52039450  0.65701863  0.54745416  1  0.523681  0.004156  0.035031  0.077277  0.004376  3.945375  0.003
C  C140  1  0.02041342  0.15705412  0.95253066  1  0.524748  0.004145  0.03516  0.077802  0.004364  3.945725  0.003
C  C141  1  0.47960471  0.34297917  0.45254647  1  0.523781  0.004156  0.035109  0.077452  0.004376  3.945156  0.003
C  C142  1  0.70187773  0.87572630  0.02072964  1  0.53292  0.003649  0.042417  0.03436  0.00368  3.900395  0.002
C  C143  1  0.79809426  0.62425399  0.52071997  1  0.533643  0.003661  0.042447  0.034217  0.00369  3.899213  0.002
C  C144  1  0.29812397  0.12427094  0.97926673  1  0.533065  0.003648  0.042396  0.034303  0.003679  3.900451  0.002
C  C145  1  0.20190839  0.37574713  0.47928120  1  0.53362  0.003661  0.04252  0.034332  0.00369  3.899192  0.002
N  N146  1  0.31160205  0.56904678  0.98893080  1  -1.232098  -0.00017  -0.308729  -0.331704  -9.5e-05  3.37722  0.0
N  N147  1  0.18839639  0.93094841  0.48895844  1  -1.233686  -0.00017  -0.308926  -0.331558  -9.5e-05  3.378522  0.0
N  N148  1  0.68839820  0.43094990  0.01106717  1  -1.233258  -0.00017  -0.308832  -0.331787  -9.5e-05  3.377214  0.0
N  N149  1  0.81159803  0.06905660  0.51104166  1  -1.234192  -0.00017  -0.308906  -0.331619  -9.5e-05  3.378424  0.0
N  N150  1  0.43392313  0.53447654  0.85939398  1  -1.243016  -0.000227  -0.42262  -0.352377  -0.000102  3.626351  0.0
N  N151  1  0.06610554  0.96556264  0.35941823  1  -1.242686  -0.000227  -0.422619  -0.352518  -0.000102  3.62604  0.0
N  N152  1  0.56608119  0.46552069  0.14060719  1  -1.243343  -0.000227  -0.422619  -0.352532  -0.000102  3.626469  0.0
N  N153  1  0.93388820  0.03443960  0.64058187  1  -1.24308  -0.000228  -0.422646  -0.352671  -0.000102  3.626233  0.0
N  N154  1  0.36303886  0.50636768  0.60056108  1  -1.202686  -0.070432  -0.311837  -0.189479  -0.042156  3.54508  -0.064
N  N155  1  0.13704566  0.99358570  0.10059590  1  -1.233758  -0.070423  -0.311798  -0.189641  -0.04212  3.546328  -0.064
N  N156  1  0.63697940  0.49363287  0.39944061  1  -1.202254  -0.070433  -0.311912  -0.189625  -0.042156  3.545267  -0.064
N  N157  1  0.86294464  0.00641321  0.89940420  1  -1.198381  -0.070414  -0.311735  -0.18956  -0.042118  3.54648  -0.064
N  N158  1  0.36552280  0.71389223  0.02695642  1  -1.227907  -0.00022  -0.417827  -0.332557  -7e-05  3.591336  0.0
N  N159  1  0.13446527  0.78609423  0.52700346  1  -1.226606  -0.00022  -0.417842  -0.332529  -7e-05  3.591087  0.0
N  N160  1  0.63446709  0.28610503  0.97303675  1  -1.228017  -0.00022  -0.417911  -0.332664  -7e-05  3.591258  0.0
N  N161  1  0.86553019  0.21390967  0.47299983  1  -1.22668  -0.00022  -0.417977  -0.332629  -7e-05  3.591346  0.0
N  N162  1  0.87737611  0.89388729  0.02303888  1  -1.241173  -0.068746  -0.323483  -0.194083  -0.041126  3.598146  -0.062
N  N163  1  0.62257895  0.60607136  0.52302135  1  -1.241662  -0.068834  -0.323506  -0.193776  -0.041178  3.59687  -0.062
N  N164  1  0.12262456  0.10611106  0.97696069  1  -1.240903  -0.068743  -0.323477  -0.194056  -0.041124  3.598247  -0.062
N  N165  1  0.37742303  0.39392698  0.47698088  1  -1.241688  -0.068832  -0.323613  -0.193999  -0.041176  3.596899  -0.062
Cl  Cl166  1  0.74302667  0.44423278  0.55891418  1  -0.676613  -0.10446  -0.326185  -0.557567  -0.057311  1.141153  -0.08
Cl  Cl167  1  0.75661791  0.05580638  0.05897685  1  -0.676916  -0.104379  -0.326337  -0.557667  -0.057242  1.137826  -0.08
Cl  Cl168  1  0.25698200  0.55576611  0.44108645  1  -0.676602  -0.104456  -0.326179  -0.557595  -0.05731  1.141181  -0.08
Cl  Cl169  1  0.24337211  0.94419143  0.94102325  1  -0.676931  -0.104382  -0.326333  -0.557669  -0.057245  1.137846  -0.08
O  O170  1  0.33272152  0.41247024  0.87471457  1  -1.139829  -0.000232  -0.290765  -0.465937  -0.000132  2.123694  0.0
O  O171  1  0.16722196  0.08758485  0.37467857  1  -1.137745  -0.000231  -0.291035  -0.466347  -0.000132  2.123592  0.0
O  O172  1  0.66728764  0.58752533  0.12528446  1  -1.139724  -0.000232  -0.290941  -0.46619  -0.000132  2.123607  0.0
O  O173  1  0.83276811  0.91241851  0.62532047  1  -1.137662  -0.000231  -0.291151  -0.466428  -0.000132  2.123344  0.0
O  O174  1  0.24616503  0.68654575  0.13750635  1  -1.132226  -0.000303  -0.307525  -0.482564  -0.000155  2.078113  0.0
O  O175  1  0.25370648  0.81337773  0.63756758  1  -1.132837  -0.000304  -0.307626  -0.482959  -0.000155  2.078219  0.0
O  O176  1  0.75381558  0.31345651  0.86248629  1  -1.13227  -0.000303  -0.307597  -0.482712  -0.000155  2.078037  0.0
O  O177  1  0.74630134  0.18662838  0.36243411  1  -1.132966  -0.000304  -0.30766  -0.483073  -0.000155  2.078222  0.0
