# generated using pymatgen
data_ZnH14C13(BrN)2
_symmetry_space_group_name_H-M   'P 1'
_cell_length_a   5.39474595
_cell_length_b   10.13981273
_cell_length_c   13.02556215
_cell_angle_alpha   89.99614952
_cell_angle_beta   90.00268173
_cell_angle_gamma   90.67730242
_symmetry_Int_Tables_number   1
_chemical_formula_structural   ZnH14C13(BrN)2
_chemical_formula_sum   'Zn2 H28 C26 Br4 N4'
_cell_volume   712.47078611
_cell_formula_units_Z   2
loop_
 _symmetry_equiv_pos_site_id
 _symmetry_equiv_pos_as_xyz
  1  'x, y, z'
loop_
 _atom_site_type_symbol
 _atom_site_label
 _atom_site_symmetry_multiplicity
 _atom_site_fract_x
 _atom_site_fract_y
 _atom_site_fract_z
 _atom_site_occupancy
 _atom_site_hle17_bader_spin_density
 _atom_site_hle17_ddec_charge
 _atom_site_hle17_ddec_spin_density
 _atom_site_hle17_ddec_sum_bond_order
 _atom_site_hle17_magmom
 _atom_site_hse06_10hf_bader_spin_density
 _atom_site_hse06_10hf_ddec_charge
 _atom_site_hse06_10hf_ddec_spin_density
 _atom_site_hse06_10hf_ddec_sum_bond_order
 _atom_site_hse06_10hf_magmom
 _atom_site_hse06_bader_spin_density
 _atom_site_hse06_ddec_charge
 _atom_site_hse06_ddec_spin_density
 _atom_site_hse06_ddec_sum_bond_order
 _atom_site_hse06_magmom
 _atom_site_pbe_bader_spin_density
 _atom_site_pbe_cm5_charge
 _atom_site_pbe_ddec_charge
 _atom_site_pbe_ddec_spin_density
 _atom_site_pbe_ddec_sum_bond_order
 _atom_site_pbe_magmom
Zn  Zn0  1  0.43419340  0.70809169  0.75000716  1  0  0.772166  0  2.112381  0  0  0.592043  0  2.594093  0  0  0.633446  0  2.551292  0  0  0.520593  0.564088  0  2.622547  0
Zn  Zn1  1  0.56581111  0.29188917  0.24999075  1  0  0.77228  0  2.112189  0  0  0.592129  0  2.593871  0  0  0.63351  0  2.551087  0  0  0.520687  0.564173  0  2.622324  0
H  H2  1  0.12460371  0.80911727  0.25000026  1  0  0.065042  0  0.943508  0  0  0.083507  0  1.006275  0  0  0.084266  0  1.006999  0  0  0.082267  0.082841  0  1.005871  0
H  H3  1  0.87540248  0.19094448  0.74999995  1  0  0.064761  0  0.943987  0  0  0.083348  0  1.006604  0  0  0.084115  0  1.007311  0  0  0.0822  0.082678  0  1.006196  0
H  H4  1  0.95098318  0.66027061  0.25000631  1  0  0.063402  0  0.958942  0  0  0.07874  0  1.027618  0  0  0.079711  0  1.027707  0  0  0.075336  0.078123  0  1.027338  0
H  H5  1  0.04910606  0.33975753  0.74999850  1  0  0.063317  0  0.958598  0  0  0.078602  0  1.02734  0  0  0.079559  0  1.02744  0  0  0.075293  0.077974  0  1.027063  0
H  H6  1  0.77033291  0.91967053  0.34295366  1  0  0.079294  0  0.942382  0  0  0.094534  0  1.009246  0  0  0.095439  0  1.0094  0  0  0.089706  0.093676  0  1.009409  0
H  H7  1  0.22962674  0.08032859  0.84297710  1  0  0.07916  0  0.942461  0  0  0.094457  0  1.009308  0  0  0.09536  0  1.00946  0  0  0.089674  0.093603  0  1.009475  0
H  H8  1  0.22964168  0.08033439  0.65704962  1  0  0.07921  0  0.942408  0  0  0.094507  0  1.009255  0  0  0.095412  0  1.009408  0  0  0.089668  0.093655  0  1.009422  0
H  H9  1  0.77034898  0.91966545  0.15701313  1  0  0.07921  0  0.94256  0  0  0.094498  0  1.009344  0  0  0.095394  0  1.00949  0  0  0.089695  0.093651  0  1.00951  0
H  H10  1  0.61647444  0.76390120  0.35153093  1  0  0.082612  0  0.948096  0  0  0.098218  0  1.011848  0  0  0.099561  0  1.01188  0  0  0.085825  0.09697  0  1.012185  0
H  H11  1  0.38352439  0.23608584  0.85155149  1  0  0.082581  0  0.948057  0  0  0.098192  0  1.011823  0  0  0.099531  0  1.011857  0  0  0.085857  0.096955  0  1.012165  0
H  H12  1  0.38352722  0.23609252  0.64846621  1  0  0.082561  0  0.948092  0  0  0.098187  0  1.011868  0  0  0.099528  0  1.011902  0  0  0.085822  0.096946  0  1.012212  0
H  H13  1  0.61648415  0.76389990  0.14845179  1  0  0.082603  0  0.948049  0  0  0.098193  0  1.011806  0  0  0.099527  0  1.011831  0  0  0.085812  0.09696  0  1.012142  0
H  H14  1  0.21401002  0.94076404  0.41556675  1  0  0.104541  0  0.980049  0  0  0.111825  0  1.048509  0  0  0.115302  0  1.047457  0  0  0.094119  0.109352  0  1.049276  0
H  H15  1  0.78599073  0.05924513  0.91556926  1  0  0.10446  0  0.980078  0  0  0.111831  0  1.048469  0  0  0.11531  0  1.047413  0  0  0.094109  0.109355  0  1.049241  0
H  H16  1  0.78599084  0.05924548  0.58444113  1  0  0.104613  0  0.97997  0  0  0.111879  0  1.048463  0  0  0.115356  0  1.047413  0  0  0.094138  0.109405  0  1.049235  0
H  H17  1  0.21401675  0.94075247  0.08442020  1  0  0.104475  0  0.980081  0  0  0.111876  0  1.048433  0  0  0.115357  0  1.047373  0  0  0.094132  0.1094  0  1.049206  0
H  H18  1  0.45792812  0.88985615  0.57483022  1  0  0.066336  0  0.981165  0  0  0.075205  0  1.048459  0  0  0.077728  0  1.046261  0  0  0.100774  0.073349  0  1.050016  0
H  H19  1  0.54207551  0.11012786  0.07482733  1  0  0.066331  0  0.981137  0  0  0.075136  0  1.048509  0  0  0.077654  0  1.046314  0  0  0.100744  0.073286  0  1.050044  0
H  H20  1  0.54207698  0.11013358  0.42517306  1  0  0.066386  0  0.981142  0  0  0.075191  0  1.048504  0  0  0.077712  0  1.046303  0  0  0.100789  0.073342  0  1.050019  0
H  H21  1  0.45792754  0.88985893  0.92516520  1  0  0.066373  0  0.981122  0  0  0.075197  0  1.048456  0  0  0.07772  0  1.046256  0  0  0.100772  0.073334  0  1.050024  0
H  H22  1  0.98958963  0.57672966  0.64785729  1  0  0.070255  0  0.972971  0  0  0.07556  0  1.046259  0  0  0.078241  0  1.043388  0  0  0.101159  0.07361  0  1.048251  0
H  H23  1  0.01039553  0.42326019  0.14784924  1  0  0.070358  0  0.972861  0  0  0.075581  0  1.046276  0  0  0.078262  0  1.043414  0  0  0.101147  0.073635  0  1.048265  0
H  H24  1  0.01038285  0.42327134  0.35214062  1  0  0.070287  0  0.972893  0  0  0.075566  0  1.046212  0  0  0.078255  0  1.043338  0  0  0.10113  0.073616  0  1.048207  0
H  H25  1  0.98959646  0.57672774  0.85215481  1  0  0.070322  0  0.972949  0  0  0.07556  0  1.046369  0  0  0.078235  0  1.043511  0  0  0.101175  0.073612  0  1.048356  0
H  H26  1  0.72857389  0.61461220  0.49394962  1  0  0.113187  0  0.93844  0  0  0.12268  0  0.998539  0  0  0.126188  0  0.997796  0  0  0.105869  0.120214  0  0.999243  0
H  H27  1  0.27141225  0.38539538  0.99395353  1  0  0.113162  0  0.938539  0  0  0.122691  0  0.998596  0  0  0.1262  0  0.997851  0  0  0.105874  0.120228  0  0.9993  0
H  H28  1  0.27140506  0.38540253  0.50604829  1  0  0.113207  0  0.938444  0  0  0.122757  0  0.998459  0  0  0.126272  0  0.99771  0  0  0.105877  0.120289  0  0.999162  0
H  H29  1  0.72858775  0.61460133  0.00605052  1  0  0.11313  0  0.938508  0  0  0.122672  0  0.99855  0  0  0.126183  0  0.997806  0  0  0.105854  0.120206  0  0.999252  0
C  C30  1  0.93464149  0.76822358  0.24999494  1  0  -0.087356  0  3.664538  0  0  -0.123536  0  3.914811  0  0  -0.125111  0  3.929157  0  0  -0.165204  -0.122374  0  3.904279  0
C  C31  1  0.06538840  0.23180432  0.75000296  1  0  -0.087176  0  3.664362  0  0  -0.123332  0  3.914695  0  0  -0.124886  0  3.929062  0  0  -0.165084  -0.122133  0  3.904142  0
C  C32  1  0.79946119  0.81243963  0.34756071  1  0  -0.167408  0  3.697392  0  0  -0.208001  0  3.940685  0  0  -0.209998  0  3.952737  0  0  -0.162961  -0.20629  0  3.932268  0
C  C33  1  0.20053267  0.18756360  0.84757656  1  0  -0.167185  0  3.697446  0  0  -0.207931  0  3.940801  0  0  -0.209918  0  3.952838  0  0  -0.162965  -0.206252  0  3.932427  0
C  C34  1  0.20053397  0.18756799  0.65243719  1  0  -0.167179  0  3.697265  0  0  -0.207917  0  3.9406  0  0  -0.209913  0  3.952652  0  0  -0.162942  -0.206246  0  3.932222  0
C  C35  1  0.79946746  0.81243507  0.15242057  1  0  -0.167384  0  3.697613  0  0  -0.208047  0  3.940878  0  0  -0.20999  0  3.952856  0  0  -0.162952  -0.206378  0  3.93253  0
C  C36  1  0.94791219  0.78257055  0.44187279  1  0  0.173754  0  3.69477  0  0  0.189655  0  3.928949  0  0  0.196088  0  3.950208  0  0  0.019907  0.18516  0  3.914403  0
C  C37  1  0.05208620  0.21743837  0.94187900  1  0  0.173667  0  3.694811  0  0  0.189663  0  3.928937  0  0  0.196096  0  3.950192  0  0  0.019822  0.185162  0  3.914431  0
C  C38  1  0.05207947  0.21744008  0.55812742  1  0  0.173667  0  3.695061  0  0  0.18966  0  3.929195  0  0  0.196091  0  3.95046  0  0  0.019869  0.185175  0  3.914658  0
C  C39  1  0.94791750  0.78255828  0.05811968  1  0  0.173592  0  3.694807  0  0  0.189637  0  3.928794  0  0  0.196058  0  3.95004  0  0  0.019847  0.185127  0  3.914301  0
C  C40  1  0.15852131  0.85924639  0.46558230  1  0  -0.168111  0  3.699209  0  0  -0.183158  0  3.943596  0  0  -0.192068  0  3.965374  0  0  -0.086034  -0.177461  0  3.928979  0
C  C41  1  0.84147410  0.14075758  0.96558318  1  0  -0.167989  0  3.699335  0  0  -0.183159  0  3.943666  0  0  -0.192072  0  3.965444  0  0  -0.086011  -0.177448  0  3.929051  0
C  C42  1  0.84148478  0.14075813  0.53442328  1  0  -0.168226  0  3.699432  0  0  -0.183296  0  3.943804  0  0  -0.192206  0  3.965577  0  0  -0.086039  -0.177599  0  3.929183  0
C  C43  1  0.15852954  0.85923809  0.03441243  1  0  -0.167939  0  3.69921  0  0  -0.183125  0  3.943466  0  0  -0.192038  0  3.96524  0  0  -0.085985  -0.177416  0  3.928856  0
C  C44  1  0.29463149  0.83192305  0.55295246  1  0  0.124365  0  3.723477  0  0  0.092594  0  3.969575  0  0  0.100017  0  3.988165  0  0  0.03672  0.088162  0  3.956953  0
C  C45  1  0.70538077  0.16806372  0.05294959  1  0  0.124239  0  3.723606  0  0  0.09247  0  3.969719  0  0  0.09988  0  3.988324  0  0  0.036751  0.088049  0  3.957081  0
C  C46  1  0.70536282  0.16807175  0.44705159  1  0  0.124282  0  3.723292  0  0  0.092562  0  3.969416  0  0  0.100002  0  3.988009  0  0  0.036681  0.088149  0  3.956785  0
C  C47  1  0.29462413  0.83192306  0.94704678  1  0  0.124172  0  3.723592  0  0  0.09242  0  3.969727  0  0  0.099851  0  3.98834  0  0  0.036674  0.088  0  3.95708  0
C  C48  1  0.03514753  0.65622847  0.59447065  1  0  0.131334  0  3.727925  0  0  0.09833  0  3.978477  0  0  0.106482  0  3.996652  0  0  0.040488  0.093265  0  3.966399  0
C  C49  1  0.96484033  0.34376098  0.09446582  1  0  0.131118  0  3.728193  0  0  0.098129  0  3.978646  0  0  0.10627  0  3.996811  0  0  0.040456  0.093059  0  3.966576  0
C  C50  1  0.96483977  0.34377234  0.40552649  1  0  0.131178  0  3.72799  0  0  0.098213  0  3.978514  0  0  0.106371  0  3.996697  0  0  0.040455  0.093145  0  3.966446  0
C  C51  1  0.03515723  0.65622688  0.90553746  1  0  0.131165  0  3.727997  0  0  0.098177  0  3.97849  0  0  0.106342  0  3.996673  0  0  0.040438  0.093114  0  3.966404  0
C  C52  1  0.88934643  0.67816189  0.50820067  1  0  -0.172119  0  3.69554  0  0  -0.189398  0  3.942467  0  0  -0.198913  0  3.964716  0  0  -0.085126  -0.183404  0  3.927991  0
C  C53  1  0.11064312  0.32184479  0.00820198  1  0  -0.172025  0  3.695478  0  0  -0.189392  0  3.942387  0  0  -0.198904  0  3.964628  0  0  -0.085147  -0.183399  0  3.927924  0
C  C54  1  0.11063769  0.32184686  0.49179954  1  0  -0.17212  0  3.695507  0  0  -0.189467  0  3.942408  0  0  -0.198987  0  3.964659  0  0  -0.08513  -0.183472  0  3.927929  0
C  C55  1  0.88935503  0.67815194  0.99179976  1  0  -0.171939  0  3.695348  0  0  -0.189318  0  3.942222  0  0  -0.198835  0  3.964469  0  0  -0.085155  -0.18332  0  3.927753  0
Br  Br56  1  0.55957850  0.48304232  0.75005479  1  0  -0.524605  0  0.960428  0  0  -0.461331  0  1.254292  0  0  -0.477859  0  1.231233  0  0  -0.263656  -0.44916  0  1.269276  0
Br  Br57  1  0.44042806  0.51694148  0.24995924  1  0  -0.524635  0  0.96031  0  0  -0.461376  0  1.254177  0  0  -0.477925  0  1.23117  0  0  -0.26367  -0.449201  0  1.269163  0
Br  Br58  1  0.72727923  0.88970786  0.74999827  1  0  -0.512114  0  1.008424  0  0  -0.453551  0  1.314909  0  0  -0.469609  0  1.29375  0  0  -0.248486  -0.441487  0  1.328835  0
Br  Br59  1  0.27271224  0.11027218  0.25000040  1  0  -0.512149  0  1.008339  0  0  -0.453584  0  1.314796  0  0  -0.469629  0  1.293633  0  0  -0.248525  -0.441528  0  1.328727  0
N  N60  1  0.23352257  0.73256156  0.61739006  1  0  -0.326262  0  3.3592  0  0  -0.235923  0  3.62581  0  0  -0.256426  0  3.643041  0  0  -0.340834  -0.222563  0  3.614039  0
N  N61  1  0.76647511  0.26742185  0.11738167  1  0  -0.326111  0  3.359451  0  0  -0.235584  0  3.625756  0  0  -0.256061  0  3.642959  0  0  -0.340769  -0.222226  0  3.613984  0
N  N62  1  0.76647519  0.26742925  0.38260938  1  0  -0.326034  0  3.359118  0  0  -0.235731  0  3.625695  0  0  -0.256276  0  3.642975  0  0  -0.34074  -0.222373  0  3.613924  0
N  N63  1  0.23352066  0.73256701  0.88261623  1  0  -0.326088  0  3.35926  0  0  -0.235719  0  3.625762  0  0  -0.25626  0  3.643031  0  0  -0.340788  -0.222362  0  3.613991  0
