# generated using pymatgen
data_MoH11C10NO4
_symmetry_space_group_name_H-M   'P 1'
_cell_length_a   7.55561253
_cell_length_b   8.42364527
_cell_length_c   9.71424762
_cell_angle_alpha   99.41754568
_cell_angle_beta   112.84854387
_cell_angle_gamma   102.79823390
_symmetry_Int_Tables_number   1
_chemical_formula_structural   MoH11C10NO4
_chemical_formula_sum   'Mo2 H22 C20 N2 O8'
_cell_volume   533.73388617
_cell_formula_units_Z   2
loop_
 _symmetry_equiv_pos_site_id
 _symmetry_equiv_pos_as_xyz
  1  'x, y, z'
loop_
 _atom_site_type_symbol
 _atom_site_label
 _atom_site_symmetry_multiplicity
 _atom_site_fract_x
 _atom_site_fract_y
 _atom_site_fract_z
 _atom_site_occupancy
 _atom_site_hle17_bader_spin_density
 _atom_site_hle17_ddec_charge
 _atom_site_hle17_ddec_spin_density
 _atom_site_hle17_ddec_sum_bond_order
 _atom_site_hle17_magmom
 _atom_site_hse06_10hf_bader_spin_density
 _atom_site_hse06_10hf_ddec_charge
 _atom_site_hse06_10hf_ddec_spin_density
 _atom_site_hse06_10hf_ddec_sum_bond_order
 _atom_site_hse06_10hf_magmom
 _atom_site_hse06_bader_spin_density
 _atom_site_hse06_ddec_charge
 _atom_site_hse06_ddec_spin_density
 _atom_site_hse06_ddec_sum_bond_order
 _atom_site_hse06_magmom
 _atom_site_pbe_bader_spin_density
 _atom_site_pbe_cm5_charge
 _atom_site_pbe_ddec_charge
 _atom_site_pbe_ddec_spin_density
 _atom_site_pbe_ddec_sum_bond_order
 _atom_site_pbe_magmom
Mo  Mo0  1  0.05500537  0.56962239  0.43449236  1  0  0.92117  0  3.62829  0  0  0.845904  0  4.233284  0  0  0.878072  0  4.219801  0  0  0.787195  0.819148  0  4.251142  0
Mo  Mo1  1  0.94496241  0.43033593  0.56554559  1  0  0.921215  0  3.628373  0  0  0.845907  0  4.233362  0  0  0.878077  0  4.219795  0  0  0.787151  0.819085  0  4.251206  0
H  H2  1  0.05515269  0.95514163  0.34414905  1  0  0.151476  0  0.952754  0  0  0.165329  0  1.017242  0  0  0.168752  0  1.015223  0  0  0.101022  0.163048  0  1.018442  0
H  H3  1  0.94483850  0.04484439  0.65585455  1  0  0.151419  0  0.952866  0  0  0.165268  0  1.017394  0  0  0.168688  0  1.015384  0  0  0.100929  0.162975  0  1.01858  0
H  H4  1  0.23011918  0.08339212  0.29177139  1  0  0.140419  0  0.950162  0  0  0.158038  0  1.011408  0  0  0.159989  0  1.01213  0  0  0.100172  0.156629  0  1.011106  0
H  H5  1  0.76986624  0.91661294  0.70823620  1  0  0.140463  0  0.950011  0  0  0.158052  0  1.011301  0  0  0.160005  0  1.012026  0  0  0.100127  0.156634  0  1.011002  0
H  H6  1  0.96947083  0.01066109  0.16528657  1  0  0.129503  0  0.945728  0  0  0.147372  0  1.009109  0  0  0.149515  0  1.008895  0  0  0.097263  0.14592  0  1.009431  0
H  H7  1  0.03053134  0.98934266  0.83472179  1  0  0.129507  0  0.945701  0  0  0.14738  0  1.009075  0  0  0.149523  0  1.008861  0  0  0.097282  0.145921  0  1.009394  0
H  H8  1  0.60265254  0.55313272  0.94030561  1  0  0.139168  0  0.948217  0  0  0.156511  0  1.009071  0  0  0.159096  0  1.008049  0  0  0.095519  0.154674  0  1.009808  0
H  H9  1  0.39736973  0.44685960  0.05971032  1  0  0.139247  0  0.948217  0  0  0.156531  0  1.009126  0  0  0.159118  0  1.008111  0  0  0.09554  0.154697  0  1.009856  0
H  H10  1  0.65315637  0.76220066  0.91880081  1  0  0.128282  0  0.957141  0  0  0.144998  0  1.021573  0  0  0.146362  0  1.022565  0  0  0.092185  0.144011  0  1.021015  0
H  H11  1  0.34684486  0.23778150  0.08119396  1  0  0.128328  0  0.957421  0  0  0.145028  0  1.021843  0  0  0.146398  0  1.022834  0  0  0.09218  0.144048  0  1.021275  0
H  H12  1  0.69411281  0.60374808  0.80153754  1  0  0.155658  0  0.959574  0  0  0.169402  0  1.022894  0  0  0.172649  0  1.021537  0  0  0.099501  0.167045  0  1.024085  0
H  H13  1  0.30586115  0.39623416  0.19845723  1  0  0.15567  0  0.959656  0  0  0.169444  0  1.022925  0  0  0.172694  0  1.021565  0  0  0.099517  0.16709  0  1.024125  0
H  H14  1  0.98411068  0.61713689  0.07799473  1  0  0.073768  0  0.951873  0  0  0.08227  0  1.01828  0  0  0.085031  0  1.016019  0  0  0.114675  0.080556  0  1.019125  0
H  H15  1  0.01590631  0.38287566  0.92200286  1  0  0.073793  0  0.951866  0  0  0.082207  0  1.01836  0  0  0.084968  0  1.0161  0  0  0.114679  0.080482  0  1.019199  0
H  H16  1  0.69393105  0.97277023  0.36654374  1  0  0.119226  0  0.967128  0  0  0.128042  0  1.028872  0  0  0.132024  0  1.027525  0  0  0.107571  0.125094  0  1.029571  0
H  H17  1  0.30607733  0.02723091  0.63344452  1  0  0.119177  0  0.967147  0  0  0.128074  0  1.028804  0  0  0.132055  0  1.027456  0  0  0.107598  0.125123  0  1.029509  0
H  H18  1  0.13758663  0.77326593  0.93758013  1  0  0.107864  0  0.986075  0  0  0.116399  0  1.049728  0  0  0.119949  0  1.048749  0  0  0.104659  0.114093  0  1.05058  0
H  H19  1  0.86242413  0.22674536  0.06241438  1  0  0.107801  0  0.986136  0  0  0.116311  0  1.049851  0  0  0.119858  0  1.048883  0  0  0.104636  0.114002  0  1.05071  0
H  H20  1  0.51659952  0.78882075  0.48293982  1  0  0.078623  0  0.967513  0  0  0.085381  0  1.035202  0  0  0.088866  0  1.032089  0  0  0.11179  0.082819  0  1.03751  0
H  H21  1  0.48341699  0.21118671  0.51705383  1  0  0.078673  0  0.967458  0  0  0.085437  0  1.035143  0  0  0.088924  0  1.032027  0  0  0.111781  0.082865  0  1.037447  0
H  H22  1  0.68318852  0.08789330  0.15944708  1  0  0.091194  0  0.97186  0  0  0.104857  0  1.031443  0  0  0.107509  0  1.030255  0  0  0.105039  0.102926  0  1.03234  0
H  H23  1  0.31681554  0.91212307  0.84054508  1  0  0.09123  0  0.971907  0  0  0.104896  0  1.031491  0  0  0.107549  0  1.030304  0  0  0.105096  0.102966  0  1.032383  0
C  C24  1  0.07954328  0.05568135  0.28887779  1  0  -0.454265  0  3.66496  0  0  -0.528285  0  3.901588  0  0  -0.5361  0  3.904607  0  0  -0.243825  -0.523222  0  3.89965  0
C  C25  1  0.92044645  0.94431610  0.71113210  1  0  -0.454174  0  3.665035  0  0  -0.528223  0  3.901666  0  0  -0.53604  0  3.904682  0  0  -0.243769  -0.523157  0  3.899714  0
C  C26  1  0.05489916  0.21272420  0.36651039  1  0  0.687665  0  3.786204  0  0  0.642604  0  4.094557  0  0  0.676984  0  4.087132  0  0  0.196983  0.619672  0  4.097746  0
C  C27  1  0.94509726  0.78727575  0.63349261  1  0  0.687241  0  3.786846  0  0  0.642312  0  4.095055  0  0  0.676693  0  4.087635  0  0  0.196832  0.619378  0  4.098243  0
C  C28  1  0.38427249  0.58456174  0.73342881  1  0  0.708168  0  3.765036  0  0  0.66649  0  4.06658  0  0  0.700877  0  4.060099  0  0  0.202198  0.643624  0  4.068973  0
C  C29  1  0.61572586  0.41543566  0.26657236  1  0  0.707998  0  3.765274  0  0  0.666349  0  4.066783  0  0  0.700735  0  4.060305  0  0  0.202106  0.643481  0  4.069189  0
C  C30  1  0.59616259  0.62667432  0.85639016  1  0  -0.455703  0  3.656007  0  0  -0.526574  0  3.886419  0  0  -0.534196  0  3.888951  0  0  -0.248926  -0.521455  0  3.884916  0
C  C31  1  0.40382525  0.37330664  0.14361377  1  0  -0.455793  0  3.65644  0  0  -0.526625  0  3.886755  0  0  -0.534263  0  3.889285  0  0  -0.248945  -0.521504  0  3.885249  0
C  C32  1  0.14281395  0.69500617  0.13694459  1  0  0.10945  0  3.74658  0  0  0.085469  0  4.003038  0  0  0.091139  0  4.019409  0  0  0.041314  0.082484  0  3.992272  0
C  C33  1  0.85719872  0.30501401  0.86305585  1  0  0.10953  0  3.74622  0  0  0.085633  0  4.00268  0  0  0.091306  0  4.019048  0  0  0.041352  0.082641  0  3.991896  0
C  C34  1  0.53687671  0.89333717  0.29763550  1  0  -0.160806  0  3.667236  0  0  -0.176791  0  3.908913  0  0  -0.183648  0  3.928187  0  0  -0.081282  -0.169559  0  3.893373  0
C  C35  1  0.46312450  0.10666779  0.70235420  1  0  -0.160691  0  3.66718  0  0  -0.176744  0  3.908894  0  0  -0.183599  0  3.928165  0  0  -0.081274  -0.169523  0  3.893355  0
C  C36  1  0.43215918  0.89149068  0.14144891  1  0  0.130516  0  3.802978  0  0  0.14544  0  4.032582  0  0  0.150281  0  4.054455  0  0  0.005356  0.142658  0  4.017234  0
C  C37  1  0.56785828  0.10851930  0.85853921  1  0  0.130443  0  3.802926  0  0  0.145347  0  4.032611  0  0  0.150192  0  4.054477  0  0  0.005278  0.142561  0  4.017258  0
C  C38  1  0.22954237  0.78580242  0.05965440  1  0  -0.163834  0  3.687505  0  0  -0.177599  0  3.925981  0  0  -0.184612  0  3.946633  0  0  -0.084372  -0.176138  0  3.914317  0
C  C39  1  0.77047270  0.21420884  0.94033729  1  0  -0.163819  0  3.68756  0  0  -0.177587  0  3.926097  0  0  -0.184601  0  3.946748  0  0  -0.084409  -0.176132  0  3.914445  0
C  C40  1  0.43921519  0.79299008  0.36330461  1  0  0.123986  0  3.71708  0  0  0.09786  0  3.973451  0  0  0.104273  0  3.989052  0  0  0.043736  0.093728  0  3.962126  0
C  C41  1  0.56078794  0.20700855  0.63668788  1  0  0.123835  0  3.717242  0  0  0.097699  0  3.973644  0  0  0.104117  0  3.989238  0  0  0.043685  0.093559  0  3.962303  0
C  C42  1  0.53574507  0.99941733  0.07536280  1  0  -0.103965  0  3.726736  0  0  -0.122041  0  3.973191  0  0  -0.123109  0  3.990046  0  0  -0.080253  -0.121258  0  3.961292  0
C  C43  1  0.46426809  0.00059264  0.92461989  1  0  -0.104005  0  3.726902  0  0  -0.122087  0  3.973393  0  0  -0.123159  0  3.990248  0  0  -0.080314  -0.121289  0  3.96148  0
N  N44  1  0.24426153  0.69617331  0.28598802  1  0  -0.314676  0  3.181941  0  0  -0.266197  0  3.45679  0  0  -0.277376  0  3.46966  0  0  -0.328904  -0.259885  0  3.448329  0
N  N45  1  0.75573489  0.30383041  0.71400727  1  0  -0.314628  0  3.182059  0  0  -0.266135  0  3.456882  0  0  -0.277324  0  3.469758  0  0  -0.328905  -0.259807  0  3.448374  0
O  O46  1  0.09817637  0.34936647  0.32731637  1  0  -0.58592  0  2.159895  0  0  -0.535459  0  2.427953  0  0  -0.562079  0  2.424537  0  0  -0.328895  -0.515665  0  2.428586  0
O  O47  1  0.90181001  0.65063732  0.67268825  1  0  -0.585724  0  2.160122  0  0  -0.535275  0  2.428035  0  0  -0.561905  0  2.424625  0  0  -0.328784  -0.515488  0  2.428677  0
O  O48  1  0.98497720  0.20752498  0.46822145  1  0  -0.582727  0  2.149098  0  0  -0.532647  0  2.423804  0  0  -0.558892  0  2.419107  0  0  -0.333993  -0.51376  0  2.425862  0
O  O49  1  0.01502497  0.79247496  0.53178226  1  0  -0.582538  0  2.149014  0  0  -0.532554  0  2.423734  0  0  -0.558786  0  2.419027  0  0  -0.333925  -0.513679  0  2.425822  0
O  O50  1  0.23518397  0.49309678  0.74858403  1  0  -0.587722  0  2.109009  0  0  -0.538988  0  2.374884  0  0  -0.566024  0  2.371343  0  0  -0.341563  -0.519217  0  2.375533  0
O  O51  1  0.76482298  0.50690823  0.25142492  1  0  -0.587667  0  2.108957  0  0  -0.538926  0  2.374778  0  0  -0.565955  0  2.371233  0  0  -0.341526  -0.519173  0  2.375485  0
O  O52  1  0.35391974  0.64095510  0.61348463  1  0  -0.586544  0  2.11648  0  0  -0.537774  0  2.383032  0  0  -0.565319  0  2.379996  0  0  -0.334074  -0.51789  0  2.383717  0
O  O53  1  0.64605995  0.35904234  0.38651089  1  0  -0.586503  0  2.116668  0  0  -0.537731  0  2.383194  0  0  -0.565283  0  2.38016  0  0  -0.334011  -0.517839  0  2.383871  0
