# generated using pymatgen
data_AlH6(C5O4)2
_symmetry_space_group_name_H-M   'P 1'
_cell_length_a   6.58440851
_cell_length_b   10.98407651
_cell_length_c   11.00924232
_cell_angle_alpha   83.07446740
_cell_angle_beta   73.46092534
_cell_angle_gamma   73.22663204
_symmetry_Int_Tables_number   1
_chemical_formula_structural   AlH6(C5O4)2
_chemical_formula_sum   'Al2 H12 C20 O16'
_cell_volume   730.16952939
_cell_formula_units_Z   2
loop_
 _symmetry_equiv_pos_site_id
 _symmetry_equiv_pos_as_xyz
  1  'x, y, z'
loop_
 _atom_site_type_symbol
 _atom_site_label
 _atom_site_symmetry_multiplicity
 _atom_site_fract_x
 _atom_site_fract_y
 _atom_site_fract_z
 _atom_site_occupancy
 _atom_site_pbe_bader_charge
 _atom_site_pbe_bader_spin_density
 _atom_site_pbe_cm5_charge
 _atom_site_pbe_ddec_charge
 _atom_site_pbe_ddec_spin_density
 _atom_site_pbe_ddec_sum_bond_order
 _atom_site_pbe_magmom
Al  Al0  1  0.51037270  0.49674903  0.53601724  1  2.50261  0  0.397091  1.637115  0  2.579203  0
Al  Al1  1  0.01245853  0.49434144  0.53316434  1  2.50105  0  0.40017  1.636569  0  2.575472  0
H  H2  1  0.21766226  0.42543678  0.68526815  1  0.647063  0  0.358255  0.433271  0  0.850653  0
H  H3  1  0.78522483  0.59323929  0.39178896  1  0.636068  0  0.350569  0.428189  0  0.864173  0
H  H4  1  0.89967944  0.39160040  0.91930517  1  0.112165  0  0.114284  0.117176  0  0.983304  0
H  H5  1  0.13189004  0.60543949  0.14913817  1  0.069613  0  0.110624  0.111661  0  0.993276  0
H  H6  1  0.78797619  0.38829673  0.15611262  1  0.100196  0  0.113891  0.123185  0  0.989211  0
H  H7  1  0.24453643  0.61002089  0.91165287  1  0.118288  0  0.115719  0.120887  0  0.982584  0
H  H8  1  0.76709811  0.78192781  0.58528204  1  0.64369  0  0.318131  0.360322  0  0.957681  0
H  H9  1  0.56018961  0.21183956  0.57832312  1  0.641555  0  0.318678  0.359951  0  0.957408  0
H  H10  1  0.46635672  0.70581533  0.37573903  1  0.644948  0  0.31069  0.339973  0  1.026176  0
H  H11  1  0.74815615  0.78946158  0.14914433  1  0.622821  0  0.318703  0.347608  0  0.924676  0
H  H12  1  0.50548854  0.23198839  0.11971502  1  0.601183  0  0.312081  0.340027  0  0.945014  0
H  H13  1  0.15717738  0.31076778  0.33567270  1  0.639382  0  0.30862  0.347298  0  0.995959  0
C  C14  1  0.88887825  0.26728771  0.50022259  1  1.449584  0  0.259081  0.638797  0  4.047121  0
C  C15  1  0.64260393  0.50091896  0.76120009  1  1.503079  0  0.277962  0.654062  0  4.066064  0
C  C16  1  0.14053850  0.73056195  0.51468610  1  1.450422  0  0.256143  0.633429  0  4.047189  0
C  C17  1  0.38475077  0.49325917  0.30653016  1  1.566253  0  0.269472  0.638354  0  4.086566  0
C  C18  1  0.57842474  0.50077610  0.90189634  1  -0.035127  0  -0.005812  -0.041095  0  3.969369  0
C  C19  1  0.45278897  0.49663191  0.16592256  1  -0.027355  0  -0.006401  -0.038028  0  3.975964  0
C  C20  1  0.73264049  0.43943129  0.97019502  1  -0.07163  0  -0.071663  -0.08  0  3.948061  0
C  C21  1  0.29906568  0.55865665  0.09765044  1  0.014498  0  -0.070582  -0.070763  0  3.947218  0
C  C22  1  0.67044792  0.43740839  0.10201760  1  0.065028  0  -0.072618  -0.087934  0  3.943352  0
C  C23  1  0.36136752  0.56093979  0.96609883  1  -0.034368  0  -0.070879  -0.083172  0  3.950594  0
C  C24  1  0.94438478  0.13582756  0.46310541  1  0.003294  0  -0.03053  -0.212664  0  3.950655  0
C  C25  1  0.15440360  0.07102748  0.38095871  1  0.091876  0  -0.026128  -0.035636  0  4.026208  0
C  C26  1  0.78846113  0.06711830  0.51942690  1  0.575498  0  0.105251  0.236647  0  3.997461  0
C  C27  1  0.27984264  0.13728342  0.28476790  1  0.542761  0  0.046973  0.117302  0  4.098822  0
C  C28  1  0.47667901  0.07528792  0.20089720  1  0.561782  0  0.061764  0.123954  0  4.119071  0
C  C29  1  0.07755425  0.86448386  0.47249945  1  -0.000274  0  -0.032435  -0.216119  0  3.932477  0
C  C30  1  0.85508308  0.93033086  0.52243677  1  0.684264  0  0.103911  0.233343  0  3.993232  0
C  C31  1  0.22633235  0.93335004  0.38821261  1  0.015543  0  -0.026444  -0.037258  0  4.00786  0
C  C32  1  0.42587842  0.87423383  0.30104933  1  0.555236  0  0.046652  0.118918  0  4.10217  0
C  C33  1  0.55083299  0.94293721  0.21014749  1  0.461235  0  0.059141  0.117118  0  4.115547  0
O  O34  1  0.68446599  0.32406663  0.55085331  1  -1.262191  0  -0.243068  -0.615765  0  2.404996  0
O  O35  1  0.84711653  0.47582827  0.70398795  1  -1.263232  0  -0.231067  -0.598738  0  2.340161  0
O  O36  1  0.98919531  0.67136995  0.56060388  1  -1.262527  0  -0.244606  -0.60243  0  2.385292  0
O  O37  1  0.53526440  0.46673083  0.36448099  1  -1.258432  0  -0.232625  -0.584628  0  2.349811  0
O  O38  1  0.34381068  0.67241741  0.50974558  1  -1.268268  0  -0.241996  -0.588777  0  2.40754  0
O  O39  1  0.17909796  0.51785201  0.36195862  1  -1.270005  0  -0.237452  -0.608075  0  2.36436  0
O  O40  1  0.04122573  0.32317724  0.48943736  1  -1.258283  0  -0.238344  -0.587256  0  2.367996  0
O  O41  1  0.48806415  0.52523911  0.70611531  1  -1.256453  0  -0.231401  -0.590102  0  2.326906  0
O  O42  1  0.26120597  0.43700489  0.59349086  1  -1.452275  0  -0.444446  -0.979932  0  2.173561  0
O  O43  1  0.75999544  0.55578123  0.47746946  1  -1.442246  0  -0.451036  -0.996098  0  2.219295  0
O  O44  1  0.69607217  0.87605556  0.58620051  1  -1.128496  0  -0.327351  -0.388122  0  2.289427  0
O  O45  1  0.58035099  0.11761410  0.58325106  1  -1.11854  0  -0.326879  -0.386913  0  2.289975  0
O  O46  1  0.51144853  0.74475239  0.28857696  1  -1.200372  0  -0.38052  -0.496759  0  2.378837  0
O  O47  1  0.73864828  0.87982352  0.12704478  1  -1.12667  0  -0.356058  -0.403145  0  2.247364  0
O  O48  1  0.59030023  0.14260623  0.10817939  1  -1.104312  0  -0.354371  -0.402328  0  2.27152  0
O  O49  1  0.21450952  0.26591687  0.25498054  1  -1.179929  0  -0.379146  -0.483417  0  2.355371  0
