# generated using pymatgen
data_ZnH5C16N5O8F3
_symmetry_space_group_name_H-M   'P 1'
_cell_length_a   9.53967123
_cell_length_b   10.88758947
_cell_length_c   19.34749127
_cell_angle_alpha   88.01501857
_cell_angle_beta   90.32957205
_cell_angle_gamma   88.70553473
_symmetry_Int_Tables_number   1
_chemical_formula_structural   ZnH5C16N5O8F3
_chemical_formula_sum   'Zn2 H10 C32 N10 O16 F6'
_cell_volume   2007.74700602
_cell_formula_units_Z   2
loop_
 _symmetry_equiv_pos_site_id
 _symmetry_equiv_pos_as_xyz
  1  'x, y, z'
loop_
 _atom_site_type_symbol
 _atom_site_label
 _atom_site_symmetry_multiplicity
 _atom_site_fract_x
 _atom_site_fract_y
 _atom_site_fract_z
 _atom_site_occupancy
 _atom_site_pbe_bader_charge
 _atom_site_pbe_bader_spin_density
 _atom_site_pbe_cm5_charge
 _atom_site_pbe_ddec_charge
 _atom_site_pbe_ddec_spin_density
 _atom_site_pbe_ddec_sum_bond_order
 _atom_site_pbe_magmom
Zn  Zn0  1  0.35446382  0.49661287  0.49797069  1  1.285761  0  0.669295  0.816541  0  2.4368  0
Zn  Zn1  1  0.64554851  0.50338875  0.50203459  1  1.288466  0  0.669356  0.816639  0  2.436689  0
H  H2  1  0.27087674  0.46159144  0.71859960  1  0.138507  0  0.11426  0.124515  0  1.017825  0
H  H3  1  0.72917834  0.53841036  0.28139066  1  0.138004  0  0.114474  0.124654  0  1.018043  0
H  H4  1  0.71832976  0.51308059  0.72333598  1  0.139258  0  0.123526  0.150979  0  0.968858  0
H  H5  1  0.28172126  0.48693782  0.27668204  1  0.139914  0  0.12358  0.151247  0  0.968666  0
H  H6  1  0.24685442  0.95313809  0.49742366  1  0.112543  0  0.12413  0.148621  0  0.952925  0
H  H7  1  0.75311158  0.04686695  0.50257129  1  0.112611  0  0.124131  0.148578  0  0.95298  0
H  H8  1  0.10349423  0.68515652  0.44980608  1  0.170508  0  0.138486  0.1443  0  0.94407  0
H  H9  1  0.89651082  0.31483350  0.55019001  1  0.170474  0  0.138449  0.144199  0  0.944133  0
H  H10  1  0.10551644  0.47051797  0.61470936  1  0.170179  0  0.139611  0.147426  0  0.946966  0
H  H11  1  0.89448553  0.52946840  0.38528678  1  0.170115  0  0.139602  0.147418  0  0.947018  0
C  C12  1  0.47642380  0.73935149  0.50240594  1  1.648651  0  0.217466  0.612327  0  4.200116  0
C  C13  1  0.52353312  0.26064133  0.49759946  1  1.649591  0  0.217716  0.612931  0  4.199348  0
C  C14  1  0.49788972  0.48830770  0.63483445  1  1.530953  0  0.222383  0.602191  0  4.155064  0
C  C15  1  0.50217765  0.51172478  0.36517051  1  1.532591  0  0.222747  0.603124  0  4.153407  0
C  C16  1  0.36796163  0.47307931  0.74697456  1  0.120734  0  -0.072566  -0.139678  0  3.940666  0
C  C17  1  0.63208821  0.52692964  0.25302340  1  0.120988  0  -0.072666  -0.14002  0  3.940231  0
C  C18  1  0.36642251  0.47221943  0.81873191  1  0.157276  0  0.0892  0.064707  0  3.90266  0
C  C19  1  0.63360215  0.52778707  0.18126195  1  0.156044  0  0.089189  0.066055  0  3.901206  0
C  C20  1  0.48841286  0.48650616  0.85829609  1  0.091854  0  0.013341  -0.109849  0  3.95601  0
C  C21  1  0.51160343  0.51350923  0.14170906  1  0.092155  0  0.013262  -0.110355  0  3.955833  0
C  C22  1  0.61315197  0.50083799  0.82138852  1  0.462455  0  0.120901  0.277628  0  4.021455  0
C  C23  1  0.38686677  0.49916689  0.17862862  1  0.463539  0  0.120624  0.277275  0  4.02134  0
C  C24  1  0.61891179  0.50079891  0.74970208  1  0.045782  0  -0.068824  -0.180282  0  3.911109  0
C  C25  1  0.38113817  0.49921775  0.25031338  1  0.04537  0  -0.068727  -0.180455  0  3.910965  0
C  C26  1  0.49486793  0.48703878  0.71224084  1  0.019606  0  -0.003541  0.011983  0  3.957125  0
C  C27  1  0.50518808  0.51298455  0.28776576  1  0.019299  0  -0.003883  0.011479  0  3.957046  0
C  C28  1  0.50797639  0.50754031  0.06525550  1  1.044534  0  0.250572  0.268009  0  4.024941  0
C  C29  1  0.49201578  0.49247526  0.93474915  1  1.046796  0  0.250555  0.267996  0  4.02473  0
C  C30  1  0.35801011  0.97448753  0.49898858  1  -0.006287  0  -0.070824  -0.160872  0  3.628744  0
C  C31  1  0.64195402  0.02550462  0.50100752  1  -0.006106  0  -0.070936  -0.160953  0  3.628376  0
C  C32  1  0.43769386  0.05100731  0.44299575  1  0.282444  0  0.090021  0.00904  0  3.622552  0
C  C33  1  0.56226094  0.94897848  0.55699991  1  0.282486  0  0.089919  0.008935  0  3.622832  0
C  C34  1  0.51893936  0.12338704  0.49868331  1  -0.022878  0  -0.000146  -0.101069  0  3.660523  0
C  C35  1  0.48101948  0.87660613  0.50131072  1  -0.023283  0  -0.000312  -0.101149  0  3.660791  0
C  C36  1  0.43685933  0.04655067  0.55508540  1  0.655976  0  0.125703  0.268041  0  3.698888  0
C  C37  1  0.56310587  0.95343788  0.44490815  1  0.656649  0  0.125492  0.268015  0  3.69843  0
C  C38  1  0.96039995  0.59265151  0.53698923  1  0.899441  0  0.211821  0.359417  0  3.740159  0
C  C39  1  0.03960518  0.40733479  0.46300845  1  0.899526  0  0.211877  0.359642  0  3.739835  0
C  C40  1  0.05032402  0.60453001  0.47085798  1  0.170593  0  0.029827  -0.031064  0  3.538871  0
C  C41  1  0.94968104  0.39545911  0.52913761  1  0.170663  0  0.029898  -0.030915  0  3.538869  0
C  C42  1  0.05162793  0.48226607  0.56492230  1  0.166779  0  0.03227  -0.02793  0  3.52983  0
C  C43  1  0.94837819  0.51772214  0.43507277  1  0.166601  0  0.032307  -0.027876  0  3.529438  0
N  N44  1  0.55795515  0.39869548  0.96977591  1  -0.542464  0  -0.147406  -0.12808  0  3.152624  0
N  N45  1  0.44201812  0.60132115  0.03022822  1  -0.540012  0  -0.147247  -0.12806  0  3.152825  0
N  N46  1  0.56521326  0.40609419  0.03777512  1  -0.493583  0  -0.151063  -0.133872  0  3.156035  0
N  N47  1  0.43476321  0.59392321  0.96223314  1  -0.493325  0  -0.150955  -0.133742  0  3.156057  0
N  N48  1  0.14054349  0.49325309  0.49841821  1  -0.833341  0  -0.302153  -0.216457  0  3.049227  0
N  N49  1  0.85946363  0.50673787  0.50157684  1  -0.832472  0  -0.302222  -0.216376  0  3.048928  0
N  N50  1  0.23069017  0.45001849  0.85328494  1  0.381318  0  0.065853  0.5213  0  4.189812  0
N  N51  1  0.76932912  0.54998832  0.14670013  1  0.381688  0  0.06601  0.521213  0  4.190025  0
N  N52  1  0.37974152  0.10907451  0.37906946  1  0.425166  0  0.059451  0.525928  0  4.225442  0
N  N53  1  0.62019355  0.89090039  0.62092631  1  0.425799  0  0.059387  0.525847  0  4.225692  0
O  O54  1  0.35831419  0.68902989  0.50010422  1  -1.163238  0  -0.308922  -0.531214  0  2.285663  0
O  O55  1  0.64162938  0.31097397  0.49993262  1  -1.163263  0  -0.30896  -0.531493  0  2.285891  0
O  O56  1  0.59729258  0.68786483  0.50435707  1  -1.153186  0  -0.315327  -0.545037  0  2.330337  0
O  O57  1  0.40266200  0.31212495  0.49562872  1  -1.153988  0  -0.315611  -0.54536  0  2.329711  0
O  O58  1  0.38012378  0.49025691  0.60326651  1  -1.157448  0  -0.31498  -0.550187  0  2.331083  0
O  O59  1  0.61997200  0.50976276  0.39673080  1  -1.158161  0  -0.315184  -0.550616  0  2.330163  0
O  O60  1  0.61786121  0.48764780  0.60639406  1  -1.160409  0  -0.316064  -0.542345  0  2.321093  0
O  O61  1  0.38223003  0.51240364  0.39361638  1  -1.161775  0  -0.316061  -0.542634  0  2.320693  0
O  O62  1  0.23422872  0.41445680  0.91475692  1  -0.42231  0  -0.113508  -0.300629  0  1.894073  0
O  O63  1  0.12272525  0.46640293  0.81794059  1  -0.431076  0  -0.137234  -0.334299  0  1.865659  0
O  O64  1  0.76576205  0.58556393  0.08523010  1  -0.42205  0  -0.113685  -0.300974  0  1.894571  0
O  O65  1  0.87730451  0.53359850  0.18203781  1  -0.431  0  -0.137218  -0.334316  0  1.865514  0
O  O66  1  0.26059455  0.08024134  0.36114302  1  -0.427275  0  -0.130932  -0.324722  0  1.851814  0
O  O67  1  0.45819896  0.18041284  0.34750160  1  -0.453384  0  -0.123797  -0.314166  0  1.862335  0
O  O68  1  0.73931478  0.91973188  0.63888277  1  -0.426808  0  -0.130642  -0.324424  0  1.851898  0
O  O69  1  0.54170886  0.81953561  0.65246498  1  -0.453888  0  -0.123938  -0.314338  0  1.862435  0
F  F70  1  0.73276593  0.51776304  0.85724319  1  -0.61256  0  -0.082765  -0.116864  0  1.330562  0
F  F71  1  0.26724574  0.48223157  0.14278078  1  -0.61308  0  -0.08248  -0.116589  0  1.330465  0
F  F72  1  0.37828785  0.09563268  0.61177668  1  -0.623605  0  -0.100492  -0.135727  0  1.297568  0
F  F73  1  0.62167234  0.90434301  0.38821803  1  -0.623989  0  -0.100438  -0.135771  0  1.297634  0
F  F74  1  0.90663964  0.68467222  0.57350269  1  -0.62173  0  -0.077439  -0.128634  0  1.332805  0
F  F75  1  0.09337611  0.31530841  0.42649762  1  -0.621713  0  -0.077542  -0.128812  0  1.332573  0
