# generated using pymatgen
data_Al2H14C21S2(NO5)2
_symmetry_space_group_name_H-M   'P 1'
_cell_length_a   6.84423384
_cell_length_b   11.10331001
_cell_length_c   12.88069973
_cell_angle_alpha   80.54175920
_cell_angle_beta   72.77861925
_cell_angle_gamma   71.39852256
_symmetry_Int_Tables_number   1
_chemical_formula_structural   Al2H14C21S2(NO5)2
_chemical_formula_sum   'Al2 H14 C21 S2 N2 O10'
_cell_volume   883.48025679
_cell_formula_units_Z   1
loop_
 _symmetry_equiv_pos_site_id
 _symmetry_equiv_pos_as_xyz
  1  'x, y, z'
loop_
 _atom_site_type_symbol
 _atom_site_label
 _atom_site_symmetry_multiplicity
 _atom_site_fract_x
 _atom_site_fract_y
 _atom_site_fract_z
 _atom_site_occupancy
 _atom_site_pbe_bader_charge
 _atom_site_pbe_bader_spin_density
 _atom_site_pbe_cm5_charge
 _atom_site_pbe_ddec_charge
 _atom_site_pbe_ddec_spin_density
 _atom_site_pbe_ddec_sum_bond_order
 _atom_site_pbe_magmom
Al  Al0  1  0.48921642  0.50172230  0.50151687  1  2.504734  0  0.401549  1.634908  0  2.568536  0
Al  Al1  1  0.98699513  0.50344132  0.50221192  1  2.506208  0  0.400506  1.638721  0  2.562486  0
H  H2  1  0.28560346  0.34673457  0.55577292  1  0.595808  0  0.345971  0.419877  0  0.868956  0
H  H3  1  0.68025770  0.66075963  0.46045701  1  0.636709  0  0.33459  0.403847  0  0.90438  0
H  H4  1  0.72610834  0.52634193  0.13732174  1  0.111788  0  0.112457  0.134927  0  1.002051  0
H  H5  1  0.25197475  0.24080411  0.33860656  1  0.079682  0  0.1008  0.119271  0  1.04108  0
H  H6  1  0.47243447  0.76759416  0.36082293  1  0.107384  0  0.106214  0.120238  0  1.050993  0
H  H7  1  0.74164617  0.88587083  0.57614893  1  0.07828  0  0.106584  0.112032  0  0.991582  0
H  H8  1  0.63107360  0.12368966  0.56323964  1  0.076455  0  0.106064  0.108441  0  0.999779  0
H  H9  1  0.20854370  0.46510103  0.78560117  1  0.115229  0  0.105091  0.165787  0  1.000767  0
H  H10  1  0.06287114  0.56565129  0.89314128  1  0.055522  0  0.09049  0.129947  0  1.013612  0
H  H11  1  0.13447468  0.39802865  0.92262556  1  0.037621  0  0.088362  0.125157  0  1.004074  0
H  H12  1  0.58716665  0.23004048  0.20825842  1  0.446301  0  0.296909  0.289644  0  0.969216  0
H  H13  1  0.73911636  0.09175775  0.15258543  1  0.444219  0  0.302952  0.288688  0  0.956441  0
H  H14  1  0.81608999  0.77650007  0.25570497  1  0.429481  0  0.304192  0.302436  0  0.941973  0
H  H15  1  0.88662684  0.91166687  0.23733970  1  0.430075  0  0.3044  0.294752  0  0.950058  0
C  C16  1  0.86495683  0.27816824  0.47962607  1  1.563743  0  0.274638  0.664335  0  4.052158  0
C  C17  1  0.63376171  0.49404531  0.69796801  1  1.592172  0  0.257349  0.650651  0  4.134123  0
C  C18  1  0.12233796  0.72926862  0.50330454  1  1.527432  0  0.2724  0.662216  0  4.058626  0
C  C19  1  0.34347983  0.51019185  0.30520867  1  1.611488  0  0.249575  0.630669  0  4.16975  0
C  C20  1  0.38282323  0.48585968  0.89293898  1  0.066255  0  -0.008218  0.150249  0  4.020509  0
C  C21  1  0.59568763  0.51381905  0.11226821  1  0.028745  0  -0.0899  -0.13283  0  3.968657  0
C  C22  1  0.56879582  0.49769614  0.81718132  1  -0.200712  0  -0.023483  -0.196103  0  3.950089  0
C  C23  1  0.40686566  0.50383766  0.18643073  1  -0.199486  0  -0.027829  -0.137771  0  4.001522  0
C  C24  1  0.58858470  0.50780246  0.00455939  1  -0.166612  0  -0.027219  -0.021743  0  4.10387  0
C  C25  1  0.39566347  0.49201437  0.99941717  1  -0.184443  0  -0.029315  -0.087576  0  4.065431  0
C  C26  1  0.94049446  0.13805809  0.47059127  1  -0.040511  0  -0.012962  -0.090094  0  3.944873  0
C  C27  1  0.15325815  0.07283664  0.41413911  1  -0.009187  0  -0.007583  0.06528  0  3.998812  0
C  C28  1  0.79346988  0.07104856  0.52374085  1  -0.053105  0  -0.092758  -0.102549  0  4.028838  0
C  C29  1  0.30020941  0.13706154  0.34695940  1  0.013033  0  -0.116239  -0.269887  0  3.985108  0
C  C30  1  0.50144856  0.07225532  0.28827235  1  0.352812  0  0.090039  0.214748  0  4.08853  0
C  C31  1  0.06423653  0.87029917  0.48326672  1  -0.022544  0  -0.016133  -0.095148  0  3.954914  0
C  C32  1  0.85500855  0.93800385  0.53065688  1  0.021634  0  -0.091729  -0.106047  0  4.028149  0
C  C33  1  0.21604242  0.93521746  0.41973250  1  0.041194  0  -0.011389  0.061654  0  4.000765  0
C  C34  1  0.42339573  0.87102915  0.35949750  1  -0.053423  0  -0.118273  -0.278317  0  3.99737  0
C  C35  1  0.56711454  0.93535416  0.29741231  1  0.418041  0  0.085459  0.210731  0  4.091307  0
C  C36  1  0.18904796  0.47638533  0.87108874  1  -0.072591  0  -0.247898  -0.419071  0  4.014411  0
S  S37  1  0.75341410  0.51645529  0.87522447  1  0.292271  0  0.099626  0.133679  0  3.039473  0
S  S38  1  0.22113948  0.48653444  0.12644212  1  0.23011  0  0.08413  0.124471  0  2.815855  0
N  N39  1  0.64679235  0.13422675  0.22201627  1  -1.236586  0  -0.594748  -0.597993  0  3.30455  0
N  N40  1  0.77075406  0.87242499  0.23758856  1  -1.206629  0  -0.599054  -0.616599  0  3.281988  0
O  O41  1  0.66875529  0.33334772  0.48252392  1  -1.274384  0  -0.235481  -0.603718  0  2.349462  0
O  O42  1  0.82588508  0.49730932  0.65198483  1  -1.254936  0  -0.240673  -0.596946  0  2.345642  0
O  O43  1  0.97995275  0.67534589  0.50831614  1  -1.269102  0  -0.238573  -0.602588  0  2.337414  0
O  O44  1  0.48209374  0.51760433  0.34972974  1  -1.253505  0  -0.237578  -0.576091  0  2.321528  0
O  O45  1  0.30863426  0.67123393  0.51565388  1  -1.272842  0  -0.237024  -0.599393  0  2.363494  0
O  O46  1  0.15060441  0.50910657  0.35163186  1  -1.2615  0  -0.244579  -0.600115  0  2.36545  0
O  O47  1  0.99652700  0.33323554  0.48835025  1  -1.273442  0  -0.235605  -0.598586  0  2.354852  0
O  O48  1  0.49794496  0.48711307  0.65121218  1  -1.257565  0  -0.231186  -0.575393  0  2.338812  0
O  O49  1  0.24654767  0.43913327  0.54503903  1  -1.405714  0  -0.449952  -0.973607  0  2.126755  0
O  O50  1  0.72835795  0.56854997  0.45815130  1  -1.445604  0  -0.454965  -0.979191  0  2.138974  0
