# generated using pymatgen
data_ZnH11C11N3O5
_symmetry_space_group_name_H-M   'P 1'
_cell_length_a   7.37264901
_cell_length_b   10.79341453
_cell_length_c   16.08969354
_cell_angle_alpha   89.99797756
_cell_angle_beta   98.96690936
_cell_angle_gamma   90.00220263
_symmetry_Int_Tables_number   1
_chemical_formula_structural   ZnH11C11N3O5
_chemical_formula_sum   'Zn4 H44 C44 N12 O20'
_cell_volume   1264.70654567
_cell_formula_units_Z   4
loop_
 _symmetry_equiv_pos_site_id
 _symmetry_equiv_pos_as_xyz
  1  'x, y, z'
loop_
 _atom_site_type_symbol
 _atom_site_label
 _atom_site_symmetry_multiplicity
 _atom_site_fract_x
 _atom_site_fract_y
 _atom_site_fract_z
 _atom_site_occupancy
 _atom_site_hle17_bader_spin_density
 _atom_site_hle17_ddec_charge
 _atom_site_hle17_ddec_spin_density
 _atom_site_hle17_ddec_sum_bond_order
 _atom_site_hle17_magmom
 _atom_site_hse06_10hf_bader_spin_density
 _atom_site_hse06_10hf_ddec_charge
 _atom_site_hse06_10hf_ddec_spin_density
 _atom_site_hse06_10hf_ddec_sum_bond_order
 _atom_site_hse06_10hf_magmom
 _atom_site_hse06_bader_spin_density
 _atom_site_hse06_ddec_charge
 _atom_site_hse06_ddec_spin_density
 _atom_site_hse06_ddec_sum_bond_order
 _atom_site_hse06_magmom
 _atom_site_pbe_bader_charge
 _atom_site_pbe_bader_spin_density
 _atom_site_pbe_cm5_charge
 _atom_site_pbe_ddec_charge
 _atom_site_pbe_ddec_spin_density
 _atom_site_pbe_ddec_sum_bond_order
 _atom_site_pbe_magmom
Zn  Zn0  1  0.08990408  0.19828888  0.10182868  1  0  1.052927  0  1.839805  0  0  0.868537  0  2.310843  0  0  0.913432  0  2.256338  0  1.293987  0  0.693829  0.837176  0  2.348379  0
Zn  Zn1  1  0.91004652  0.69827868  0.39816430  1  0  1.052802  0  1.839805  0  0  0.868399  0  2.310845  0  0  0.913287  0  2.256339  0  1.294515  0  0.693757  0.837037  0  2.348377  0
Zn  Zn2  1  0.91008697  0.80171169  0.89816564  1  0  1.052932  0  1.839664  0  0  0.868538  0  2.31072  0  0  0.913428  0  2.256219  0  1.294107  0  0.693836  0.837174  0  2.348254  0
Zn  Zn3  1  0.08995159  0.30170799  0.60183355  1  0  1.052766  0  1.839884  0  0  0.868287  0  2.310963  0  0  0.913186  0  2.256462  0  1.294645  0  0.693719  0.836928  0  2.348494  0
H  H4  1  0.63729313  0.25294410  0.98197465  1  0  0.139861  0  0.927435  0  0  0.160693  0  0.98421  0  0  0.162601  0  0.983421  0  0.062892  0  0.104816  0.159305  0  0.984793  0
H  H5  1  0.36265469  0.75290775  0.51801866  1  0  0.139924  0  0.927138  0  0  0.160617  0  0.98412  0  0  0.162525  0  0.98333  0  0.06294  0  0.104805  0.159232  0  0.984697  0
H  H6  1  0.36270652  0.74709630  0.01802577  1  0  0.140115  0  0.926946  0  0  0.16087  0  0.983825  0  0  0.162777  0  0.983035  0  0.062602  0  0.104858  0.159476  0  0.984417  0
H  H7  1  0.63734676  0.24707151  0.48196756  1  0  0.139937  0  0.927319  0  0  0.160642  0  0.984242  0  0  0.16255  0  0.983452  0  0.062867  0  0.104848  0.159257  0  0.984822  0
H  H8  1  0.58689952  0.40856285  0.94982271  1  0  0.136323  0  0.933653  0  0  0.159279  0  0.988108  0  0  0.161762  0  0.986582  0  0.048916  0  0.105594  0.157445  0  0.989252  0
H  H9  1  0.41306214  0.90852508  0.55017264  1  0  0.136386  0  0.933715  0  0  0.159235  0  0.988267  0  0  0.161719  0  0.98674  0  0.049521  0  0.105558  0.157402  0  0.989409  0
H  H10  1  0.41312429  0.59148311  0.05019154  1  0  0.136426  0  0.933691  0  0  0.159322  0  0.988185  0  0  0.161794  0  0.986661  0  0.049158  0  0.10559  0.157488  0  0.989328  0
H  H11  1  0.58694941  0.09145048  0.44982162  1  0  0.136322  0  0.933634  0  0  0.159173  0  0.988194  0  0  0.161654  0  0.986666  0  0.049328  0  0.105529  0.157339  0  0.989339  0
H  H12  1  0.69014309  0.37603575  0.05506788  1  0  0.132511  0  0.949155  0  0  0.15003  0  1.013109  0  0  0.151585  0  1.013662  0  0.071435  0  0.099517  0.148919  0  1.012742  0
H  H13  1  0.30981439  0.87600412  0.44492860  1  0  0.132517  0  0.949202  0  0  0.150133  0  1.012995  0  0  0.151689  0  1.013546  0  0.071643  0  0.099592  0.149022  0  1.012632  0
H  H14  1  0.30988737  0.62398705  0.94494365  1  0  0.132485  0  0.94937  0  0  0.150067  0  1.013218  0  0  0.151623  0  1.013769  0  0.071641  0  0.099496  0.148958  0  1.012851  0
H  H15  1  0.69018901  0.12398626  0.55506644  1  0  0.13252  0  0.949233  0  0  0.150066  0  1.013106  0  0  0.151622  0  1.013655  0  0.071413  0  0.099602  0.148956  0  1.012742  0
H  H16  1  0.36611523  0.05534385  0.07446121  1  0  0.435921  0  0.86933  0  0  0.403499  0  0.935392  0  0  0.413804  0  0.920365  0  0.681871  0  0.295956  0.396232  0  0.945981  0
H  H17  1  0.63383995  0.55534013  0.42553825  1  0  0.435867  0  0.869388  0  0  0.403459  0  0.935437  0  0  0.413765  0  0.92041  0  0.681521  0  0.295924  0.396191  0  0.946027  0
H  H18  1  0.63386346  0.94464560  0.92553240  1  0  0.435829  0  0.869466  0  0  0.403408  0  0.935524  0  0  0.413713  0  0.920497  0  0.681703  0  0.295911  0.396141  0  0.946112  0
H  H19  1  0.36615800  0.44465025  0.57445709  1  0  0.435783  0  0.869508  0  0  0.403404  0  0.935495  0  0  0.413711  0  0.920467  0  0.681543  0  0.295908  0.396135  0  0.946084  0
H  H20  1  0.19860858  0.01402145  0.00121846  1  0  0.434855  0  0.867659  0  0  0.401406  0  0.933178  0  0  0.413302  0  0.915954  0  0.667236  0  0.292997  0.393016  0  0.945317  0
H  H21  1  0.80136881  0.51401121  0.49877482  1  0  0.435002  0  0.867456  0  0  0.401466  0  0.933129  0  0  0.413363  0  0.915902  0  0.666924  0  0.293025  0.393073  0  0.945269  0
H  H22  1  0.80136861  0.98597727  0.99877320  1  0  0.435198  0  0.867195  0  0  0.401633  0  0.932902  0  0  0.41353  0  0.915676  0  0.667016  0  0.293072  0.393246  0  0.945036  0
H  H23  1  0.19863176  0.48597454  0.50121881  1  0  0.435057  0  0.867395  0  0  0.401491  0  0.933104  0  0  0.413386  0  0.915882  0  0.666909  0  0.293033  0.393104  0  0.945238  0
H  H24  1  0.13804294  0.35218824  0.26633415  1  0  0.085793  0  0.933861  0  0  0.094339  0  0.995369  0  0  0.097391  0  0.992932  0  0.091963  0  0.117728  0.092026  0  0.997309  0
H  H25  1  0.86190440  0.85220220  0.23367418  1  0  0.085782  0  0.933524  0  0  0.094292  0  0.995105  0  0  0.097343  0  0.992661  0  0.091688  0  0.117684  0.091981  0  0.997045  0
H  H26  1  0.86196071  0.64778361  0.73366463  1  0  0.085776  0  0.933846  0  0  0.094291  0  0.995385  0  0  0.097342  0  0.992948  0  0.091413  0  0.117692  0.09198  0  0.997324  0
H  H27  1  0.13808585  0.14780207  0.76632880  1  0  0.085872  0  0.933512  0  0  0.094357  0  0.995104  0  0  0.097405  0  0.992665  0  0.091848  0  0.117734  0.092047  0  0.997043  0
H  H28  1  0.92023765  0.43797010  0.35891995  1  0  0.115263  0  0.987899  0  0  0.121521  0  1.052286  0  0  0.125462  0  1.049765  0  0.150862  0  0.107614  0.11861  0  1.054348  0
H  H29  1  0.07969749  0.93799071  0.14108643  1  0  0.115364  0  0.987914  0  0  0.121593  0  1.052336  0  0  0.125544  0  1.049819  0  0.152054  0  0.107626  0.118678  0  1.054399  0
H  H30  1  0.07976890  0.56200545  0.64108149  1  0  0.115287  0  0.98796  0  0  0.121544  0  1.05234  0  0  0.125492  0  1.049824  0  0.152198  0  0.107644  0.118632  0  1.054402  0
H  H31  1  0.92029325  0.06203395  0.85892404  1  0  0.115459  0  0.987912  0  0  0.121676  0  1.052324  0  0  0.125627  0  1.049816  0  0.150766  0  0.107674  0.118744  0  1.054412  0
H  H32  1  0.59131122  0.37620336  0.32980460  1  0  0.116731  0  0.937994  0  0  0.126438  0  0.997371  0  0  0.129908  0  0.994681  0  0.150178  0  0.113962  0.123875  0  0.999417  0
H  H33  1  0.40862868  0.87622564  0.17019459  1  0  0.116568  0  0.937841  0  0  0.126227  0  0.997289  0  0  0.129696  0  0.9946  0  0.149829  0  0.113893  0.123657  0  0.999365  0
H  H34  1  0.40869258  0.62377682  0.67019668  1  0  0.116674  0  0.937982  0  0  0.126332  0  0.997421  0  0  0.129792  0  0.994761  0  0.150186  0  0.113919  0.123769  0  0.999464  0
H  H35  1  0.59136601  0.12380551  0.82981362  1  0  0.116624  0  0.93774  0  0  0.1263  0  0.997182  0  0  0.129771  0  0.99449  0  0.150416  0  0.113895  0.123729  0  0.999264  0
H  H36  1  0.80399796  0.47360915  0.85582486  1  0  0.315601  0  0.846589  0  0  0.306505  0  0.892283  0  0  0.312808  0  0.88823  0  0.503643  0  0.34043  0.302033  0  0.895254  0
H  H37  1  0.19598349  0.97353679  0.64419216  1  0  0.315574  0  0.846466  0  0  0.306214  0  0.892506  0  0  0.312519  0  0.888455  0  0.502989  0  0.340285  0.301751  0  0.895453  0
H  H38  1  0.19603973  0.52644145  0.14419268  1  0  0.315503  0  0.846669  0  0  0.306376  0  0.892407  0  0  0.312686  0  0.888354  0  0.502877  0  0.340351  0.301916  0  0.895341  0
H  H39  1  0.80403961  0.02642672  0.35581148  1  0  0.315538  0  0.846685  0  0  0.306261  0  0.89258  0  0  0.312576  0  0.888534  0  0.503029  0  0.340306  0.301786  0  0.895534  0
H  H40  1  0.29905267  0.30387786  0.96534647  1  0  0.106972  0  0.955543  0  0  0.118759  0  1.012664  0  0  0.12107  0  1.011611  0  0.13314  0  0.121291  0.117032  0  1.013593  0
H  H41  1  0.70089891  0.80385278  0.53465701  1  0  0.107156  0  0.95579  0  0  0.118946  0  1.012851  0  0  0.12126  0  1.011792  0  0.133184  0  0.121313  0.117187  0  1.013819  0
H  H42  1  0.70096253  0.69613753  0.03466169  1  0  0.106995  0  0.955617  0  0  0.118799  0  1.012716  0  0  0.121115  0  1.011653  0  0.133463  0  0.121297  0.117073  0  1.013643  0
H  H43  1  0.29910764  0.19613296  0.46534443  1  0  0.107116  0  0.955771  0  0  0.118899  0  1.012864  0  0  0.121213  0  1.011807  0  0.132979  0  0.121309  0.117152  0  1.013816  0
H  H44  1  0.14074761  0.44719153  0.83085279  1  0  0.121166  0  0.973156  0  0  0.128681  0  1.036962  0  0  0.131217  0  1.036299  0  0.168683  0  0.12059  0.126768  0  1.037623  0
H  H45  1  0.85923481  0.94713146  0.66916242  1  0  0.120983  0  0.973329  0  0  0.128559  0  1.037098  0  0  0.131096  0  1.036436  0  0.168512  0  0.120544  0.126657  0  1.037753  0
H  H46  1  0.85928318  0.55284517  0.16916373  1  0  0.120989  0  0.973263  0  0  0.12852  0  1.037081  0  0  0.131055  0  1.036423  0  0.168796  0  0.120595  0.126639  0  1.037707  0
H  H47  1  0.14078705  0.05284225  0.33084301  1  0  0.120979  0  0.973312  0  0  0.128496  0  1.037165  0  0  0.13103  0  1.036506  0  0.168696  0  0.12051  0.126589  0  1.037823  0
C  C48  1  0.68621395  0.34917835  0.98905021  1  0  -0.406047  0  3.711769  0  0  -0.489992  0  3.954822  0  0  -0.494158  0  3.9611  0  -0.016772  0  -0.230667  -0.486874  0  3.950285  0
C  C49  1  0.31373968  0.84914179  0.51094718  1  0  -0.406086  0  3.711497  0  0  -0.490064  0  3.954623  0  0  -0.494229  0  3.960895  0  -0.017095  0  -0.230698  -0.486954  0  3.950098  0
C  C50  1  0.31380537  0.65085835  0.01095819  1  0  -0.406338  0  3.711609  0  0  -0.49022  0  3.954604  0  0  -0.494369  0  3.960862  0  -0.017359  0  -0.230628  -0.487105  0  3.950077  0
C  C51  1  0.68626634  0.15083932  0.48904615  1  0  -0.406041  0  3.711639  0  0  -0.489997  0  3.95469  0  0  -0.494134  0  3.960979  0  -0.016504  0  -0.230729  -0.486887  0  3.950171  0
C  C52  1  0.43330293  0.20880333  0.21677001  1  0  0.659116  0  3.962712  0  0  0.60736  0  4.267694  0  0  0.642147  0  4.257833  0  1.638861  0  0.198251  0.583506  0  4.273757  0
C  C53  1  0.56664185  0.70880576  0.28322014  1  0  0.659405  0  3.962405  0  0  0.607597  0  4.267395  0  0  0.642398  0  4.257503  0  1.638555  0  0.198075  0.583739  0  4.273467  0
C  C54  1  0.56669090  0.79119075  0.78322510  1  0  0.659241  0  3.963035  0  0  0.607629  0  4.267827  0  0  0.642433  0  4.257935  0  1.638833  0  0.198285  0.583775  0  4.273895  0
C  C55  1  0.43335082  0.29120129  0.71677801  1  0  0.659467  0  3.962276  0  0  0.607627  0  4.26734  0  0  0.642428  0  4.257444  0  1.638885  0  0.19811  0.583768  0  4.273414  0
C  C56  1  0.76475627  0.19987353  0.18599078  1  0  0.053649  0  3.735597  0  0  0.047637  0  3.978964  0  0  0.04849  0  3.99824  0  0.433794  0  0.10292  0.04683  0  3.966364  0
C  C57  1  0.23519338  0.69988116  0.31400587  1  0  0.053595  0  3.736339  0  0  0.047624  0  3.979671  0  0  0.048472  0  3.998953  0  0.434447  0  0.102819  0.046814  0  3.967065  0
C  C58  1  0.23523615  0.80011407  0.81400362  1  0  0.053573  0  3.735786  0  0  0.047658  0  3.979235  0  0  0.048504  0  3.998508  0  0.433936  0  0.102891  0.046852  0  3.966637  0
C  C59  1  0.76480199  0.30012497  0.68599181  1  0  0.053617  0  3.736233  0  0  0.047678  0  3.979504  0  0  0.048531  0  3.998785  0  0.434019  0  0.102857  0.046867  0  3.966897  0
C  C60  1  0.63308548  0.24650796  0.23195911  1  0  -0.069443  0  3.678198  0  0  -0.054021  0  3.915505  0  0  -0.059249  0  3.932679  0  -0.014571  0  0.004548  -0.051153  0  3.904682  0
C  C61  1  0.36686121  0.74651842  0.26803612  1  0  -0.069504  0  3.678628  0  0  -0.05407  0  3.915857  0  0  -0.059301  0  3.933024  0  -0.014182  0  0.004463  -0.051189  0  3.905019  0
C  C62  1  0.36691122  0.75347871  0.76803802  1  0  -0.069568  0  3.678258  0  0  -0.054418  0  3.91583  0  0  -0.05965  0  3.932999  0  -0.014204  0  0.004445  -0.051552  0  3.905015  0
C  C63  1  0.63313303  0.25349605  0.73196523  1  0  -0.069483  0  3.678395  0  0  -0.054027  0  3.915632  0  0  -0.059256  0  3.932794  0  -0.014811  0  0.004612  -0.051136  0  3.904775  0
C  C64  1  0.72741609  0.09699368  0.12197554  1  0  0.619731  0  3.933025  0  0  0.565022  0  4.234383  0  0  0.597816  0  4.227356  0  1.615299  0  0.213595  0.542813  0  4.23851  0
C  C65  1  0.27254742  0.59699295  0.37801569  1  0  0.619575  0  3.933406  0  0  0.564835  0  4.234783  0  0  0.597633  0  4.227746  0  1.614424  0  0.213623  0.542632  0  4.238905  0
C  C66  1  0.27257051  0.90300411  0.87801355  1  0  0.619467  0  3.933143  0  0  0.564625  0  4.234702  0  0  0.597439  0  4.227638  0  1.615378  0  0.213426  0.542414  0  4.238824  0
C  C67  1  0.72744912  0.40300855  0.62197895  1  0  0.619426  0  3.933708  0  0  0.564687  0  4.235095  0  0  0.597475  0  4.228074  0  1.61484  0  0.213469  0.542476  0  4.239219  0
C  C68  1  0.99394351  0.32506191  0.25856925  1  0  0.12399  0  3.714794  0  0  0.089269  0  3.976337  0  0  0.096526  0  3.991762  0  0.505547  0  0.046632  0.084353  0  3.966097  0
C  C69  1  0.00599913  0.82507138  0.24143570  1  0  0.123854  0  3.714537  0  0  0.089163  0  3.976104  0  0  0.096435  0  3.991514  0  0.505614  0  0.046461  0.084249  0  3.965859  0
C  C70  1  0.00605739  0.67491642  0.74142937  1  0  0.123941  0  3.714998  0  0  0.089226  0  3.976559  0  0  0.096489  0  3.991977  0  0.506163  0  0.046577  0.084313  0  3.966314  0
C  C71  1  0.99399382  0.17493660  0.75856682  1  0  0.123744  0  3.714489  0  0  0.089076  0  3.976041  0  0  0.096346  0  3.991451  0  0.505236  0  0.046413  0.084163  0  3.965793  0
C  C72  1  0.87318978  0.37210284  0.30918907  1  0  -0.083564  0  3.694994  0  0  -0.101167  0  3.954973  0  0  -0.10502  0  3.972097  0  -0.04446  0  -0.076537  -0.098873  0  3.943815  0
C  C73  1  0.12675414  0.87212023  0.19081595  1  0  -0.083738  0  3.694648  0  0  -0.101342  0  3.95455  0  0  -0.105219  0  3.971685  0  -0.046505  0  -0.076471  -0.099037  0  3.943393  0
C  C74  1  0.12681532  0.62787550  0.69081104  1  0  -0.08377  0  3.694932  0  0  -0.101381  0  3.954906  0  0  -0.105246  0  3.972034  0  -0.046674  0  -0.076632  -0.099083  0  3.943745  0
C  C75  1  0.87324051  0.12789979  0.80919164  1  0  -0.083649  0  3.69461  0  0  -0.10122  0  3.954495  0  0  -0.105098  0  3.97163  0  -0.045183  0  -0.076415  -0.098907  0  3.94336  0
C  C76  1  0.86962356  0.36035873  0.96266942  1  0  0.429062  0  3.7031  0  0  0.406623  0  3.974813  0  0  0.422414  0  3.99044  0  1.005933  0  0.222476  0.396279  0  3.963753  0
C  C77  1  0.13033288  0.86032782  0.53733061  1  0  0.428968  0  3.703194  0  0  0.406838  0  3.974419  0  0  0.422636  0  3.990039  0  1.005327  0  0.222508  0.396489  0  3.96337  0
C  C78  1  0.13039426  0.63966778  0.03733702  1  0  0.4291  0  3.703137  0  0  0.406656  0  3.974898  0  0  0.422462  0  3.990522  0  1.006171  0  0.222405  0.396309  0  3.963839  0
C  C79  1  0.86967617  0.13965236  0.46266724  1  0  0.428985  0  3.703244  0  0  0.407013  0  3.974223  0  0  0.42276  0  3.989936  0  1.005742  0  0.222471  0.39664  0  3.963185  0
C  C80  1  0.15989036  0.33798741  0.94982652  1  0  0.006682  0  3.736278  0  0  -0.026318  0  4.00001  0  0  -0.024677  0  4.020036  0  0.392864  0  -0.002229  -0.027492  0  3.986624  0
C  C81  1  0.84006659  0.83795427  0.55017852  1  0  0.00628  0  3.736598  0  0  -0.026757  0  4.000391  0  0  -0.025118  0  4.020416  0  0.391646  0  -0.002284  -0.027904  0  3.987017  0
C  C82  1  0.84012625  0.66203354  0.05018234  1  0  0.006395  0  3.736262  0  0  -0.026603  0  4.000073  0  0  -0.024959  0  4.020096  0  0.3926  0  -0.002254  -0.027777  0  3.986693  0
C  C83  1  0.15994134  0.16202684  0.44982300  1  0  0.006228  0  3.73682  0  0  -0.026825  0  4.000613  0  0  -0.025182  0  4.020627  0  0.392034  0  -0.002349  -0.027983  0  3.987238  0
C  C84  1  0.69035531  0.33546367  0.29400151  1  0  -0.008329  0  3.63705  0  0  -0.036187  0  3.886794  0  0  -0.032406  0  3.901431  0  -0.004028  0  -0.056852  -0.038629  0  3.877258  0
C  C85  1  0.30958691  0.83548230  0.20599969  1  0  -0.007952  0  3.636525  0  0  -0.035705  0  3.886127  0  0  -0.031919  0  3.900766  0  -0.003598  0  -0.056602  -0.038164  0  3.876591  0
C  C86  1  0.30964708  0.66451744  0.70599907  1  0  -0.007966  0  3.636659  0  0  -0.035661  0  3.886359  0  0  -0.031882  0  3.900991  0  -0.004089  0  -0.056643  -0.038101  0  3.876823  0
C  C87  1  0.69040904  0.16454143  0.79400673  1  0  -0.008135  0  3.636372  0  0  -0.035957  0  3.886108  0  0  -0.032172  0  3.900746  0  -0.003389  0  -0.056817  -0.038419  0  3.876566  0
C  C88  1  0.08294938  0.41028949  0.88362987  1  0  -0.005121  0  3.693815  0  0  -0.045788  0  3.964727  0  0  -0.044649  0  3.984742  0  0.303041  0  -9e-06  -0.046474  0  3.951328  0
C  C89  1  0.91702439  0.91023757  0.61638049  1  0  -0.004874  0  3.693822  0  0  -0.045588  0  3.964616  0  0  -0.044444  0  3.984634  0  0.303792  0  4e-06  -0.046286  0  3.951198  0
C  C90  1  0.91707987  0.58974443  0.11638407  1  0  -0.004725  0  3.693905  0  0  -0.045416  0  3.964773  0  0  -0.044265  0  3.984791  0  0.303346  0  1.9e-05  -0.046133  0  3.951358  0
C  C91  1  0.08299048  0.08973984  0.38362267  1  0  -0.004623  0  3.693756  0  0  -0.045335  0  3.964596  0  0  -0.044172  0  3.984618  0  0.303206  0  9.3e-05  -0.046042  0  3.951179  0
N  N92  1  0.93899621  0.24305854  0.19738761  1  0  -0.358306  0  3.359544  0  0  -0.285824  0  3.639305  0  0  -0.301701  0  3.653031  0  -1.261861  0  -0.329514  -0.275049  0  3.630209  0
N  N93  1  0.06095324  0.74305900  0.30261400  1  0  -0.358129  0  3.35986  0  0  -0.285661  0  3.639598  0  0  -0.301537  0  3.65332  0  -1.262173  0  -0.329414  -0.274885  0  3.630497  0
N  N94  1  0.06099766  0.75692628  0.80260812  1  0  -0.358246  0  3.359822  0  0  -0.285735  0  3.639525  0  0  -0.301613  0  3.653257  0  -1.26183  0  -0.329443  -0.27496  0  3.630426  0
N  N95  1  0.93903938  0.25694157  0.69738352  1  0  -0.358111  0  3.359686  0  0  -0.285634  0  3.639395  0  0  -0.301513  0  3.65312  0  -1.262167  0  -0.329373  -0.274858  0  3.630298  0
N  N96  1  0.02720205  0.30809170  0.99864965  1  0  -0.457878  0  3.238864  0  0  -0.383791  0  3.530764  0  0  -0.405073  0  3.543476  0  -1.243662  0  -0.360826  -0.369338  0  3.521897  0
N  N97  1  0.97274278  0.80807279  0.50134785  1  0  -0.45805  0  3.239198  0  0  -0.383972  0  3.530873  0  0  -0.405265  0  3.543609  0  -1.243916  0  -0.360928  -0.369513  0  3.521987  0
N  N98  1  0.97280870  0.69192370  0.00135328  1  0  -0.457784  0  3.238701  0  0  -0.383784  0  3.530686  0  0  -0.405071  0  3.543403  0  -1.244057  0  -0.360799  -0.369328  0  3.521809  0
N  N99  1  0.02726219  0.19191018  0.49865039  1  0  -0.457857  0  3.23934  0  0  -0.383787  0  3.530885  0  0  -0.40506  0  3.543645  0  -1.244026  0  -0.360754  -0.369328  0  3.522013  0
N  N100  1  0.90112658  0.42360175  0.89330227  1  0  -0.332781  0  3.425088  0  0  -0.274237  0  3.660242  0  0  -0.290995  0  3.676639  0  -1.282216  0  -0.375676  -0.263041  0  3.649119  0
N  N101  1  0.09884574  0.92355174  0.60670427  1  0  -0.33245  0  3.424728  0  0  -0.273752  0  3.659797  0  0  -0.290519  0  3.676205  0  -1.280718  0  -0.375416  -0.26256  0  3.648687  0
N  N102  1  0.09889977  0.57643217  0.10670902  1  0  -0.332823  0  3.425289  0  0  -0.274195  0  3.660368  0  0  -0.290984  0  3.676792  0  -1.281294  0  -0.375628  -0.262998  0  3.649262  0
N  N103  1  0.90116897  0.07642197  0.39329639  1  0  -0.332791  0  3.425011  0  0  -0.274155  0  3.659943  0  0  -0.290954  0  3.676413  0  -1.280938  0  -0.375537  -0.262915  0  3.648796  0
O  O104  1  0.33618851  0.27097022  0.15674846  1  0  -0.674522  0  1.98609  0  0  -0.609662  0  2.250132  0  0  -0.638291  0  2.234983  0  -1.185501  0  -0.346517  -0.589138  0  2.259709  0
O  O105  1  0.66376345  0.77096376  0.34324272  1  0  -0.674589  0  1.986103  0  0  -0.609729  0  2.250161  0  0  -0.638359  0  2.235  0  -1.185118  0  -0.34639  -0.589203  0  2.25974  0
O  O106  1  0.66381327  0.72901923  0.84324275  1  0  -0.674566  0  1.986074  0  0  -0.609709  0  2.250025  0  0  -0.63834  0  2.234861  0  -1.185319  0  -0.34652  -0.589183  0  2.259607  0
O  O107  1  0.33624161  0.22903310  0.65675676  1  0  -0.67461  0  1.986084  0  0  -0.609721  0  2.250147  0  0  -0.638354  0  2.234988  0  -1.185182  0  -0.346347  -0.589198  0  2.25973  0
O  O108  1  0.23136858  0.05975767  0.05589277  1  0  -0.8502  0  1.937445  0  0  -0.77612  0  2.157543  0  0  -0.798469  0  2.120587  0  -1.320557  0  -0.584701  -0.760359  0  2.183148  0
O  O109  1  0.76858803  0.55975114  0.44409993  1  0  -0.850239  0  1.937373  0  0  -0.776115  0  2.157498  0  0  -0.798465  0  2.120535  0  -1.319994  0  -0.584712  -0.760351  0  2.183105  0
O  O110  1  0.76860882  0.94023364  0.94410201  1  0  -0.850431  0  1.937231  0  0  -0.776268  0  2.157439  0  0  -0.798616  0  2.120477  0  -1.32009  0  -0.584727  -0.760507  0  2.183044  0
O  O111  1  0.23140854  0.44023739  0.55589533  1  0  -0.850208  0  1.937502  0  0  -0.776043  0  2.157659  0  0  -0.798395  0  2.120699  0  -1.319939  0  -0.584686  -0.76028  0  2.183263  0
O  O112  1  0.37824635  0.13003626  0.26354452  1  0  -0.606701  0  1.884864  0  0  -0.566524  0  2.103107  0  0  -0.590589  0  2.095864  0  -1.167214  0  -0.324874  -0.548952  0  2.107271  0
O  O113  1  0.62168099  0.63004716  0.23644213  1  0  -0.606855  0  1.884735  0  0  -0.56665  0  2.102952  0  0  -0.59074  0  2.09574  0  -1.167036  0  -0.324819  -0.549084  0  2.10713  0
O  O114  1  0.62173804  0.86996246  0.73645253  1  0  -0.606801  0  1.885219  0  0  -0.566658  0  2.103382  0  0  -0.590735  0  2.096138  0  -1.167316  0  -0.324927  -0.549086  0  2.10755  0
O  O115  1  0.37829496  0.36995990  0.76355131  1  0  -0.606902  0  1.884635  0  0  -0.566703  0  2.102904  0  0  -0.590787  0  2.095678  0  -1.167192  0  -0.324933  -0.549138  0  2.107088  0
O  O116  1  0.85671937  0.07596548  0.07845365  1  0  -0.637575  0  2.102791  0  0  -0.557659  0  2.344306  0  0  -0.586157  0  2.332268  0  -1.184378  0  -0.306173  -0.53781  0  2.352061  0
O  O117  1  0.14325016  0.57595290  0.42154104  1  0  -0.637333  0  2.102979  0  0  -0.557461  0  2.344541  0  0  -0.585938  0  2.332485  0  -1.18415  0  -0.306082  -0.537624  0  2.352302  0
O  O118  1  0.14326004  0.92404343  0.92153005  1  0  -0.63728  0  2.102799  0  0  -0.557372  0  2.344356  0  0  -0.585862  0  2.332296  0  -1.184216  0  -0.306049  -0.537516  0  2.352108  0
O  O119  1  0.85674488  0.42404025  0.57845164  1  0  -0.637346  0  2.103205  0  0  -0.557469  0  2.344742  0  0  -0.585951  0  2.332699  0  -1.184457  0  -0.306077  -0.537614  0  2.352496  0
O  O120  1  0.58143495  0.03633106  0.11612131  1  0  -0.595782  0  1.996266  0  0  -0.548344  0  2.220906  0  0  -0.570337  0  2.209886  0  -1.194986  0  -0.308146  -0.533068  0  2.228065  0
O  O121  1  0.41852813  0.53633992  0.38386493  1  0  -0.595814  0  1.996157  0  0  -0.54836  0  2.220812  0  0  -0.570354  0  2.209782  0  -1.1946  0  -0.308199  -0.533086  0  2.227969  0
O  O122  1  0.41855456  0.96366395  0.88387044  1  0  -0.595581  0  1.996331  0  0  -0.548082  0  2.221034  0  0  -0.570081  0  2.209995  0  -1.195063  0  -0.308005  -0.532808  0  2.2282  0
O  O123  1  0.58146982  0.46366342  0.61613042  1  0  -0.595619  0  1.996236  0  0  -0.548186  0  2.220861  0  0  -0.570178  0  2.209848  0  -1.194665  0  -0.308093  -0.532911  0  2.228018  0
