# generated using pymatgen
data_CuH9C10N2Cl
_symmetry_space_group_name_H-M   'P 1'
_cell_length_a   12.36574937
_cell_length_b   15.86369007
_cell_length_c   15.86369791
_cell_angle_alpha   89.99987770
_cell_angle_beta   89.99997662
_cell_angle_gamma   90.00002633
_symmetry_Int_Tables_number   1
_chemical_formula_structural   CuH9C10N2Cl
_chemical_formula_sum   'Cu8 H72 C80 N16 Cl8'
_cell_volume   3111.92475495
_cell_formula_units_Z   8
loop_
 _symmetry_equiv_pos_site_id
 _symmetry_equiv_pos_as_xyz
  1  'x, y, z'
loop_
 _atom_site_type_symbol
 _atom_site_label
 _atom_site_symmetry_multiplicity
 _atom_site_fract_x
 _atom_site_fract_y
 _atom_site_fract_z
 _atom_site_occupancy
 _atom_site_pbe_bader_charge
 _atom_site_pbe_bader_spin_density
 _atom_site_pbe_cm5_charge
 _atom_site_pbe_ddec_charge
 _atom_site_pbe_ddec_spin_density
 _atom_site_pbe_ddec_sum_bond_order
 _atom_site_pbe_magmom
Cu  Cu0  1  0.62361379  0.52075537  0.00265068  1  0.714876  0  0.482226  0.365712  0  2.566538  0
Cu  Cu1  1  0.12361390  0.47924433  0.99735016  1  0.714931  0  0.482238  0.365674  0  2.566576  0
Cu  Cu2  1  0.87361481  0.49735100  0.02075489  1  0.714912  0  0.482205  0.36568  0  2.566586  0
Cu  Cu3  1  0.37361332  0.50264941  0.97924460  1  0.714908  0  0.482214  0.365688  0  2.566631  0
Cu  Cu4  1  0.62639163  0.97930325  0.50265026  1  0.715286  0  0.482124  0.365803  0  2.566152  0
Cu  Cu5  1  0.12639011  0.02069707  0.49734932  1  0.715284  0  0.482157  0.365858  0  2.566114  0
Cu  Cu6  1  0.37638951  0.00265085  0.52069568  1  0.715273  0  0.482161  0.365879  0  2.56609  0
Cu  Cu7  1  0.87639024  0.99734830  0.47930318  1  0.715268  0  0.482166  0.365899  0  2.566113  0
H  H8  1  0.24307055  0.59476621  0.82318696  1  0.050427  0  0.099976  0.112291  0  0.96122  0
H  H9  1  0.23853785  0.62274130  0.93019036  1  0.130553  0  0.086312  0.106  0  1.065247  0
H  H10  1  0.76450120  0.70940115  0.71708981  1  0.040739  0  0.103249  0.080594  0  0.935418  0
H  H11  1  0.75461090  0.64125724  0.94641283  1  0.068393  0  0.093482  0.100503  0  1.031944  0
H  H12  1  0.76298081  0.59988993  0.84555177  1  0.092941  0  0.098661  0.123178  0  0.98078  0
H  H13  1  0.12816691  0.72045445  0.83951658  1  0.053775  0  0.093591  0.100792  0  0.981948  0
H  H14  1  0.23183067  0.77532122  0.89327762  1  -0.005728  0  0.090686  0.086963  0  0.972474  0
H  H15  1  0.86903588  0.72977712  0.84813614  1  0.020613  0  0.094274  0.101393  0  0.980954  0
H  H16  1  0.76156080  0.78844878  0.89285076  1  0.001495  0  0.087795  0.081493  0  0.976751  0
H  H17  1  0.74306948  0.40523542  0.17681699  1  0.050298  0  0.099969  0.112298  0  0.961185  0
H  H18  1  0.73853681  0.37726096  0.06981359  1  0.130597  0  0.086313  0.10601  0  1.065187  0
H  H19  1  0.26449995  0.29059733  0.28290909  1  0.040753  0  0.103232  0.080566  0  0.935499  0
H  H20  1  0.25461143  0.35874250  0.05358670  1  0.068382  0  0.093482  0.100506  0  1.031913  0
H  H21  1  0.26297888  0.40010856  0.15444839  1  0.092993  0  0.098654  0.123138  0  0.980786  0
H  H22  1  0.62816577  0.27954650  0.16048488  1  0.053744  0  0.093596  0.100786  0  0.981996  0
H  H23  1  0.73183114  0.22468166  0.10672381  1  -0.005708  0  0.090711  0.086977  0  0.972439  0
H  H24  1  0.36903550  0.27022266  0.15186336  1  0.020613  0  0.09429  0.101379  0  0.980937  0
H  H25  1  0.26156283  0.21155033  0.10714751  1  0.001452  0  0.087787  0.081488  0  0.976726  0
H  H26  1  0.49307098  0.67681351  0.09476651  1  0.050432  0  0.099948  0.11227  0  0.961195  0
H  H27  1  0.48853826  0.56981000  0.12274245  1  0.130559  0  0.086301  0.105978  0  1.065231  0
H  H28  1  0.01450314  0.78291031  0.20940242  1  0.040766  0  0.103227  0.080567  0  0.93541  0
H  H29  1  0.00461206  0.55358732  0.14125777  1  0.068395  0  0.09349  0.100504  0  1.031936  0
H  H30  1  0.01298037  0.65444851  0.09989089  1  0.092942  0  0.098659  0.123161  0  0.980806  0
H  H31  1  0.37816565  0.66048361  0.22045540  1  0.053771  0  0.09359  0.100757  0  0.981978  0
H  H32  1  0.48183180  0.60672307  0.27532222  1  -0.005731  0  0.090704  0.086952  0  0.972461  0
H  H33  1  0.11903699  0.65186324  0.22977736  1  0.020583  0  0.094291  0.101415  0  0.981036  0
H  H34  1  0.01156269  0.60714784  0.28844912  1  0.001476  0  0.087797  0.081504  0  0.976715  0
H  H35  1  0.99307109  0.32318631  0.90523421  1  0.050416  0  0.099992  0.112339  0  0.961195  0
H  H36  1  0.98853926  0.43018982  0.87725827  1  0.130607  0  0.086328  0.106023  0  1.065227  0
H  H37  1  0.51450244  0.21708998  0.79059782  1  0.040764  0  0.103234  0.080577  0  0.935405  0
H  H38  1  0.50461227  0.44641296  0.85874247  1  0.068382  0  0.093489  0.100505  0  1.031931  0
H  H39  1  0.51298050  0.34555177  0.90010935  1  0.09294  0  0.098654  0.123154  0  0.980813  0
H  H40  1  0.87816665  0.33951680  0.77954536  1  0.053781  0  0.093587  0.100766  0  0.981976  0
H  H41  1  0.98183205  0.39327675  0.72467850  1  -0.005721  0  0.090708  0.086981  0  0.972449  0
H  H42  1  0.61903638  0.34813708  0.77022285  1  0.020594  0  0.094302  0.101437  0  0.981023  0
H  H43  1  0.51156294  0.39285181  0.71155112  1  0.001475  0  0.087794  0.081503  0  0.976723  0
H  H44  1  0.00692334  0.90524490  0.32320110  1  0.050653  0  0.100018  0.112405  0  0.961074  0
H  H45  1  0.01146569  0.87726391  0.43020140  1  0.130271  0  0.08625  0.105991  0  1.065374  0
H  H46  1  0.48550088  0.79060532  0.21711428  1  0.040733  0  0.103308  0.08071  0  0.935363  0
H  H47  1  0.49537974  0.85875693  0.44643022  1  0.067939  0  0.093483  0.100489  0  1.03241  0
H  H48  1  0.48702120  0.90012194  0.34556971  1  0.092855  0  0.098601  0.123098  0  0.980724  0
H  H49  1  0.12183505  0.77956544  0.33952150  1  0.053577  0  0.093573  0.10072  0  0.98214  0
H  H50  1  0.01818016  0.72468217  0.39327890  1  -0.005711  0  0.090696  0.086974  0  0.972469  0
H  H51  1  0.38096209  0.77023726  0.34815691  1  0.020837  0  0.094251  0.101313  0  0.980991  0
H  H52  1  0.48843067  0.71156236  0.39287603  1  0.001204  0  0.087888  0.08155  0  0.976688  0
H  H53  1  0.50692344  0.09475538  0.67679851  1  0.050755  0  0.100022  0.112405  0  0.961072  0
H  H54  1  0.51146505  0.12273637  0.56979884  1  0.130279  0  0.086255  0.106001  0  1.065354  0
H  H55  1  0.98550099  0.20939514  0.78288581  1  0.040659  0  0.103309  0.080713  0  0.935366  0
H  H56  1  0.99537993  0.14124289  0.55356986  1  0.067925  0  0.093487  0.100501  0  1.032406  0
H  H57  1  0.98702132  0.09987725  0.65442975  1  0.092848  0  0.098603  0.123116  0  0.980713  0
H  H58  1  0.62183443  0.22043488  0.66047871  1  0.05359  0  0.093579  0.100714  0  0.982132  0
H  H59  1  0.51817960  0.27531748  0.60672134  1  -0.005709  0  0.090683  0.086949  0  0.972487  0
H  H60  1  0.88096228  0.22976189  0.65184259  1  0.02084  0  0.094254  0.101334  0  0.980984  0
H  H61  1  0.98843092  0.28843746  0.60712406  1  0.001262  0  0.087884  0.081524  0  0.976737  0
H  H62  1  0.75692227  0.82320078  0.59475503  1  0.050652  0  0.100013  0.112393  0  0.961122  0
H  H63  1  0.76146629  0.93020108  0.62273641  1  0.130267  0  0.086247  0.105981  0  1.06537  0
H  H64  1  0.23550375  0.71711428  0.70939559  1  0.040691  0  0.103305  0.080682  0  0.935357  0
H  H65  1  0.24537950  0.94643048  0.64124162  1  0.067908  0  0.093473  0.100474  0  1.032422  0
H  H66  1  0.23702172  0.84557127  0.59987811  1  0.092857  0  0.098617  0.123151  0  0.980735  0
H  H67  1  0.87183400  0.83952033  0.72043565  1  0.053608  0  0.093572  0.100739  0  0.982114  0
H  H68  1  0.76817833  0.89327697  0.77531815  1  -0.005686  0  0.090701  0.087  0  0.972453  0
H  H69  1  0.13096260  0.84815752  0.72976146  1  0.020837  0  0.094227  0.101275  0  0.981089  0
H  H70  1  0.23843122  0.89287721  0.78843624  1  0.00121  0  0.087878  0.081509  0  0.976754  0
H  H71  1  0.25692089  0.17679833  0.40524387  1  0.05069  0  0.099987  0.112362  0  0.961311  0
H  H72  1  0.26146487  0.06979803  0.37726312  1  0.130299  0  0.08626  0.105997  0  1.065362  0
H  H73  1  0.73550092  0.28288609  0.29060711  1  0.040624  0  0.103291  0.080685  0  0.935335  0
H  H74  1  0.74537812  0.05356925  0.35875729  1  0.067909  0  0.093483  0.100487  0  1.032374  0
H  H75  1  0.73702119  0.15442973  0.40012269  1  0.092849  0  0.098606  0.123114  0  0.980707  0
H  H76  1  0.37183348  0.16047882  0.27956510  1  0.053609  0  0.093594  0.100761  0  0.98213  0
H  H77  1  0.26817943  0.10672088  0.22468201  1  -0.005729  0  0.090706  0.086996  0  0.972525  0
H  H78  1  0.63096052  0.15184218  0.27023812  1  0.02082  0  0.094233  0.101293  0  0.981025  0
H  H79  1  0.73842995  0.10712442  0.21156267  1  0.001225  0  0.08788  0.081503  0  0.976703  0
C  C80  1  0.61006408  0.65340768  0.87413965  1  0.522844  0  0.131832  0.219165  0  3.900939  0
C  C81  1  0.55746479  0.70828273  0.81584109  1  -0.063099  0  -0.004129  -0.044947  0  3.996298  0
C  C82  1  0.61667919  0.76080463  0.76125602  1  -0.012466  0  0.008812  0.040537  0  3.875573  0
C  C83  1  0.44181309  0.70741406  0.81452301  1  0.008147  0  -0.003834  -0.045145  0  4.001379  0
C  C84  1  0.38845600  0.64927368  0.86902424  1  0.561611  0  0.130242  0.216132  0  3.907708  0
C  C85  1  0.26757614  0.64420296  0.86837814  1  -0.059513  0  -0.164068  -0.236534  0  3.966306  0
C  C86  1  0.73869606  0.75978471  0.76125411  1  0.016501  0  -0.081841  -0.018289  0  3.917052  0
C  C87  1  0.73082668  0.65423348  0.88099050  1  -0.019087  0  -0.163044  -0.234625  0  3.96532  0
C  C88  1  0.21631766  0.72829816  0.84346520  1  0.005492  0  -0.158204  -0.161472  0  3.92369  0
C  C89  1  0.78059644  0.73643571  0.84909115  1  0.030043  0  -0.159015  -0.161182  0  3.929248  0
C  C90  1  0.11006133  0.34659264  0.12585930  1  0.522965  0  0.131843  0.21918  0  3.900925  0
C  C91  1  0.05746360  0.29171757  0.18415788  1  -0.062828  0  -0.004101  -0.044992  0  3.996199  0
C  C92  1  0.11667874  0.23919317  0.23874167  1  -0.012621  0  0.00878  0.040603  0  3.875372  0
C  C93  1  0.94181194  0.29258511  0.18547836  1  0.008069  0  -0.003826  -0.045085  0  4.001379  0
C  C94  1  0.88845654  0.35072737  0.13097777  1  0.561739  0  0.130167  0.215977  0  3.907709  0
C  C95  1  0.76757426  0.35580120  0.13162518  1  -0.059585  0  -0.164088  -0.236522  0  3.966103  0
C  C96  1  0.23869561  0.24021313  0.23874480  1  0.016564  0  -0.081801  -0.018264  0  3.9171  0
C  C97  1  0.23082716  0.34576499  0.11900905  1  -0.019222  0  -0.16304  -0.234606  0  3.965217  0
C  C98  1  0.71631651  0.27170408  0.15653687  1  0.005568  0  -0.158214  -0.161489  0  3.923789  0
C  C99  1  0.28059686  0.26356341  0.15090711  1  0.030036  0  -0.159017  -0.16114  0  3.929132  0
C  C100  1  0.86006286  0.62586005  0.15340731  1  0.523012  0  0.131819  0.219146  0  3.900954  0
C  C101  1  0.80746516  0.68415789  0.20828286  1  -0.06299  0  -0.004136  -0.044982  0  3.99618  0
C  C102  1  0.86668115  0.73874288  0.26080649  1  -0.012318  0  0.008831  0.040643  0  3.875364  0
C  C103  1  0.69181265  0.68547787  0.20741423  1  0.008085  0  -0.003857  -0.045178  0  4.001392  0
C  C104  1  0.63845721  0.63097610  0.14927400  1  0.561673  0  0.130252  0.216147  0  3.907637  0
C  C105  1  0.51757654  0.63162158  0.14420270  1  -0.059572  0  -0.164026  -0.236478  0  3.966192  0
C  C106  1  0.98869640  0.73874542  0.25978590  1  0.016505  0  -0.081841  -0.018324  0  3.917071  0
C  C107  1  0.98082869  0.61900921  0.15423434  1  -0.019214  0  -0.163034  -0.234576  0  3.965254  0
C  C108  1  0.46631882  0.65653498  0.22829782  1  0.005521  0  -0.15822  -0.161438  0  3.923669  0
C  C109  1  0.03059836  0.65090821  0.23643598  1  0.030048  0  -0.159049  -0.161251  0  3.929338  0
C  C110  1  0.36006298  0.37413973  0.84659282  1  0.522932  0  0.131824  0.219142  0  3.900952  0
C  C111  1  0.30746528  0.31584187  0.79171729  1  -0.062834  0  -0.00412  -0.044971  0  3.996268  0
C  C112  1  0.36668045  0.26125753  0.73919364  1  -0.012485  0  0.008788  0.040573  0  3.875479  0
C  C113  1  0.19181276  0.31452185  0.79258533  1  0.008095  0  -0.003841  -0.04511  0  4.001356  0
C  C114  1  0.13845571  0.36902297  0.85072746  1  0.561609  0  0.130213  0.216034  0  3.907678  0
C  C115  1  0.01757666  0.36837807  0.85579754  1  -0.059556  0  -0.16412  -0.2366  0  3.966353  0
C  C116  1  0.48869651  0.26125503  0.74021419  1  0.016511  0  -0.08183  -0.018318  0  3.917052  0
C  C117  1  0.48082882  0.38099062  0.84576575  1  -0.01921  0  -0.163031  -0.234566  0  3.965263  0
C  C118  1  0.96631901  0.34346484  0.77170227  1  0.005503  0  -0.158225  -0.161476  0  3.923699  0
C  C119  1  0.53059775  0.34909208  0.76356363  1  0.030031  0  -0.159063  -0.161287  0  3.929356  0
C  C120  1  0.63993630  0.84660287  0.37416522  1  0.521654  0  0.13181  0.219379  0  3.900577  0
C  C121  1  0.69252753  0.79172668  0.31586802  1  -0.062665  0  -0.003847  -0.044539  0  3.995971  0
C  C122  1  0.63331882  0.73920175  0.26128686  1  -0.012642  0  0.008715  0.04041  0  3.875473  0
C  C123  1  0.80818975  0.79260670  0.31453666  1  0.008244  0  -0.003831  -0.045387  0  4.0014  0
C  C124  1  0.86154438  0.85073877  0.36904847  1  0.561333  0  0.13015  0.216577  0  3.907364  0
C  C125  1  0.98241939  0.85581012  0.36839790  1  -0.058863  0  -0.164064  -0.236899  0  3.966272  0
C  C126  1  0.51130438  0.74022481  0.26127743  1  0.017365  0  -0.081789  -0.018369  0  3.91714  0
C  C127  1  0.51916885  0.84577705  0.38101421  1  -0.018408  0  -0.163093  -0.234752  0  3.965696  0
C  C128  1  0.03368511  0.77171227  0.34347205  1  0.005729  0  -0.158111  -0.161252  0  3.923645  0
C  C129  1  0.46939910  0.76357489  0.34911569  1  0.030022  0  -0.159082  -0.161095  0  3.929298  0
C  C130  1  0.13993560  0.15339746  0.62583498  1  0.521651  0  0.13179  0.219372  0  3.900489  0
C  C131  1  0.19252764  0.20827367  0.68413216  1  -0.062663  0  -0.003882  -0.044602  0  3.995928  0
C  C132  1  0.13331894  0.26079858  0.73871334  1  -0.012644  0  0.008754  0.040439  0  3.875435  0
C  C133  1  0.30818986  0.20739306  0.68546349  1  0.008446  0  -0.003827  -0.045352  0  4.001353  0
C  C134  1  0.36154368  0.14926101  0.63095166  1  0.561171  0  0.130149  0.216562  0  3.907355  0
C  C135  1  0.48241868  0.14418970  0.63160219  1  -0.059074  0  -0.164044  -0.236885  0  3.966206  0
C  C136  1  0.01130369  0.25977547  0.73872281  1  0.017433  0  -0.081798  -0.018387  0  3.917173  0
C  C137  1  0.01916896  0.15422260  0.61898603  1  -0.018395  0  -0.163123  -0.234831  0  3.965665  0
C  C138  1  0.53368449  0.22828802  0.65652818  1  0.005729  0  -0.158105  -0.161198  0  3.923582  0
C  C139  1  0.96939930  0.23642556  0.65088440  1  0.029954  0  -0.159058  -0.161042  0  3.929277  0
C  C140  1  0.38993683  0.87416547  0.65339710  1  0.52158  0  0.131855  0.219426  0  3.900571  0
C  C141  1  0.44252722  0.81586877  0.70827339  1  -0.062673  0  -0.003873  -0.044563  0  3.995957  0
C  C142  1  0.38331929  0.76128745  0.76079778  1  -0.012669  0  0.00874  0.04044  0  3.875442  0
C  C143  1  0.55819024  0.81453682  0.70739274  1  0.008585  0  -0.003841  -0.045368  0  4.001377  0
C  C144  1  0.61154329  0.86904817  0.64926058  1  0.561181  0  0.130166  0.216585  0  3.9073  0
C  C145  1  0.73241910  0.86839828  0.64418924  1  -0.05897  0  -0.164037  -0.236825  0  3.966198  0
C  C146  1  0.26130485  0.76127798  0.75977597  1  0.017436  0  -0.081813  -0.018376  0  3.917161  0
C  C147  1  0.26916857  0.88101442  0.65422164  1  -0.018393  0  -0.16314  -0.234872  0  3.965778  0
C  C148  1  0.78368406  0.84347083  0.72828755  1  0.005724  0  -0.158144  -0.161359  0  3.923652  0
C  C149  1  0.21939881  0.84911569  0.73642508  1  0.030008  0  -0.159022  -0.160952  0  3.929411  0
C  C150  1  0.88993550  0.12583306  0.34660176  1  0.521925  0  0.131819  0.219355  0  3.900598  0
C  C151  1  0.94252676  0.18413104  0.29172546  1  -0.062824  0  -0.003914  -0.044574  0  3.995884  0
C  C152  1  0.88331809  0.23871296  0.23920171  1  -0.012477  0  0.008733  0.040404  0  3.875405  0
C  C153  1  0.05818974  0.18546159  0.29260559  1  0.008561  0  -0.003852  -0.045415  0  4.001356  0
C  C154  1  0.11154272  0.13095026  0.35073711  1  0.561192  0  0.130161  0.216526  0  3.907469  0
C  C155  1  0.23241772  0.13160145  0.35580967  1  -0.059016  0  -0.164005  -0.236787  0  3.966469  0
C  C156  1  0.76130284  0.23872303  0.24022545  1  0.01743  0  -0.08175  -0.018294  0  3.917168  0
C  C157  1  0.76916805  0.11898596  0.34577726  1  -0.0184  0  -0.163117  -0.234774  0  3.965608  0
C  C158  1  0.28368355  0.15652766  0.27171134  1  0.005719  0  -0.158154  -0.161363  0  3.923769  0
C  C159  1  0.71939916  0.15088530  0.26357509  1  0.030017  0  -0.159053  -0.16102  0  3.929358  0
N  N160  1  0.55487775  0.60054161  0.92289254  1  -0.780988  0  -0.263825  -0.168229  0  3.578545  0
N  N161  1  0.44297592  0.59794384  0.91977790  1  -0.714825  0  -0.26481  -0.16774  0  3.58057  0
N  N162  1  0.05487667  0.39945806  0.07710769  1  -0.781042  0  -0.263778  -0.168121  0  3.578448  0
N  N163  1  0.94297489  0.40205723  0.08022347  1  -0.714845  0  -0.264794  -0.167699  0  3.580486  0
N  N164  1  0.80487898  0.57710788  0.10054202  1  -0.781128  0  -0.263781  -0.168164  0  3.578446  0
N  N165  1  0.69297634  0.58022253  0.09794365  1  -0.714815  0  -0.264822  -0.167747  0  3.580446  0
N  N166  1  0.30487911  0.42289251  0.89945813  1  -0.781051  0  -0.263803  -0.168169  0  3.578449  0
N  N167  1  0.19297646  0.41977782  0.90205654  1  -0.714804  0  -0.26479  -0.167657  0  3.580338  0
N  N168  1  0.69512422  0.89947640  0.42291672  1  -0.781016  0  -0.263681  -0.168222  0  3.578183  0
N  N169  1  0.80702929  0.90206220  0.41981149  1  -0.715288  0  -0.264858  -0.168175  0  3.580972  0
N  N170  1  0.19512352  0.10052332  0.57708284  1  -0.781  0  -0.263716  -0.16827  0  3.578147  0
N  N171  1  0.30702939  0.09793756  0.58018803  1  -0.715215  0  -0.264848  -0.168146  0  3.580877  0
N  N172  1  0.44512316  0.92291775  0.60052286  1  -0.780975  0  -0.263726  -0.168306  0  3.578241  0
N  N173  1  0.55702822  0.91981194  0.59793644  1  -0.715207  0  -0.264858  -0.168151  0  3.580876  0
N  N174  1  0.94512339  0.07708143  0.39947598  1  -0.781289  0  -0.263736  -0.168342  0  3.578295  0
N  N175  1  0.05702841  0.08018773  0.40206127  1  -0.71521  0  -0.264837  -0.168097  0  3.580953  0
Cl  Cl176  1  0.74935116  0.44149164  0.92198116  1  -0.662906  0  -0.338444  -0.496657  0  1.464268  0
Cl  Cl177  1  0.24935098  0.55850810  0.07801963  1  -0.662923  0  -0.338446  -0.496654  0  1.464261  0
Cl  Cl178  1  0.99935222  0.57802043  0.94149093  1  -0.662909  0  -0.338453  -0.496655  0  1.46425  0
Cl  Cl179  1  0.49935116  0.42198066  0.05850916  1  -0.662905  0  -0.338447  -0.496654  0  1.464264  0
Cl  Cl180  1  0.50065861  0.05853772  0.42193931  1  -0.663105  0  -0.338411  -0.496679  0  1.463948  0
Cl  Cl181  1  0.00065920  0.94146256  0.57806094  1  -0.663107  0  -0.338422  -0.496698  0  1.463954  0
Cl  Cl182  1  0.25065864  0.92193955  0.44146162  1  -0.663113  0  -0.338426  -0.4967  0  1.463949  0
Cl  Cl183  1  0.75066041  0.07806082  0.55853729  1  -0.663102  0  -0.33841  -0.496695  0  1.463971  0
