# generated using pymatgen
data_Na2H44PtC44S4(N2O5)2
_symmetry_space_group_name_H-M   'P 1'
_cell_length_a   8.18930702
_cell_length_b   12.77213489
_cell_length_c   12.83023228
_cell_angle_alpha   115.23212874
_cell_angle_beta   106.34526421
_cell_angle_gamma   92.35040367
_symmetry_Int_Tables_number   1
_chemical_formula_structural   Na2H44PtC44S4(N2O5)2
_chemical_formula_sum   'Na2 H44 Pt1 C44 S4 N4 O10'
_cell_volume   1144.66647513
_cell_formula_units_Z   1
loop_
 _symmetry_equiv_pos_site_id
 _symmetry_equiv_pos_as_xyz
  1  'x, y, z'
loop_
 _atom_site_type_symbol
 _atom_site_label
 _atom_site_symmetry_multiplicity
 _atom_site_fract_x
 _atom_site_fract_y
 _atom_site_fract_z
 _atom_site_occupancy
 _atom_site_hle17_bader_spin_density
 _atom_site_hle17_ddec_charge
 _atom_site_hle17_ddec_spin_density
 _atom_site_hle17_ddec_sum_bond_order
 _atom_site_hle17_magmom
 _atom_site_hse06_10hf_bader_spin_density
 _atom_site_hse06_10hf_ddec_charge
 _atom_site_hse06_10hf_ddec_spin_density
 _atom_site_hse06_10hf_ddec_sum_bond_order
 _atom_site_hse06_10hf_magmom
 _atom_site_hse06_bader_spin_density
 _atom_site_hse06_ddec_charge
 _atom_site_hse06_ddec_spin_density
 _atom_site_hse06_ddec_sum_bond_order
 _atom_site_hse06_magmom
 _atom_site_pbe_bader_spin_density
 _atom_site_pbe_cm5_charge
 _atom_site_pbe_ddec_charge
 _atom_site_pbe_ddec_spin_density
 _atom_site_pbe_ddec_sum_bond_order
 _atom_site_pbe_magmom
Na  Na0  1  0.25095513  0.17449190  0.87968038  1  0  0.882718  0  0.408414  0  0  0.809724  0  0.588141  0  0  0.824361  0  0.563958  0  0  0.718165  0.799238  0  0.60521  0
Na  Na1  1  0.74904790  0.82550722  0.12031759  1  0  0.88272  0  0.408369  0  0  0.809746  0  0.588066  0  0  0.824382  0  0.563881  0  0  0.718139  0.799265  0  0.605139  0
H  H2  1  0.21064845  0.60052664  0.09413650  1  0  0.106554  0  0.962966  0  0  0.11863  0  1.025838  0  0  0.122321  0  1.022975  0  0  0.102762  0.115959  0  1.027994  0
H  H3  1  0.78934624  0.39946979  0.90586195  1  0  0.106564  0  0.962952  0  0  0.118634  0  1.025829  0  0  0.122326  0  1.022965  0  0  0.102759  0.11597  0  1.027984  0
H  H4  1  0.19752201  0.75256812  0.29236008  1  0  0.097077  0  0.967119  0  0  0.106646  0  1.028358  0  0  0.110638  0  1.025616  0  0  0.099082  0.103755  0  1.030417  0
H  H5  1  0.80247442  0.24743009  0.70763865  1  0  0.097057  0  0.967095  0  0  0.106618  0  1.028351  0  0  0.110606  0  1.025615  0  0  0.099084  0.103726  0  1.030413  0
H  H6  1  0.29504694  0.84293528  0.51777265  1  0  0.085343  0  0.968675  0  0  0.096541  0  1.03052  0  0  0.099456  0  1.029175  0  0  0.093522  0.094413  0  1.031578  0
H  H7  1  0.70495424  0.15706647  0.48222689  1  0  0.085359  0  0.968693  0  0  0.096553  0  1.03054  0  0  0.099469  0  1.029194  0  0  0.093535  0.094428  0  1.031598  0
H  H8  1  0.50947004  0.75987122  0.62884780  1  0  0.075739  0  0.971497  0  0  0.086209  0  1.037349  0  0  0.088737  0  1.036776  0  0  0.089916  0.084403  0  1.037816  0
H  H9  1  0.49053496  0.24013055  0.37115166  1  0  0.075714  0  0.971525  0  0  0.086183  0  1.037378  0  0  0.088711  0  1.036804  0  0  0.089906  0.084376  0  1.037844  0
H  H10  1  0.61949293  0.58447040  0.51362269  1  0  0.089703  0  0.98992  0  0  0.096001  0  1.061559  0  0  0.098692  0  1.060863  0  0  0.086983  0.094069  0  1.062123  0
H  H11  1  0.38051231  0.41553225  0.48637719  1  0  0.08969  0  0.989943  0  0  0.095991  0  1.061582  0  0  0.098683  0  1.060886  0  0  0.086988  0.094052  0  1.062152  0
H  H12  1  0.62273170  0.42833846  0.31897153  1  0  0.112619  0  0.973141  0  0  0.114754  0  1.054182  0  0  0.119224  0  1.049891  0  0  0.095826  0.111514  0  1.057335  0
H  H13  1  0.37726925  0.57166241  0.68102760  1  0  0.112581  0  0.973162  0  0  0.114723  0  1.054216  0  0  0.119194  0  1.049923  0  0  0.095818  0.111486  0  1.057371  0
H  H14  1  0.52907599  0.21200726  0.15566334  1  0  0.0643  0  0.932577  0  0  0.076839  0  1.000098  0  0  0.076761  0  1.000293  0  0  0.105325  0.076827  0  1.000075  0
H  H15  1  0.47092658  0.78799008  0.84433691  1  0  0.064316  0  0.932629  0  0  0.076874  0  1.000123  0  0  0.0768  0  1.000315  0  0  0.105334  0.076866  0  1.000097  0
H  H16  1  0.73466534  0.29953461  0.19536143  1  0  0.055461  0  0.983108  0  0  0.064219  0  1.060105  0  0  0.063467  0  1.061651  0  0  0.093758  0.064655  0  1.059087  0
H  H17  1  0.26533665  0.70046537  0.80464140  1  0  0.055479  0  0.983137  0  0  0.064229  0  1.060124  0  0  0.063481  0  1.061673  0  0  0.09377  0.064669  0  1.059109  0
H  H18  1  0.74182291  0.18616857  0.98564625  1  0  0.055098  0  0.914426  0  0  0.070622  0  0.976295  0  0  0.071179  0  0.975489  0  0  0.103054  0.070089  0  0.97703  0
H  H19  1  0.25817676  0.81383230  0.01435187  1  0  0.05504  0  0.914456  0  0  0.070588  0  0.976327  0  0  0.071145  0  0.975522  0  0  0.103058  0.070058  0  0.977062  0
H  H20  1  0.72989153  0.09349017  0.05685346  1  0  0.060913  0  0.931483  0  0  0.072959  0  0.998838  0  0  0.072992  0  0.99916  0  0  0.103654  0.072884  0  0.998654  0
H  H21  1  0.27011579  0.90651072  0.94314682  1  0  0.060885  0  0.931412  0  0  0.072924  0  0.99882  0  0  0.072957  0  0.999141  0  0  0.103643  0.072854  0  0.99863  0
H  H22  1  0.43089135  0.92154273  0.76784760  1  0  0.066883  0  0.926608  0  0  0.080589  0  0.993056  0  0  0.08094  0  0.992456  0  0  0.108351  0.08026  0  0.99357  0
H  H23  1  0.56911121  0.07845460  0.23215654  1  0  0.066887  0  0.926608  0  0  0.080601  0  0.993031  0  0  0.080951  0  0.992431  0  0  0.108362  0.08027  0  0.993542  0
H  H24  1  0.65931973  0.97683257  0.83227785  1  0  0.05807  0  0.943783  0  0  0.07225  0  1.009458  0  0  0.071187  0  1.011112  0  0  0.103004  0.072934  0  1.008361  0
H  H25  1  0.34068410  0.02316477  0.16772575  1  0  0.058098  0  0.943714  0  0  0.072262  0  1.009402  0  0  0.071199  0  1.011055  0  0  0.103014  0.072944  0  1.0083  0
H  H26  1  0.60067578  0.14308030  0.77194435  1  0  0.055027  0  0.926746  0  0  0.069703  0  0.991515  0  0  0.070345  0  0.990639  0  0  0.101296  0.069152  0  0.992224  0
H  H27  1  0.39933014  0.85691530  0.22805731  1  0  0.055065  0  0.926741  0  0  0.069768  0  0.99149  0  0  0.070412  0  0.990613  0  0  0.10129  0.069212  0  0.9922  0
H  H28  1  0.54128504  0.99903513  0.64528245  1  0  0.055342  0  0.930536  0  0  0.070384  0  0.997236  0  0  0.070481  0  0.997245  0  0  0.099933  0.070218  0  0.997349  0
H  H29  1  0.45871428  0.00095955  0.35471919  1  0  0.055399  0  0.930463  0  0  0.070443  0  0.997185  0  0  0.070538  0  0.997197  0  0  0.099949  0.070275  0  0.997294  0
H  H30  1  0.27780803  0.05523365  0.52054046  1  0  0.054622  0  0.915784  0  0  0.071302  0  0.978517  0  0  0.071596  0  0.977819  0  0  0.099275  0.070957  0  0.979165  0
H  H31  1  0.72219999  0.94476988  0.47946419  1  0  0.05464  0  0.915712  0  0  0.071282  0  0.978505  0  0  0.07157  0  0.977811  0  0  0.099263  0.07094  0  0.979149  0
H  H32  1  0.37905341  0.19907525  0.64034888  1  0  0.055723  0  0.960797  0  0  0.069479  0  1.027905  0  0  0.068802  0  1.030256  0  0  0.099202  0.069827  0  1.026427  0
H  H33  1  0.62095078  0.80092825  0.35965819  1  0  0.055734  0  0.960761  0  0  0.069475  0  1.027907  0  0  0.068804  0  1.030238  0  0  0.099224  0.069825  0  1.02643  0
H  H34  1  0.05300117  0.17586753  0.53990725  1  0  0.057673  0  0.973094  0  0  0.06898  0  1.043824  0  0  0.069165  0  1.044621  0  0  0.091287  0.068809  0  1.043329  0
H  H35  1  0.94700186  0.82413158  0.46009384  1  0  0.057713  0  0.973137  0  0  0.069022  0  1.043828  0  0  0.06921  0  1.044627  0  0  0.091293  0.068854  0  1.043329  0
H  H36  1  0.02004319  0.07125681  0.59471330  1  0  0.07113  0  0.932173  0  0  0.084883  0  0.997252  0  0  0.084753  0  0.997226  0  0  0.10994  0.084912  0  0.99735  0
H  H37  1  0.97996007  0.92874318  0.40528820  1  0  0.071151  0  0.932168  0  0  0.084888  0  0.997236  0  0  0.084757  0  0.997213  0  0  0.109944  0.084915  0  0.99734  0
H  H38  1  0.07376178  0.38012417  0.68818788  1  0  0.058959  0  0.955222  0  0  0.069525  0  1.028519  0  0  0.069554  0  1.028706  0  0  0.090293  0.069374  0  1.028598  0
H  H39  1  0.92623847  0.61987405  0.31181077  1  0  0.058955  0  0.955245  0  0  0.069492  0  1.028533  0  0  0.069519  0  1.028719  0  0  0.090281  0.069342  0  1.028604  0
H  H40  1  0.29253795  0.36209309  0.73621809  1  0  0.053415  0  0.969954  0  0  0.065159  0  1.038793  0  0  0.064547  0  1.041013  0  0  0.098433  0.065499  0  1.037398  0
H  H41  1  0.70746358  0.63790513  0.26378313  1  0  0.053468  0  0.969919  0  0  0.065175  0  1.038761  0  0  0.064559  0  1.04098  0  0  0.098443  0.06551  0  1.037369  0
H  H42  1  0.23041058  0.52920453  0.90096961  1  0  0.071833  0  0.932781  0  0  0.083204  0  0.998671  0  0  0.083674  0  0.998414  0  0  0.105887  0.082768  0  0.998987  0
H  H43  1  0.76958735  0.47079456  0.09903133  1  0  0.071801  0  0.932812  0  0  0.083187  0  0.998721  0  0  0.083658  0  0.998458  0  0  0.10588  0.082744  0  0.999042  0
H  H44  1  0.06243862  0.43270200  0.89839997  1  0  0.055391  0  0.933049  0  0  0.069925  0  0.998585  0  0  0.069801  0  0.998456  0  0  0.102822  0.069969  0  0.9987  0
H  H45  1  0.93755653  0.56729621  0.10159776  1  0  0.055395  0  0.93304  0  0  0.069935  0  0.998606  0  0  0.069805  0  0.998472  0  0  0.102831  0.069976  0  0.998722  0
Pt  Pt46  1  0.99999988  0.50000076  0.50000113  1  0  0.010648  0  3.408564  0  0  0.010287  0  4.036749  0  0  0.021357  0  4.009187  0  0  0.365633  0.004744  0  4.054446  0
C  C47  1  0.35731495  0.46251290  0.07925979  1  0  0.196894  0  3.813791  0  0  0.180544  0  4.082449  0  0  0.190338  0  4.096804  0  0  0.077609  0.173759  0  4.072732  0
C  C48  1  0.64267950  0.53748265  0.92073980  1  0  0.196707  0  3.814021  0  0  0.180396  0  4.082593  0  0  0.190191  0  4.096952  0  0  0.077579  0.173621  0  4.07287  0
C  C49  1  0.29893829  0.56208705  0.14265568  1  0  -0.251758  0  3.768912  0  0  -0.285374  0  4.03364  0  0  -0.289759  0  4.050975  0  0  -0.116736  -0.282321  0  4.021955  0
C  C50  1  0.70105593  0.43790761  0.85734349  1  0  -0.251682  0  3.769036  0  0  -0.285307  0  4.033725  0  0  -0.28969  0  4.051061  0  0  -0.116682  -0.282265  0  4.022046  0
C  C51  1  0.35312211  0.61606198  0.27242701  1  0  0.060576  0  3.834113  0  0  0.075676  0  4.065034  0  0  0.076438  0  4.088671  0  0  -0.020128  0.075185  0  4.04901  0
C  C52  1  0.64687153  0.38393532  0.72757240  1  0  0.060551  0  3.834052  0  0  0.075656  0  4.064916  0  0  0.076416  0  4.088552  0  0  -0.020156  0.075164  0  4.048895  0
C  C53  1  0.29163189  0.71660470  0.34063811  1  0  -0.135337  0  3.75597  0  0  -0.153134  0  4.006747  0  0  -0.155598  0  4.02587  0  0  -0.103885  -0.151412  0  3.99381  0
C  C54  1  0.70836581  0.28339351  0.65936008  1  0  -0.1353  0  3.755926  0  0  -0.15311  0  4.006716  0  0  -0.15557  0  4.025837  0  0  -0.103914  -0.151382  0  3.993779  0
C  C55  1  0.34616628  0.76711155  0.46670049  1  0  -0.083694  0  3.806132  0  0  -0.098879  0  4.061404  0  0  -0.099704  0  4.08197  0  0  -0.108487  -0.098202  0  4.047401  0
C  C56  1  0.65383443  0.23288843  0.53329900  1  0  -0.083711  0  3.806154  0  0  -0.098889  0  4.061419  0  0  -0.099713  0  4.081982  0  0  -0.108485  -0.098222  0  4.047425  0
C  C57  1  0.46628716  0.71987536  0.52945509  1  0  -0.082271  0  3.80349  0  0  -0.098713  0  4.058818  0  0  -0.101189  0  4.08082  0  0  -0.10754  -0.097006  0  4.043887  0
C  C58  1  0.53371633  0.28012552  0.47054450  1  0  -0.082239  0  3.803485  0  0  -0.098682  0  4.05883  0  0  -0.101158  0  4.080831  0  0  -0.107525  -0.096973  0  4.043892  0
C  C59  1  0.52786057  0.62170561  0.46548200  1  0  -0.111141  0  3.736832  0  0  -0.127531  0  3.981378  0  0  -0.129628  0  4.002695  0  0  -0.097218  -0.126098  0  3.967023  0
C  C60  1  0.47214038  0.37829526  0.53451635  1  0  -0.111075  0  3.736853  0  0  -0.127504  0  3.981393  0  0  -0.129598  0  4.002706  0  0  -0.097231  -0.126056  0  3.967024  0
C  C61  1  0.47186595  0.56665981  0.33620120  1  0  0.057696  0  3.823173  0  0  0.074381  0  4.046556  0  0  0.074312  0  4.07044  0  0  -0.017359  0.074373  0  4.030443  0
C  C62  1  0.52813199  0.43333928  0.66379818  1  0  0.057624  0  3.823343  0  0  0.07438  0  4.046626  0  0  0.074313  0  4.070505  0  0  -0.017284  0.074368  0  4.030512  0
C  C63  1  0.53081610  0.46381186  0.26875402  1  0  -0.230364  0  3.736509  0  0  -0.256815  0  3.991159  0  0  -0.26144  0  4.010035  0  0  -0.108711  -0.253585  0  3.978472  0
C  C64  1  0.46918160  0.53618635  0.73124495  1  0  -0.23028  0  3.736582  0  0  -0.256792  0  3.991204  0  0  -0.261416  0  4.01008  0  0  -0.108704  -0.253567  0  3.978525  0
C  C65  1  0.47561843  0.41300386  0.14329046  1  0  0.18038  0  3.814628  0  0  0.168446  0  4.07734  0  0  0.176381  0  4.093145  0  0  0.074838  0.162936  0  4.066662  0
C  C66  1  0.52437927  0.58699435  0.85670929  1  0  0.180462  0  3.814533  0  0  0.168571  0  4.077177  0  0  0.1765  0  4.09298  0  0  0.074857  0.163061  0  4.0665  0
C  C67  1  0.61462937  0.24627468  0.12028286  1  0  0.056561  0  3.632316  0  0  -0.005373  0  3.90273  0  0  0.001691  0  3.90829  0  0  -0.071611  -0.010054  0  3.898763  0
C  C68  1  0.38537262  0.75372531  0.87971842  1  0  0.056398  0  3.632503  0  0  -0.005481  0  3.90288  0  0  0.001555  0  3.908471  0  0  -0.071643  -0.010168  0  3.898923  0
C  C69  1  0.65828716  0.14826073  0.01997372  1  0  0.065089  0  3.652755  0  0  0.003925  0  3.930184  0  0  0.010462  0  3.935288  0  0  -0.070382  -0.000452  0  3.926616  0
C  C70  1  0.34171611  0.85173926  0.98002778  1  0  0.065341  0  3.652502  0  0  0.004112  0  3.930039  0  0  0.010656  0  3.935146  0  0  -0.070342  -0.000269  0  3.926472  0
C  C71  1  0.53105688  0.00141757  0.81252914  1  0  0.052027  0  3.656788  0  0  -0.006833  0  3.928993  0  0  -0.000133  0  3.934544  0  0  -0.072597  -0.011327  0  3.925145  0
C  C72  1  0.46894314  0.99857976  0.18747298  1  0  0.052069  0  3.656659  0  0  -0.006742  0  3.928845  0  0  -4.3e-05  0  3.934398  0  0  -0.072566  -0.011232  0  3.924984  0
C  C73  1  0.51176841  0.05747276  0.72778250  1  0  0.048238  0  3.678944  0  0  -0.013702  0  3.95471  0  0  -0.007334  0  3.960333  0  0  -0.075832  -0.017985  0  3.950814  0
C  C74  1  0.48823415  0.94252458  0.27222009  1  0  0.048117  0  3.678914  0  0  -0.013922  0  3.954751  0  0  -0.00756  0  3.960376  0  0  -0.075899  -0.018197  0  3.950843  0
C  C75  1  0.28441460  0.12042673  0.61314539  1  0  0.050861  0  3.6588  0  0  -0.009866  0  3.930577  0  0  -0.003261  0  3.936151  0  0  -0.077262  -0.014266  0  3.926678  0
C  C76  1  0.71559144  0.87957415  0.38685933  1  0  0.050961  0  3.658704  0  0  -0.009814  0  3.930488  0  0  -0.003205  0  3.936062  0  0  -0.077279  -0.014218  0  3.926597  0
C  C77  1  0.10631393  0.14914782  0.61191507  1  0  0.043505  0  3.652785  0  0  -0.013263  0  3.920023  0  0  -0.00717  0  3.925771  0  0  -0.078772  -0.017406  0  3.916094  0
C  C78  1  0.89369037  0.85085129  0.38808703  1  0  0.04337  0  3.652763  0  0  -0.013325  0  3.919908  0  0  -0.007245  0  3.925668  0  0  -0.078766  -0.017476  0  3.915986  0
C  C79  1  0.16703229  0.35534374  0.75051915  1  0  0.051848  0  3.658942  0  0  -0.006731  0  3.928102  0  0  -0.00043  0  3.934184  0  0  -0.07913  -0.010992  0  3.923941  0
C  C80  1  0.83296843  0.64465624  0.24948189  1  0  0.051756  0  3.658992  0  0  -0.006667  0  3.927995  0  0  -0.000353  0  3.934051  0  0  -0.079134  -0.010916  0  3.923815  0
C  C81  1  0.18591830  0.43801185  0.88077614  1  0  0.069478  0  3.620172  0  0  0.007339  0  3.890333  0  0  0.014546  0  3.89538  0  0  -0.065574  0.002542  0  3.886738  0
C  C82  1  0.81407813  0.56198635  0.11922337  1  0  0.069514  0  3.620288  0  0  0.007257  0  3.890576  0  0  0.014478  0  3.895602  0  0  -0.065599  0.002453  0  3.886983  0
C  C83  1  0.04182383  0.29127597  0.31164120  1  0  0.083955  0  3.837117  0  0  0.083262  0  4.117955  0  0  0.102262  0  4.132276  0  0  0.001589  0.071001  0  4.107375  0
C  C84  1  0.95817493  0.70873106  0.68835705  1  0  0.083869  0  3.837076  0  0  0.083177  0  4.117912  0  0  0.102179  0  4.132233  0  0  0.001588  0.070911  0  4.10735  0
C  C85  1  0.07209413  0.18767303  0.22354134  1  0  -0.187324  0  3.992204  0  0  -0.165211  0  4.22598  0  0  -0.179291  0  4.244527  0  0  -0.042702  -0.155945  0  4.213454  0
C  C86  1  0.92790335  0.81233400  0.77645279  1  0  -0.187256  0  3.992254  0  0  -0.165119  0  4.225994  0  0  -0.17921  0  4.244546  0  0  -0.042721  -0.155867  0  4.213484  0
C  C87  1  0.13221056  0.19093930  0.13246029  1  0  0.312414  0  3.847116  0  0  0.299424  0  4.113715  0  0  0.313192  0  4.130647  0  0  0.180928  0.29011  0  4.102359  0
C  C88  1  0.86778693  0.80906771  0.86754161  1  0  0.312383  0  3.847657  0  0  0.299389  0  4.114259  0  0  0.313161  0  4.131188  0  0  0.181046  0.290084  0  4.102905  0
C  C89  1  0.03718196  0.07888620  0.22341736  1  0  0.301583  0  3.854177  0  0  0.287476  0  4.121405  0  0  0.301448  0  4.137862  0  0  0.176923  0.277989  0  4.110407  0
C  C90  1  0.96281391  0.92112436  0.77657642  1  0  0.301603  0  3.854452  0  0  0.287485  0  4.121659  0  0  0.301463  0  4.138112  0  0  0.176906  0.278005  0  4.110659  0
S  S91  1  0.08738518  0.43044758  0.32739623  1  0  -0.152293  0  2.390904  0  0  -0.142517  0  2.768617  0  0  -0.156578  0  2.767773  0  0  -0.133266  -0.133363  0  2.768857  0
S  S92  1  0.91261231  0.56955943  0.67260490  1  0  -0.152305  0  2.390752  0  0  -0.142544  0  2.768489  0  0  -0.156605  0  2.767642  0  0  -0.133293  -0.133394  0  2.768747  0
S  S93  1  0.95157040  0.29565951  0.41843302  1  0  -0.177144  0  2.439907  0  0  -0.166798  0  2.829087  0  0  -0.180481  0  2.825611  0  0  -0.140017  -0.157851  0  2.831064  0
S  S94  1  0.04843286  0.70434049  0.58156537  1  0  -0.17713  0  2.439863  0  0  -0.166785  0  2.829048  0  0  -0.18047  0  2.825575  0  0  -0.140021  -0.157829  0  2.831018  0
N  N95  1  0.18036840  0.19477727  0.05612919  1  0  -0.494863  0  2.662519  0  0  -0.470904  0  2.907903  0  0  -0.48142  0  2.915953  0  0  -0.398866  -0.463966  0  2.90268  0
N  N96  1  0.81964066  0.80522543  0.94386126  1  0  -0.494775  0  2.663171  0  0  -0.470839  0  2.908593  0  0  -0.481351  0  2.916638  0  0  -0.398915  -0.463901  0  2.903366  0
N  N97  1  0.00731160  0.98862363  0.22428064  1  0  -0.483549  0  2.60989  0  0  -0.458695  0  2.845471  0  0  -0.46835  0  2.852387  0  0  -0.379683  -0.452312  0  2.841034  0
N  N98  1  0.99268461  0.01138340  0.77571482  1  0  -0.483548  0  2.610109  0  0  -0.458691  0  2.845679  0  0  -0.468347  0  2.852591  0  0  -0.379646  -0.452306  0  2.841236  0
O  O99  1  0.31210839  0.40128595  0.95532583  1  0  -0.300035  0  2.389334  0  0  -0.227685  0  2.629406  0  0  -0.244918  0  2.631563  0  0  -0.201456  -0.215591  0  2.627535  0
O  O100  1  0.68788653  0.59871136  0.04467459  1  0  -0.299958  0  2.389435  0  0  -0.227611  0  2.629521  0  0  -0.244852  0  2.631684  0  0  -0.201471  -0.215521  0  2.627649  0
O  O101  1  0.52536747  0.31606742  0.06796121  1  0  -0.306942  0  2.387966  0  0  -0.237471  0  2.630717  0  0  -0.254101  0  2.632288  0  0  -0.204099  -0.225772  0  2.62924  0
O  O102  1  0.47463221  0.68393343  0.93204002  1  0  -0.306946  0  2.388036  0  0  -0.237524  0  2.630787  0  0  -0.254136  0  2.632353  0  0  -0.204113  -0.225826  0  2.629317  0
O  O103  1  0.50154965  0.07756850  0.92343632  1  0  -0.33907  0  2.248044  0  0  -0.2694  0  2.501675  0  0  -0.283928  0  2.501058  0  0  -0.268913  -0.25916  0  2.501738  0
O  O104  1  0.49845419  0.92242885  0.07656572  1  0  -0.339149  0  2.247986  0  0  -0.269491  0  2.501663  0  0  -0.284019  0  2.501043  0  0  -0.268965  -0.259247  0  2.501726  0
O  O105  1  0.33565816  0.07289011  0.69772430  1  0  -0.350712  0  2.310419  0  0  -0.279104  0  2.570998  0  0  -0.294234  0  2.570346  0  0  -0.276947  -0.268448  0  2.571059  0
O  O106  1  0.66434510  0.92710987  0.30227954  1  0  -0.350784  0  2.310466  0  0  -0.279069  0  2.571009  0  0  -0.294192  0  2.570352  0  0  -0.276877  -0.268416  0  2.571076  0
O  O107  1  0.10802672  0.23818618  0.72836271  1  0  -0.349588  0  2.276732  0  0  -0.280184  0  2.529239  0  0  -0.295517  0  2.528645  0  0  -0.279326  -0.269278  0  2.529259  0
O  O108  1  0.89197504  0.76181292  0.27163814  1  0  -0.349562  0  2.276659  0  0  -0.280212  0  2.529104  0  0  -0.295547  0  2.528506  0  0  -0.279343  -0.269303  0  2.529123  0
