# generated using pymatgen
data_CdH5C8N5O4
_symmetry_space_group_name_H-M   'P 1'
_cell_length_a   7.95845031
_cell_length_b   10.63093577
_cell_length_c   11.76778170
_cell_angle_alpha   90.00010073
_cell_angle_beta   105.36543188
_cell_angle_gamma   89.99978129
_symmetry_Int_Tables_number   1
_chemical_formula_structural   CdH5C8N5O4
_chemical_formula_sum   'Cd4 H20 C32 N20 O16'
_cell_volume   960.03420595
_cell_formula_units_Z   4
loop_
 _symmetry_equiv_pos_site_id
 _symmetry_equiv_pos_as_xyz
  1  'x, y, z'
loop_
 _atom_site_type_symbol
 _atom_site_label
 _atom_site_symmetry_multiplicity
 _atom_site_fract_x
 _atom_site_fract_y
 _atom_site_fract_z
 _atom_site_occupancy
 _atom_site_hle17_bader_spin_density
 _atom_site_hle17_ddec_charge
 _atom_site_hle17_ddec_spin_density
 _atom_site_hle17_ddec_sum_bond_order
 _atom_site_hle17_magmom
 _atom_site_hse06_10hf_bader_spin_density
 _atom_site_hse06_10hf_ddec_charge
 _atom_site_hse06_10hf_ddec_spin_density
 _atom_site_hse06_10hf_ddec_sum_bond_order
 _atom_site_hse06_10hf_magmom
 _atom_site_hse06_bader_spin_density
 _atom_site_hse06_ddec_charge
 _atom_site_hse06_ddec_spin_density
 _atom_site_hse06_ddec_sum_bond_order
 _atom_site_hse06_magmom
 _atom_site_pbe_bader_spin_density
 _atom_site_pbe_cm5_charge
 _atom_site_pbe_ddec_charge
 _atom_site_pbe_ddec_spin_density
 _atom_site_pbe_ddec_sum_bond_order
 _atom_site_pbe_magmom
Cd  Cd0  1  0.74526880  0.75081546  0.21959196  1  0  1.088148  0  1.7161  0  0  0.879619  0  2.163747  0  0  0.933391  0  2.119021  0  0  0.808607  0.840602  0  2.194686  0
Cd  Cd1  1  0.25473170  0.25081414  0.28040752  1  0  1.088147  0  1.716077  0  0  0.879609  0  2.163722  0  0  0.933378  0  2.118998  0  0  0.808596  0.840592  0  2.194663  0
Cd  Cd2  1  0.25473376  0.24918542  0.78040786  1  0  1.08812  0  1.716136  0  0  0.879587  0  2.163789  0  0  0.933357  0  2.119065  0  0  0.808582  0.840565  0  2.19473  0
Cd  Cd3  1  0.74526825  0.74918392  0.71959183  1  0  1.088164  0  1.716108  0  0  0.879625  0  2.163767  0  0  0.933397  0  2.11904  0  0  0.808598  0.840602  0  2.194711  0
H  H4  1  0.89584992  0.22928186  0.41982511  1  0  0.125278  0  0.926474  0  0  0.131588  0  0.993746  0  0  0.13478  0  0.989116  0  0  0.14747  0.129103  0  0.997197  0
H  H5  1  0.10415198  0.72928004  0.08017713  1  0  0.125301  0  0.926468  0  0  0.131646  0  0.993701  0  0  0.134837  0  0.989077  0  0  0.147484  0.12916  0  0.997149  0
H  H6  1  0.10415133  0.77071808  0.58018127  1  0  0.125273  0  0.92645  0  0  0.131588  0  0.993714  0  0  0.134769  0  0.989118  0  0  0.147473  0.129103  0  0.997161  0
H  H7  1  0.89584927  0.27072084  0.91982415  1  0  0.125276  0  0.926495  0  0  0.13161  0  0.993744  0  0  0.134801  0  0.989116  0  0  0.147481  0.129123  0  0.997193  0
H  H8  1  0.63260123  0.08592329  0.44444341  1  0  0.127251  0  0.947072  0  0  0.139848  0  1.005409  0  0  0.141605  0  1.004455  0  0  0.124865  0.138528  0  1.006177  0
H  H9  1  0.36739875  0.58591879  0.05555571  1  0  0.127241  0  0.947006  0  0  0.139867  0  1.005314  0  0  0.141625  0  1.004359  0  0  0.124837  0.138506  0  1.006131  0
H  H10  1  0.36739611  0.91408041  0.55555632  1  0  0.127272  0  0.946984  0  0  0.139848  0  1.005311  0  0  0.141605  0  1.004354  0  0  0.124821  0.138486  0  1.006129  0
H  H11  1  0.63260119  0.41408115  0.94444279  1  0  0.127224  0  0.94698  0  0  0.139855  0  1.005291  0  0  0.141614  0  1.004335  0  0  0.124827  0.138494  0  1.00611  0
H  H12  1  0.67885779  0.92057882  0.44587691  1  0  0.12717  0  0.922377  0  0  0.134216  0  0.992422  0  0  0.136158  0  0.990881  0  0  0.124304  0.132772  0  0.9936  0
H  H13  1  0.32114058  0.42057405  0.05412586  1  0  0.127154  0  0.922373  0  0  0.134206  0  0.992421  0  0  0.136148  0  0.990881  0  0  0.124308  0.132761  0  0.9936  0
H  H14  1  0.32113695  0.07942489  0.55412576  1  0  0.127182  0  0.922372  0  0  0.13421  0  0.992406  0  0  0.13615  0  0.990867  0  0  0.124304  0.132764  0  0.993588  0
H  H15  1  0.67885937  0.57942684  0.94587264  1  0  0.127163  0  0.922349  0  0  0.134223  0  0.992387  0  0  0.136167  0  0.990846  0  0  0.124316  0.132777  0  0.993571  0
H  H16  1  0.15239131  0.95168015  0.27360514  1  0  0.103381  0  0.929274  0  0  0.113457  0  0.988175  0  0  0.115041  0  0.986436  0  0  0.141037  0.11216  0  0.989645  0
H  H17  1  0.84760300  0.45167985  0.22639270  1  0  0.103345  0  0.929299  0  0  0.113432  0  0.988188  0  0  0.115012  0  0.98646  0  0  0.141025  0.112139  0  0.989652  0
H  H18  1  0.84760212  0.04832262  0.72639304  1  0  0.103326  0  0.929292  0  0  0.113436  0  0.98816  0  0  0.115017  0  0.98643  0  0  0.141028  0.112141  0  0.989624  0
H  H19  1  0.15239434  0.54831821  0.77360363  1  0  0.103374  0  0.929285  0  0  0.11343  0  0.988217  0  0  0.115013  0  0.986481  0  0  0.141035  0.112132  0  0.989688  0
H  H20  1  0.21301997  0.95089806  0.91382306  1  0  0.383174  0  0.913751  0  0  0.351283  0  0.994453  0  0  0.364138  0  0.982779  0  0  0.288444  0.342338  0  1.00241  0
H  H21  1  0.78698237  0.45089861  0.58617700  1  0  0.383136  0  0.913787  0  0  0.351254  0  0.994476  0  0  0.36411  0  0.982802  0  0  0.288446  0.34231  0  1.002433  0
H  H22  1  0.78698128  0.04910094  0.08617737  1  0  0.383163  0  0.913781  0  0  0.351257  0  0.994514  0  0  0.364113  0  0.982839  0  0  0.288427  0.342313  0  1.00247  0
H  H23  1  0.21301758  0.54910040  0.41382065  1  0  0.383185  0  0.913715  0  0  0.351282  0  0.994443  0  0  0.364139  0  0.982765  0  0  0.288438  0.342338  0  1.002401  0
C  C24  1  0.18581393  0.10173776  0.04041072  1  0  0.638797  0  3.936364  0  0  0.586396  0  4.237834  0  0  0.620834  0  4.22971  0  0  0.200382  0.562963  0  4.242732  0
C  C25  1  0.81418468  0.60173841  0.45959073  1  0  0.638716  0  3.936466  0  0  0.586298  0  4.237982  0  0  0.620737  0  4.229851  0  0  0.200334  0.562865  0  4.242885  0
C  C26  1  0.81418342  0.89826030  0.95958986  1  0  0.638817  0  3.936393  0  0  0.586407  0  4.237877  0  0  0.620845  0  4.229749  0  0  0.20037  0.562973  0  4.242777  0
C  C27  1  0.18582048  0.39826247  0.54040955  1  0  0.638817  0  3.936366  0  0  0.586425  0  4.237822  0  0  0.620863  0  4.229693  0  0  0.200391  0.562991  0  4.242725  0
C  C28  1  0.92794225  0.14217844  0.38244977  1  0  0.213355  0  3.577926  0  0  0.128356  0  3.85313  0  0  0.146161  0  3.860621  0  0  0.17779  0.11704  0  3.847742  0
C  C29  1  0.07205877  0.64217678  0.11755133  1  0  0.213336  0  3.578041  0  0  0.128291  0  3.853216  0  0  0.146094  0  3.860707  0  0  0.177801  0.116976  0  3.84783  0
C  C30  1  0.07205900  0.85782150  0.61755491  1  0  0.213402  0  3.578014  0  0  0.128379  0  3.853183  0  0  0.14618  0  3.860666  0  0  0.177813  0.117058  0  3.847797  0
C  C31  1  0.92794118  0.35782316  0.88244887  1  0  0.213447  0  3.577971  0  0  0.128413  0  3.853149  0  0  0.146216  0  3.86064  0  0  0.177833  0.117091  0  3.847769  0
C  C32  1  0.66709213  0.00771183  0.39424158  1  0  -0.11992  0  3.60626  0  0  -0.192981  0  3.850484  0  0  -0.19064  0  3.857333  0  0  -0.03925  -0.194168  0  3.845625  0
C  C33  1  0.33290693  0.50770564  0.10575980  1  0  -0.119866  0  3.606209  0  0  -0.192937  0  3.850408  0  0  -0.190603  0  3.857262  0  0  -0.039209  -0.194106  0  3.845578  0
C  C34  1  0.33290652  0.99229282  0.60576008  1  0  -0.119889  0  3.606269  0  0  -0.192882  0  3.850324  0  0  -0.19054  0  3.857172  0  0  -0.039182  -0.194053  0  3.845494  0
C  C35  1  0.66709302  0.49229524  0.89423870  1  0  -0.119828  0  3.606151  0  0  -0.192944  0  3.850395  0  0  -0.190613  0  3.857248  0  0  -0.039197  -0.194116  0  3.845568  0
C  C36  1  0.41803622  0.92175843  0.10173767  1  0  -0.031762  0  3.815781  0  0  -0.037561  0  4.071296  0  0  -0.041342  0  4.095114  0  0  0.063736  -0.035145  0  4.055265  0
C  C37  1  0.58196605  0.42175829  0.39826410  1  0  -0.031829  0  3.815912  0  0  -0.037618  0  4.071473  0  0  -0.041399  0  4.095289  0  0  0.063667  -0.035192  0  4.055448  0
C  C38  1  0.58196633  0.07824057  0.89826300  1  0  -0.031862  0  3.815896  0  0  -0.037608  0  4.071379  0  0  -0.041388  0  4.095197  0  0  0.063696  -0.03519  0  4.055349  0
C  C39  1  0.41803390  0.57824165  0.60173440  1  0  -0.031679  0  3.815928  0  0  -0.037475  0  4.071519  0  0  -0.041255  0  4.095332  0  0  0.063727  -0.035052  0  4.055494  0
C  C40  1  0.39980349  0.83744408  0.99981669  1  0  0.626145  0  3.89312  0  0  0.574501  0  4.200486  0  0  0.608106  0  4.191768  0  0  0.212828  0.551629  0  4.206002  0
C  C41  1  0.60020852  0.33744782  0.50018492  1  0  0.626208  0  3.893042  0  0  0.574489  0  4.200541  0  0  0.608095  0  4.191826  0  0  0.212867  0.551594  0  4.206091  0
C  C42  1  0.60020558  0.16255398  0.00018514  1  0  0.626225  0  3.893158  0  0  0.574525  0  4.200593  0  0  0.60813  0  4.191877  0  0  0.212897  0.551643  0  4.206124  0
C  C43  1  0.39978882  0.66254742  0.49981141  1  0  0.62602  0  3.892968  0  0  0.574259  0  4.200544  0  0  0.607866  0  4.191822  0  0  0.212772  0.551361  0  4.206092  0
C  C44  1  0.05897274  0.99878341  0.31109151  1  0  0.229224  0  3.682068  0  0  0.169035  0  3.967759  0  0  0.18315  0  3.979571  0  0  0.156339  0.159708  0  3.959513  0
C  C45  1  0.94102526  0.49878184  0.18890791  1  0  0.229268  0  3.682128  0  0  0.169069  0  3.967829  0  0  0.183181  0  3.979641  0  0  0.15635  0.15974  0  3.959588  0
C  C46  1  0.94102461  0.00121747  0.68890992  1  0  0.22931  0  3.682019  0  0  0.169098  0  3.96771  0  0  0.183208  0  3.979522  0  0  0.156334  0.159767  0  3.959466  0
C  C47  1  0.05897469  0.50121717  0.81109228  1  0  0.229212  0  3.682164  0  0  0.169029  0  3.96789  0  0  0.183144  0  3.979702  0  0  0.15635  0.159698  0  3.95965  0
C  C48  1  0.53487011  0.99295725  0.27818850  1  0  0.375349  0  3.717546  0  0  0.346732  0  3.997639  0  0  0.361397  0  4.011827  0  0  0.209864  0.337006  0  3.987387  0
C  C49  1  0.46512400  0.49295522  0.22180767  1  0  0.375308  0  3.717382  0  0  0.346659  0  3.997564  0  0  0.361324  0  4.011755  0  0  0.209811  0.336939  0  3.987306  0
C  C50  1  0.46512853  0.00704551  0.72181146  1  0  0.375314  0  3.71753  0  0  0.346731  0  3.997557  0  0  0.361395  0  4.011744  0  0  0.209841  0.337006  0  3.987298  0
C  C51  1  0.53487595  0.50704473  0.77819083  1  0  0.375354  0  3.717341  0  0  0.346749  0  3.997469  0  0  0.361415  0  4.011658  0  0  0.209828  0.337025  0  3.987212  0
C  C52  1  0.32870851  0.03038173  0.12021325  1  0  -0.00669  0  3.791511  0  0  -0.012757  0  4.047362  0  0  -0.014205  0  4.068369  0  0  0.066751  -0.011907  0  4.033258  0
C  C53  1  0.67129175  0.53038358  0.37978668  1  0  -0.006697  0  3.791498  0  0  -0.01276  0  4.047375  0  0  -0.014206  0  4.068376  0  0  0.066726  -0.011909  0  4.033272  0
C  C54  1  0.67129144  0.96961633  0.87978525  1  0  -0.006703  0  3.791541  0  0  -0.012781  0  4.047403  0  0  -0.01423  0  4.068409  0  0  0.066715  -0.01193  0  4.033295  0
C  C55  1  0.32870820  0.46961637  0.62021266  1  0  -0.0068  0  3.791524  0  0  -0.012859  0  4.047396  0  0  -0.014306  0  4.068397  0  0  0.066712  -0.012007  0  4.033291  0
N  N56  1  0.92020220  0.94198569  0.32821265  1  0  -0.270536  0  2.966959  0  0  -0.239949  0  3.236655  0  0  -0.252739  0  3.250331  0  0  -0.216921  -0.230939  0  3.227388  0
N  N57  1  0.07979346  0.44198372  0.17178627  1  0  -0.270492  0  2.966883  0  0  -0.239909  0  3.236564  0  0  -0.2527  0  3.25024  0  0  -0.216884  -0.230903  0  3.227299  0
N  N58  1  0.07979253  0.05801707  0.67178662  1  0  -0.270448  0  2.966864  0  0  -0.239867  0  3.236519  0  0  -0.252656  0  3.250196  0  0  -0.216852  -0.230863  0  3.227249  0
N  N59  1  0.92020518  0.55801528  0.82821115  1  0  -0.270405  0  2.966925  0  0  -0.239826  0  3.2366  0  0  -0.252616  0  3.250273  0  0  -0.2169  -0.230824  0  3.227336  0
N  N60  1  0.83827289  0.03392751  0.37419372  1  0  0.059324  0  3.51244  0  0  0.171638  0  3.705227  0  0  0.160288  0  3.730505  0  0  -0.124663  0.177992  0  3.689741  0
N  N61  1  0.16172604  0.53392655  0.12580599  1  0  0.05915  0  3.512431  0  0  0.171514  0  3.705202  0  0  0.160166  0  3.730477  0  0  -0.124759  0.177895  0  3.689663  0
N  N62  1  0.16172706  0.96607338  0.62580818  1  0  0.059073  0  3.512632  0  0  0.17144  0  3.705332  0  0  0.160092  0  3.730604  0  0  -0.124751  0.177835  0  3.689761  0
N  N63  1  0.83827261  0.46607339  0.87419228  1  0  0.059057  0  3.512532  0  0  0.171428  0  3.705317  0  0  0.16008  0  3.730592  0  0  -0.124752  0.177829  0  3.689739  0
N  N64  1  0.40394305  0.07367049  0.23199642  1  0  -0.453079  0  3.148443  0  0  -0.390094  0  3.422073  0  0  -0.410036  0  3.437714  0  0  -0.350987  -0.375805  0  3.410722  0
N  N65  1  0.59605569  0.57366951  0.26800246  1  0  -0.452986  0  3.148319  0  0  -0.389999  0  3.421974  0  0  -0.409938  0  3.437612  0  0  -0.350883  -0.375711  0  3.410624  0
N  N66  1  0.59605429  0.92633039  0.76800161  1  0  -0.45304  0  3.148378  0  0  -0.390099  0  3.422046  0  0  -0.410037  0  3.437683  0  0  -0.35096  -0.375812  0  3.410698  0
N  N67  1  0.40394556  0.42633231  0.73199627  1  0  -0.452971  0  3.148338  0  0  -0.390021  0  3.422014  0  0  -0.409959  0  3.437654  0  0  -0.350929  -0.375733  0  3.410667  0
N  N68  1  0.54605261  0.89966434  0.20317145  1  0  -0.447251  0  3.267226  0  0  -0.374598  0  3.54318  0  0  -0.396621  0  3.560824  0  0  -0.365989  -0.358984  0  3.530331  0
N  N69  1  0.45394978  0.39966060  0.29683200  1  0  -0.447209  0  3.267058  0  0  -0.374557  0  3.543054  0  0  -0.396579  0  3.560698  0  0  -0.36597  -0.358954  0  3.530221  0
N  N70  1  0.45394865  0.10033842  0.79683153  1  0  -0.44718  0  3.267201  0  0  -0.374566  0  3.543155  0  0  -0.396589  0  3.560798  0  0  -0.365979  -0.358957  0  3.530314  0
N  N71  1  0.54604887  0.60033934  0.70316541  1  0  -0.44733  0  3.267161  0  0  -0.374681  0  3.54316  0  0  -0.396701  0  3.560799  0  0  -0.366022  -0.359071  0  3.530319  0
N  N72  1  0.06960509  0.12243536  0.34364736  1  0  -0.408302  0  3.1902  0  0  -0.328511  0  3.490287  0  0  -0.352428  0  3.50171  0  0  -0.347164  -0.312092  0  3.481787  0
N  N73  1  0.93039602  0.62243509  0.15635458  1  0  -0.408234  0  3.190132  0  0  -0.328464  0  3.490275  0  0  -0.35238  0  3.501699  0  0  -0.347126  -0.312044  0  3.481776  0
N  N74  1  0.93039747  0.87756458  0.65635925  1  0  -0.408274  0  3.190103  0  0  -0.328517  0  3.490247  0  0  -0.35243  0  3.501668  0  0  -0.347184  -0.312099  0  3.481747  0
N  N75  1  0.06960523  0.37756485  0.84364670  1  0  -0.408281  0  3.190129  0  0  -0.328494  0  3.490237  0  0  -0.352411  0  3.501659  0  0  -0.347155  -0.312076  0  3.481742  0
O  O76  1  0.27701637  0.86373724  0.90336355  1  0  -0.529548  0  2.080726  0  0  -0.482169  0  2.304482  0  0  -0.50428  0  2.292988  0  0  -0.327924  -0.466989  0  2.312046  0
O  O77  1  0.72298900  0.36373611  0.59663607  1  0  -0.529447  0  2.08082  0  0  -0.482024  0  2.304584  0  0  -0.504135  0  2.293092  0  0  -0.327845  -0.466834  0  2.312148  0
O  O78  1  0.72298879  0.13626364  0.09663588  1  0  -0.529497  0  2.080856  0  0  -0.482083  0  2.304631  0  0  -0.504196  0  2.293138  0  0  -0.327858  -0.466891  0  2.312179  0
O  O79  1  0.27700965  0.63626289  0.40336135  1  0  -0.529297  0  2.080773  0  0  -0.481872  0  2.304582  0  0  -0.503978  0  2.293088  0  0  -0.327723  -0.466686  0  2.31216  0
O  O80  1  0.12184062  0.19439860  0.08174340  1  0  -0.613329  0  2.022558  0  0  -0.557433  0  2.280697  0  0  -0.584164  0  2.271072  0  0  -0.321076  -0.538618  0  2.286695  0
O  O81  1  0.87816145  0.69440180  0.41825542  1  0  -0.613305  0  2.022485  0  0  -0.557398  0  2.280613  0  0  -0.584145  0  2.271027  0  0  -0.321055  -0.538581  0  2.28661  0
O  O82  1  0.87816063  0.80559852  0.91825448  1  0  -0.613325  0  2.022581  0  0  -0.557421  0  2.280714  0  0  -0.584165  0  2.271117  0  0  -0.321052  -0.538603  0  2.286712  0
O  O83  1  0.12183850  0.30559720  0.58174648  1  0  -0.613364  0  2.022435  0  0  -0.557448  0  2.280536  0  0  -0.584194  0  2.270937  0  0  -0.321065  -0.538628  0  2.286536  0
O  O84  1  0.13666014  0.06792700  0.93156497  1  0  -0.631066  0  2.019676  0  0  -0.57679  0  2.262381  0  0  -0.603357  0  2.254047  0  0  -0.322842  -0.558303  0  2.267568  0
O  O85  1  0.86334014  0.56792863  0.56843497  1  0  -0.630974  0  2.019827  0  0  -0.576706  0  2.262546  0  0  -0.60327  0  2.25421  0  0  -0.322796  -0.558212  0  2.267716  0
O  O86  1  0.86333591  0.93206918  0.06843453  1  0  -0.631058  0  2.019709  0  0  -0.576779  0  2.262436  0  0  -0.603345  0  2.254098  0  0  -0.322827  -0.5583  0  2.267639  0
O  O87  1  0.13666632  0.43206661  0.43156810  1  0  -0.631012  0  2.019829  0  0  -0.576748  0  2.262539  0  0  -0.603312  0  2.254202  0  0  -0.322822  -0.558266  0  2.267739  0
O  O88  1  0.49720287  0.74387455  0.00690734  1  0  -0.585135  0  1.943305  0  0  -0.533863  0  2.176081  0  0  -0.555256  0  2.165041  0  0  -0.30562  -0.518923  0  2.183231  0
O  O89  1  0.50280157  0.24387105  0.49309284  1  0  -0.585263  0  1.94293  0  0  -0.533944  0  2.175717  0  0  -0.555339  0  2.164676  0  0  -0.305696  -0.519002  0  2.182884  0
O  O90  1  0.50280229  0.25612634  0.99309294  1  0  -0.585193  0  1.943122  0  0  -0.533917  0  2.17593  0  0  -0.555311  0  2.16489  0  0  -0.305696  -0.518974  0  2.183085  0
O  O91  1  0.49719968  0.75612983  0.50690334  1  0  -0.585323  0  1.9428  0  0  -0.533933  0  2.175527  0  0  -0.555344  0  2.164522  0  0  -0.305711  -0.51898  0  2.182688  0
