# generated using pymatgen
data_ReAgH4C4(NO2)2
_symmetry_space_group_name_H-M   'P 1'
_cell_length_a   7.10391739
_cell_length_b   7.52758119
_cell_length_c   15.61552567
_cell_angle_alpha   90.00020889
_cell_angle_beta   93.48430494
_cell_angle_gamma   89.99991679
_symmetry_Int_Tables_number   1
_chemical_formula_structural   ReAgH4C4(NO2)2
_chemical_formula_sum   'Re4 Ag4 H16 C16 N8 O16'
_cell_volume   833.50155813
_cell_formula_units_Z   4
loop_
 _symmetry_equiv_pos_site_id
 _symmetry_equiv_pos_as_xyz
  1  'x, y, z'
loop_
 _atom_site_type_symbol
 _atom_site_label
 _atom_site_symmetry_multiplicity
 _atom_site_fract_x
 _atom_site_fract_y
 _atom_site_fract_z
 _atom_site_occupancy
 _atom_site_hle17_bader_spin_density
 _atom_site_hle17_ddec_charge
 _atom_site_hle17_ddec_spin_density
 _atom_site_hle17_ddec_sum_bond_order
 _atom_site_hle17_magmom
 _atom_site_hse06_10hf_bader_spin_density
 _atom_site_hse06_10hf_ddec_charge
 _atom_site_hse06_10hf_ddec_spin_density
 _atom_site_hse06_10hf_ddec_sum_bond_order
 _atom_site_hse06_10hf_magmom
 _atom_site_hse06_bader_spin_density
 _atom_site_hse06_ddec_charge
 _atom_site_hse06_ddec_spin_density
 _atom_site_hse06_ddec_sum_bond_order
 _atom_site_hse06_magmom
 _atom_site_pbe_bader_spin_density
 _atom_site_pbe_cm5_charge
 _atom_site_pbe_ddec_charge
 _atom_site_pbe_ddec_spin_density
 _atom_site_pbe_ddec_sum_bond_order
 _atom_site_pbe_magmom
Re  Re0  1  0.48126578  0.84469577  0.62323755  1  0  1.919238  0  5.085227  0  0  1.963462  0  5.776687  0  0  2.047899  0  5.73759  0  0  1.313694  1.906078  0  5.803353  0
Re  Re1  1  0.51873171  0.34469948  0.87676965  1  0  1.919048  0  5.085094  0  0  1.963287  0  5.776608  0  0  2.047727  0  5.737505  0  0  1.313578  1.905905  0  5.803269  0
Re  Re2  1  0.51874150  0.15531264  0.37675084  1  0  1.919183  0  5.085341  0  0  1.963356  0  5.776853  0  0  2.047798  0  5.737756  0  0  1.3136  1.905978  0  5.803497  0
Re  Re3  1  0.48127010  0.65530361  0.12322630  1  0  1.919196  0  5.085195  0  0  1.963457  0  5.776679  0  0  2.0479  0  5.737572  0  0  1.313545  1.90607  0  5.803341  0
Ag  Ag4  1  0.47776723  0.63910813  0.36576344  1  0  0.593437  0  1.479319  0  0  0.477423  0  1.929074  0  0  0.494185  0  1.889  0  0  0.509418  0.467944  0  1.955825  0
Ag  Ag5  1  0.52223635  0.13910727  0.13423269  1  0  0.593496  0  1.479285  0  0  0.477515  0  1.928975  0  0  0.494275  0  1.888912  0  0  0.509461  0.468015  0  1.955757  0
Ag  Ag6  1  0.52222760  0.36089363  0.63423554  1  0  0.593451  0  1.47927  0  0  0.477467  0  1.928988  0  0  0.494235  0  1.888914  0  0  0.509453  0.467979  0  1.955767  0
Ag  Ag7  1  0.47775987  0.86089715  0.86576568  1  0  0.593488  0  1.479359  0  0  0.477535  0  1.92901  0  0  0.494291  0  1.888948  0  0  0.509458  0.468044  0  1.955765  0
H  H8  1  0.78447953  0.45494077  0.25915556  1  0  0.101303  0  0.963836  0  0  0.10839  0  1.030703  0  0  0.110741  0  1.029537  0  0  0.122088  0.106609  0  1.031682  0
H  H9  1  0.21553479  0.95493172  0.24083559  1  0  0.101328  0  0.963796  0  0  0.108382  0  1.030715  0  0  0.110736  0  1.029544  0  0  0.122077  0.106601  0  1.031705  0
H  H10  1  0.21551806  0.54507295  0.74084093  1  0  0.101309  0  0.963867  0  0  0.108408  0  1.030735  0  0  0.110764  0  1.029561  0  0  0.12209  0.106629  0  1.031722  0
H  H11  1  0.78446996  0.04506739  0.75916618  1  0  0.101383  0  0.963794  0  0  0.108469  0  1.030669  0  0  0.110823  0  1.029497  0  0  0.1221  0.106685  0  1.031655  0
H  H12  1  0.14026921  0.45192830  0.25940446  1  0  0.10685  0  0.941957  0  0  0.116041  0  1.002832  0  0  0.118581  0  1.001262  0  0  0.122893  0.114146  0  1.004056  0
H  H13  1  0.85974951  0.95192898  0.24059448  1  0  0.106883  0  0.941938  0  0  0.116072  0  1.00281  0  0  0.118613  0  1.00124  0  0  0.122925  0.114176  0  1.004031  0
H  H14  1  0.85972990  0.54806815  0.74059719  1  0  0.106832  0  0.941988  0  0  0.116021  0  1.002854  0  0  0.118562  0  1.001286  0  0  0.122882  0.114124  0  1.004077  0
H  H15  1  0.14025387  0.04807279  0.75940919  1  0  0.106807  0  0.941753  0  0  0.116042  0  1.002615  0  0  0.11858  0  1.001051  0  0  0.122894  0.114145  0  1.003835  0
H  H16  1  0.17177768  0.75871030  0.48179579  1  0  0.098558  0  0.963983  0  0  0.104634  0  1.031291  0  0  0.10667  0  1.03018  0  0  0.122093  0.103053  0  1.032331  0
H  H17  1  0.82821608  0.25872537  0.01820993  1  0  0.098485  0  0.963964  0  0  0.104584  0  1.031255  0  0  0.106619  0  1.030148  0  0  0.122097  0.103001  0  1.032287  0
H  H18  1  0.82821452  0.24127286  0.51821211  1  0  0.098491  0  0.963954  0  0  0.104581  0  1.031256  0  0  0.106616  0  1.030146  0  0  0.122088  0.102995  0  1.032295  0
H  H19  1  0.17177879  0.74126444  0.98179098  1  0  0.09851  0  0.96389  0  0  0.104604  0  1.0312  0  0  0.106637  0  1.030095  0  0  0.122088  0.103019  0  1.032233  0
H  H20  1  0.81682948  0.75589090  0.48317512  1  0  0.104229  0  0.94307  0  0  0.11336  0  1.004119  0  0  0.115712  0  1.002603  0  0  0.126303  0.111604  0  1.005332  0
H  H21  1  0.18316973  0.25590020  0.01682175  1  0  0.104202  0  0.943169  0  0  0.113369  0  1.00415  0  0  0.115721  0  1.002634  0  0  0.126305  0.111611  0  1.005364  0
H  H22  1  0.18316818  0.24410024  0.51682457  1  0  0.104263  0  0.943107  0  0  0.113426  0  1.004074  0  0  0.115777  0  1.00256  0  0  0.126327  0.111666  0  1.005299  0
H  H23  1  0.81681955  0.74409625  0.98318159  1  0  0.104202  0  0.943268  0  0  0.113367  0  1.004232  0  0  0.115722  0  1.002715  0  0  0.126295  0.11161  0  1.005449  0
C  C24  1  0.87142498  0.52152937  0.30936658  1  0  0.072924  0  3.663051  0  0  0.044555  0  3.908955  0  0  0.046199  0  3.928505  0  0  0.056968  0.043165  0  3.896287  0
C  C25  1  0.12858575  0.02152551  0.19062760  1  0  0.073001  0  3.663032  0  0  0.044681  0  3.908876  0  0  0.046299  0  3.928472  0  0  0.056986  0.043288  0  3.896212  0
C  C26  1  0.12857688  0.47848037  0.69063192  1  0  0.07295  0  3.663199  0  0  0.044591  0  3.909039  0  0  0.046208  0  3.92864  0  0  0.057036  0.043199  0  3.896383  0
C  C27  1  0.87141623  0.97847892  0.80937668  1  0  0.07289  0  3.663256  0  0  0.044571  0  3.909104  0  0  0.046189  0  3.928703  0  0  0.056998  0.043176  0  3.896446  0
C  C28  1  0.06741956  0.52014701  0.30924704  1  0  0.077522  0  3.646481  0  0  0.05097  0  3.886434  0  0  0.053089  0  3.904874  0  0  0.05871  0.049337  0  3.87451  0
C  C29  1  0.93258988  0.02015000  0.19075223  1  0  0.077415  0  3.646653  0  0  0.05082  0  3.886672  0  0  0.052949  0  3.905092  0  0  0.058607  0.049196  0  3.874716  0
C  C30  1  0.93257954  0.47985077  0.69075396  1  0  0.077422  0  3.646572  0  0  0.05087  0  3.886558  0  0  0.052991  0  3.904983  0  0  0.058635  0.049243  0  3.874628  0
C  C31  1  0.06740233  0.97985043  0.80925630  1  0  0.077485  0  3.646693  0  0  0.050843  0  3.886703  0  0  0.05297  0  3.90512  0  0  0.058505  0.049208  0  3.874775  0
C  C32  1  0.08554576  0.68965744  0.43231600  1  0  0.088757  0  3.638544  0  0  0.06441  0  3.875328  0  0  0.066784  0  3.893544  0  0  0.057637  0.062553  0  3.863557  0
C  C33  1  0.91446075  0.18967012  0.06768861  1  0  0.088856  0  3.638112  0  0  0.064467  0  3.874978  0  0  0.066841  0  3.89319  0  0  0.057563  0.062609  0  3.863186  0
C  C34  1  0.91445342  0.31032971  0.56768885  1  0  0.088853  0  3.63821  0  0  0.064464  0  3.875064  0  0  0.06683  0  3.893279  0  0  0.057567  0.062615  0  3.863276  0
C  C35  1  0.08553844  0.81032500  0.93231688  1  0  0.088922  0  3.638161  0  0  0.064504  0  3.875024  0  0  0.06688  0  3.893233  0  0  0.05757  0.062647  0  3.863233  0
C  C36  1  0.88989485  0.68958781  0.43287964  1  0  0.087113  0  3.642577  0  0  0.060543  0  3.883861  0  0  0.062989  0  3.902008  0  0  0.058276  0.058649  0  3.872133  0
C  C37  1  0.11010586  0.18959761  0.06711780  1  0  0.087139  0  3.642663  0  0  0.060556  0  3.883949  0  0  0.063006  0  3.902091  0  0  0.058285  0.05866  0  3.872209  0
C  C38  1  0.11010279  0.31040333  0.56711941  1  0  0.08695  0  3.642412  0  0  0.060428  0  3.883654  0  0  0.062875  0  3.9018  0  0  0.058273  0.058537  0  3.871931  0
C  C39  1  0.88989052  0.81039618  0.93288827  1  0  0.086974  0  3.642781  0  0  0.060449  0  3.884009  0  0  0.062896  0  3.902147  0  0  0.058246  0.058552  0  3.872278  0
N  N40  1  0.78258743  0.60561512  0.37145673  1  0  -0.247492  0  3.311582  0  0  -0.171335  0  3.588936  0  0  -0.184141  0  3.605057  0  0  -0.322353  -0.162894  0  3.578304  0
N  N41  1  0.21741606  0.10561596  0.12853358  1  0  -0.247601  0  3.311729  0  0  -0.171417  0  3.589029  0  0  -0.184222  0  3.605148  0  0  -0.322288  -0.162973  0  3.578393  0
N  N42  1  0.21741300  0.39439196  0.62854110  1  0  -0.247424  0  3.311577  0  0  -0.171313  0  3.588958  0  0  -0.184118  0  3.605081  0  0  -0.322361  -0.162878  0  3.578341  0
N  N43  1  0.78257879  0.89438847  0.87146668  1  0  -0.247379  0  3.311576  0  0  -0.171277  0  3.588929  0  0  -0.184079  0  3.605045  0  0  -0.322208  -0.162837  0  3.578298  0
N  N44  1  0.17452152  0.60436281  0.37068504  1  0  -0.236629  0  3.295823  0  0  -0.157049  0  3.564766  0  0  -0.16941  0  3.579928  0  0  -0.320643  -0.148945  0  3.554794  0
N  N45  1  0.82548932  0.10437078  0.12931889  1  0  -0.236666  0  3.29559  0  0  -0.157073  0  3.564541  0  0  -0.169438  0  3.579706  0  0  -0.320624  -0.148956  0  3.554539  0
N  N46  1  0.82547903  0.39562567  0.62931792  1  0  -0.236498  0  3.295538  0  0  -0.156936  0  3.564498  0  0  -0.169284  0  3.579648  0  0  -0.320551  -0.148828  0  3.554508  0
N  N47  1  0.17450987  0.89562567  0.87068660  1  0  -0.23675  0  3.295773  0  0  -0.157149  0  3.564747  0  0  -0.169509  0  3.579899  0  0  -0.320565  -0.149029  0  3.554744  0
O  O48  1  0.24298508  0.90712767  0.62156331  1  0  -0.664908  0  1.464813  0  0  -0.668299  0  1.715768  0  0  -0.691134  0  1.706694  0  0  -0.478527  -0.652447  0  1.721979  0
O  O49  1  0.75701509  0.40713372  0.87844149  1  0  -0.664898  0  1.464761  0  0  -0.668265  0  1.715692  0  0  -0.691097  0  1.706619  0  0  -0.478486  -0.652409  0  1.721907  0
O  O50  1  0.75702346  0.09289535  0.37841806  1  0  -0.664958  0  1.464794  0  0  -0.668295  0  1.715705  0  0  -0.69113  0  1.706634  0  0  -0.47847  -0.652452  0  1.721918  0
O  O51  1  0.24298116  0.59287867  0.12155817  1  0  -0.664953  0  1.464751  0  0  -0.668314  0  1.715678  0  0  -0.691145  0  1.706594  0  0  -0.478478  -0.652456  0  1.721892  0
O  O52  1  0.62788654  0.03275225  0.62313852  1  0  -0.68615  0  1.624692  0  0  -0.681132  0  1.919206  0  0  -0.705897  0  1.908014  0  0  -0.475602  -0.664143  0  1.926761  0
O  O53  1  0.37210012  0.53274804  0.87686983  1  0  -0.686106  0  1.624666  0  0  -0.681108  0  1.919169  0  0  -0.705872  0  1.907975  0  0  -0.475541  -0.664132  0  1.926739  0
O  O54  1  0.37212090  0.96724952  0.37685692  1  0  -0.686091  0  1.624535  0  0  -0.68109  0  1.91908  0  0  -0.705858  0  1.907884  0  0  -0.475547  -0.664114  0  1.926647  0
O  O55  1  0.62789605  0.46724709  0.12312599  1  0  -0.686159  0  1.624721  0  0  -0.681168  0  1.919221  0  0  -0.705934  0  1.908032  0  0  -0.475523  -0.664194  0  1.92681  0
O  O56  1  0.51835988  0.71603520  0.53201596  1  0  -0.692848  0  1.647076  0  0  -0.698543  0  1.971457  0  0  -0.72096  0  1.956259  0  0  -0.471908  -0.683429  0  1.981833  0
O  O57  1  0.48165483  0.21605429  0.96799719  1  0  -0.692691  0  1.647014  0  0  -0.698433  0  1.971425  0  0  -0.720849  0  1.956219  0  0  -0.471971  -0.683314  0  1.981789  0
O  O58  1  0.48166318  0.28394398  0.46798496  1  0  -0.69278  0  1.646945  0  0  -0.698472  0  1.971343  0  0  -0.72089  0  1.956143  0  0  -0.471969  -0.683356  0  1.981706  0
O  O59  1  0.51834847  0.78395677  0.03200263  1  0  -0.692712  0  1.647087  0  0  -0.69847  0  1.971505  0  0  -0.720887  0  1.956299  0  0  -0.471949  -0.683347  0  1.981864  0
O  O60  1  0.54072802  0.71610897  0.71540942  1  0  -0.721935  0  1.649749  0  0  -0.727477  0  1.981327  0  0  -0.751349  0  1.966995  0  0  -0.479056  -0.711311  0  1.991163  0
O  O61  1  0.45927953  0.21610274  0.78459907  1  0  -0.721886  0  1.649701  0  0  -0.727439  0  1.981294  0  0  -0.751313  0  1.966959  0  0  -0.478982  -0.711282  0  1.991131  0
O  O62  1  0.45926118  0.28391538  0.28459007  1  0  -0.721916  0  1.650013  0  0  -0.72747  0  1.981664  0  0  -0.751343  0  1.967336  0  0  -0.479029  -0.711303  0  1.991485  0
O  O63  1  0.54073774  0.78388707  0.21539531  1  0  -0.721917  0  1.649752  0  0  -0.727448  0  1.981297  0  0  -0.751323  0  1.966959  0  0  -0.478986  -0.711292  0  1.991131  0
