# generated using pymatgen
data_CdH12(C2O)6
_symmetry_space_group_name_H-M   'P 1'
_cell_length_a   8.06383152
_cell_length_b   10.91943169
_cell_length_c   14.24433196
_cell_angle_alpha   100.00985322
_cell_angle_beta   90.00060984
_cell_angle_gamma   89.99991541
_symmetry_Int_Tables_number   1
_chemical_formula_structural   CdH12(C2O)6
_chemical_formula_sum   'Cd4 H48 C48 O24'
_cell_volume   1235.15610788
_cell_formula_units_Z   4
loop_
 _symmetry_equiv_pos_site_id
 _symmetry_equiv_pos_as_xyz
  1  'x, y, z'
loop_
 _atom_site_type_symbol
 _atom_site_label
 _atom_site_symmetry_multiplicity
 _atom_site_fract_x
 _atom_site_fract_y
 _atom_site_fract_z
 _atom_site_occupancy
 _atom_site_hle17_bader_spin_density
 _atom_site_hle17_ddec_charge
 _atom_site_hle17_ddec_spin_density
 _atom_site_hle17_ddec_sum_bond_order
 _atom_site_hle17_magmom
 _atom_site_hse06_10hf_bader_spin_density
 _atom_site_hse06_10hf_ddec_charge
 _atom_site_hse06_10hf_ddec_spin_density
 _atom_site_hse06_10hf_ddec_sum_bond_order
 _atom_site_hse06_10hf_magmom
 _atom_site_hse06_bader_spin_density
 _atom_site_hse06_ddec_charge
 _atom_site_hse06_ddec_spin_density
 _atom_site_hse06_ddec_sum_bond_order
 _atom_site_hse06_magmom
 _atom_site_pbe_bader_spin_density
 _atom_site_pbe_cm5_charge
 _atom_site_pbe_ddec_charge
 _atom_site_pbe_ddec_spin_density
 _atom_site_pbe_ddec_sum_bond_order
 _atom_site_pbe_magmom
Cd  Cd0  1  0.94853977  0.99246615  0.03635072  1  0  1.283353  0  1.514847  0  0  1.111067  0  1.942378  0  0  1.171439  0  1.883078  0  0  0.782116  1.067571  0  1.983315  0
Cd  Cd1  1  0.44854393  0.00753316  0.96364718  1  0  1.283271  0  1.514975  0  0  1.110986  0  1.942523  0  0  1.171356  0  1.883229  0  0  0.782087  1.067494  0  1.983455  0
Cd  Cd2  1  0.85408819  0.39055395  0.08417662  1  0  1.28426  0  1.534613  0  0  1.108398  0  1.976163  0  0  1.167351  0  1.914752  0  0  0.776601  1.065905  0  2.018694  0
Cd  Cd3  1  0.35408159  0.60943965  0.91582479  1  0  1.284187  0  1.534638  0  0  1.10832  0  1.976173  0  0  1.167272  0  1.914764  0  0  0.776587  1.065824  0  2.018708  0
H  H4  1  0.69070344  0.33278939  0.24880012  1  0  0.123666  0  0.991966  0  0  0.130745  0  1.0568  0  0  0.135278  0  1.053942  0  0  0.103689  0.127502  0  1.059049  0
H  H5  1  0.19070605  0.66721535  0.75120052  1  0  0.123762  0  0.991951  0  0  0.130775  0  1.056836  0  0  0.135308  0  1.053978  0  0  0.103695  0.127531  0  1.059085  0
H  H6  1  0.71559981  0.11602334  0.36009168  1  0  0.089707  0  0.962797  0  0  0.098445  0  1.031012  0  0  0.100794  0  1.030136  0  0  0.100372  0.096708  0  1.031739  0
H  H7  1  0.21560115  0.88398605  0.63991050  1  0  0.089677  0  0.962771  0  0  0.098496  0  1.030908  0  0  0.10082  0  1.03006  0  0  0.100386  0.096757  0  1.03164  0
H  H8  1  0.75571127  0.18919748  0.52748345  1  0  0.09021  0  0.982498  0  0  0.098654  0  1.051985  0  0  0.100389  0  1.05334  0  0  0.097127  0.097466  0  1.050887  0
H  H9  1  0.25571334  0.81080728  0.47251759  1  0  0.090175  0  0.98243  0  0  0.098622  0  1.051934  0  0  0.100362  0  1.053272  0  0  0.09711  0.097434  0  1.050833  0
H  H10  1  0.51875015  0.43294174  0.36084268  1  0  0.099419  0  0.94029  0  0  0.11256  0  0.997137  0  0  0.115288  0  0.996004  0  0  0.105506  0.110544  0  0.998085  0
H  H11  1  0.01873722  0.56706756  0.63915969  1  0  0.099281  0  0.940371  0  0  0.112455  0  0.997188  0  0  0.115165  0  0.996078  0  0  0.105471  0.110446  0  0.998125  0
H  H12  1  0.46418923  0.58386292  0.50848237  1  0  0.088001  0  0.975812  0  0  0.098109  0  1.037049  0  0  0.099646  0  1.039038  0  0  0.09716  0.097009  0  1.035754  0
H  H13  1  0.96419224  0.41613909  0.49152024  1  0  0.087959  0  0.975874  0  0  0.098119  0  1.037059  0  0  0.099657  0  1.039047  0  0  0.09714  0.097017  0  1.035765  0
H  H14  1  0.56040306  0.54275529  0.66477067  1  0  0.107326  0  0.947473  0  0  0.118866  0  1.005003  0  0  0.12209  0  1.003154  0  0  0.105496  0.11656  0  1.00639  0
H  H15  1  0.06040946  0.45724283  0.33523173  1  0  0.107255  0  0.947424  0  0  0.118835  0  1.004903  0  0  0.122059  0  1.003054  0  0  0.105479  0.11653  0  1.006289  0
H  H16  1  0.75547842  0.23486762  0.69638502  1  0  0.092701  0  0.940728  0  0  0.103342  0  1.003869  0  0  0.106177  0  1.001558  0  0  0.106415  0.101249  0  1.005599  0
H  H17  1  0.25547618  0.76513063  0.30361507  1  0  0.09261  0  0.940741  0  0  0.103239  0  1.003907  0  0  0.106075  0  1.001595  0  0  0.106364  0.101143  0  1.005638  0
H  H18  1  0.73098814  0.51263989  0.78441933  1  0  0.121066  0  0.95184  0  0  0.132114  0  1.010121  0  0  0.135988  0  1.008837  0  0  0.105915  0.129358  0  1.011238  0
H  H19  1  0.23098107  0.48735829  0.21558341  1  0  0.121141  0  0.95186  0  0  0.132188  0  1.010131  0  0  0.136062  0  1.008846  0  0  0.105925  0.12943  0  1.01125  0
H  H20  1  0.72561450  0.80457072  0.25734858  1  0  0.120003  0  0.952721  0  0  0.13031  0  1.012009  0  0  0.134366  0  1.010113  0  0  0.105116  0.12743  0  1.013503  0
H  H21  1  0.22561663  0.19542765  0.74264573  1  0  0.119968  0  0.952774  0  0  0.130306  0  1.012031  0  0  0.134351  0  1.01015  0  0  0.105106  0.1274  0  1.013559  0
H  H22  1  0.75250396  0.62105734  0.39841073  1  0  0.094087  0  0.963375  0  0  0.104205  0  1.02839  0  0  0.106564  0  1.027775  0  0  0.102344  0.10246  0  1.028945  0
H  H23  1  0.25251178  0.37894379  0.60158555  1  0  0.094035  0  0.963324  0  0  0.104189  0  1.028326  0  0  0.106549  0  1.027709  0  0  0.102355  0.10244  0  1.028891  0
H  H24  1  0.74402062  0.72774633  0.56523282  1  0  0.094962  0  0.96351  0  0  0.104361  0  1.030322  0  0  0.10676  0  1.030102  0  0  0.101243  0.102631  0  1.030571  0
H  H25  1  0.24403048  0.27225388  0.43476257  1  0  0.095008  0  0.963408  0  0  0.104383  0  1.030253  0  0  0.106782  0  1.030034  0  0  0.101251  0.102656  0  1.0305  0
H  H26  1  0.53585432  0.90747396  0.34590055  1  0  0.099095  0  0.942484  0  0  0.111596  0  0.999106  0  0  0.114902  0  0.997173  0  0  0.106118  0.109213  0  1.000585  0
H  H27  1  0.03585128  0.09253546  0.65409633  1  0  0.099132  0  0.942435  0  0  0.111655  0  0.999016  0  0  0.114964  0  0.997076  0  0  0.106117  0.10927  0  1.000499  0
H  H28  1  0.42278225  0.07389308  0.46903268  1  0  0.084938  0  0.991691  0  0  0.096321  0  1.050772  0  0  0.097728  0  1.052678  0  0  0.096867  0.095293  0  1.049564  0
H  H29  1  0.92277632  0.92611372  0.53096335  1  0  0.085045  0  0.991648  0  0  0.096344  0  1.050809  0  0  0.097752  0  1.052716  0  0  0.096881  0.095313  0  1.049604  0
H  H30  1  0.47248976  0.07164796  0.64071052  1  0  0.101394  0  0.947376  0  0  0.11149  0  1.009967  0  0  0.114113  0  1.009422  0  0  0.105134  0.10962  0  1.010389  0
H  H31  1  0.97249425  0.92835045  0.35928600  1  0  0.101369  0  0.947311  0  0  0.111547  0  1.009827  0  0  0.11417  0  1.009283  0  0  0.10515  0.109678  0  1.010245  0
H  H32  1  0.59199273  0.99400527  0.76162832  1  0  0.102121  0  0.965384  0  0  0.110686  0  1.03192  0  0  0.113988  0  1.02888  0  0  0.105174  0.108235  0  1.03424  0
H  H33  1  0.09200440  0.00598272  0.23836858  1  0  0.102134  0  0.965312  0  0  0.110656  0  1.031894  0  0  0.113957  0  1.028856  0  0  0.105149  0.108206  0  1.034208  0
H  H34  1  0.82391336  0.76578854  0.72258187  1  0  0.114416  0  0.956331  0  0  0.124418  0  1.017034  0  0  0.127994  0  1.016617  0  0  0.101984  0.121895  0  1.017456  0
H  H35  1  0.32391663  0.23420704  0.27741333  1  0  0.114484  0  0.956487  0  0  0.12446  0  1.017206  0  0  0.128043  0  1.01678  0  0  0.102008  0.121939  0  1.017626  0
H  H36  1  0.11739115  0.80749273  0.11737895  1  0  0.424745  0  0.878155  0  0  0.394132  0  0.941475  0  0  0.404206  0  0.926965  0  0  0.2898  0.387024  0  0.9517  0
H  H37  1  0.61739077  0.19250732  0.88262198  1  0  0.424789  0  0.878105  0  0  0.394172  0  0.941434  0  0  0.404246  0  0.926922  0  0  0.28982  0.387065  0  0.951658  0
H  H38  1  0.92917774  0.76063648  0.11636233  1  0  0.42881  0  0.875161  0  0  0.396883  0  0.939889  0  0  0.408363  0  0.923414  0  0  0.284355  0.38873  0  0.951565  0
H  H39  1  0.42917623  0.23936186  0.88363671  1  0  0.428777  0  0.875185  0  0  0.396837  0  0.939923  0  0  0.408317  0  0.92345  0  0  0.284363  0.388686  0  0.951597  0
H  H40  1  0.12308367  0.07491232  0.88180687  1  0  0.430082  0  0.87062  0  0  0.398499  0  0.935366  0  0  0.40903  0  0.920061  0  0  0.2935  0.391049  0  0.946171  0
H  H41  1  0.62308737  0.92508492  0.11819438  1  0  0.430086  0  0.870626  0  0  0.398516  0  0.935343  0  0  0.409046  0  0.920047  0  0  0.293517  0.391066  0  0.946147  0
H  H42  1  0.96449147  0.16871706  0.90178003  1  0  0.431898  0  0.871108  0  0  0.398726  0  0.937655  0  0  0.409717  0  0.921763  0  0  0.291464  0.390992  0  0.94881  0
H  H43  1  0.46449518  0.83128120  0.09822344  1  0  0.431908  0  0.871092  0  0  0.398734  0  0.937644  0  0  0.409727  0  0.921749  0  0  0.291479  0.390999  0  0.9488  0
H  H44  1  0.20179366  0.40367673  0.04331577  1  0  0.431588  0  0.862403  0  0  0.398691  0  0.929191  0  0  0.409729  0  0.913169  0  0  0.294958  0.390831  0  0.940589  0
H  H45  1  0.70179511  0.59631864  0.95668709  1  0  0.431633  0  0.8623  0  0  0.3987  0  0.929186  0  0  0.409742  0  0.913157  0  0  0.294946  0.390838  0  0.940587  0
H  H46  1  0.13148444  0.26570858  0.00607917  1  0  0.435056  0  0.859126  0  0  0.404629  0  0.921734  0  0  0.415806  0  0.905473  0  0  0.29198  0.396627  0  0.933377  0
H  H47  1  0.63148383  0.73428406  0.99391935  1  0  0.434997  0  0.859229  0  0  0.404571  0  0.921837  0  0  0.415749  0  0.905575  0  0  0.291952  0.396571  0  0.933477  0
H  H48  1  0.51319459  0.29768475  0.09390935  1  0  0.437969  0  0.863372  0  0  0.406396  0  0.927653  0  0  0.417204  0  0.911857  0  0  0.291409  0.398738  0  0.938834  0
H  H49  1  0.01319011  0.70230776  0.90609265  1  0  0.438115  0  0.863161  0  0  0.406457  0  0.927612  0  0  0.417265  0  0.911815  0  0  0.291367  0.398789  0  0.938801  0
H  H50  1  0.48664237  0.43650730  0.07328129  1  0  0.431168  0  0.869918  0  0  0.399447  0  0.933368  0  0  0.410083  0  0.917911  0  0  0.289985  0.391915  0  0.944305  0
H  H51  1  0.98663588  0.56348815  0.92672330  1  0  0.431114  0  0.869985  0  0  0.399377  0  0.93346  0  0  0.410015  0  0.918001  0  0  0.289927  0.39184  0  0.944405  0
C  C52  1  0.76567232  0.14516471  0.18156655  1  0  0.704794  0  3.899241  0  0  0.654014  0  4.187819  0  0  0.690719  0  4.180812  0  0  0.200981  0.629045  0  4.191652  0
C  C53  1  0.26567458  0.85483720  0.81843695  1  0  0.704882  0  3.899403  0  0  0.65406  0  4.18802  0  0  0.690763  0  4.181015  0  0  0.201074  0.62909  0  4.191853  0
C  C54  1  0.70552167  0.23788527  0.26145178  1  0  -0.241547  0  3.687035  0  0  -0.257279  0  3.943681  0  0  -0.269041  0  3.959182  0  0  -0.105169  -0.249568  0  3.933354  0
C  C55  1  0.20551765  0.76211943  0.73855105  1  0  -0.241754  0  3.687118  0  0  -0.25738  0  3.943761  0  0  -0.269144  0  3.95926  0  0  -0.10525  -0.249667  0  3.933431  0
C  C56  1  0.68758935  0.21052859  0.34938012  1  0  -0.03511  0  3.725206  0  0  -0.058895  0  3.971808  0  0  -0.055037  0  3.990594  0  0  -0.074077  -0.061372  0  3.959121  0
C  C57  1  0.18758240  0.78947703  0.65062274  1  0  -0.035194  0  3.725308  0  0  -0.059032  0  3.971941  0  0  -0.055151  0  3.990737  0  0  -0.074139  -0.061508  0  3.959253  0
C  C58  1  0.64472582  0.30077691  0.43370565  1  0  0.075639  0  3.833587  0  0  0.097591  0  4.063411  0  0  0.096056  0  4.087265  0  0  -0.011982  0.098506  0  4.047197  0
C  C59  1  0.14472242  0.69922963  0.56629709  1  0  0.075767  0  3.833331  0  0  0.097577  0  4.063386  0  0  0.096041  0  4.087231  0  0  -0.012021  0.098493  0  4.047172  0
C  C60  1  0.69326068  0.27668729  0.52323291  1  0  -0.148148  0  3.682186  0  0  -0.173013  0  3.919883  0  0  -0.175718  0  3.942045  0  0  -0.08198  -0.170969  0  3.904868  0
C  C61  1  0.19325556  0.72331745  0.47676775  1  0  -0.148228  0  3.681935  0  0  -0.173029  0  3.919721  0  0  -0.175728  0  3.941884  0  0  -0.081961  -0.170986  0  3.904702  0
C  C62  1  0.56120582  0.41293696  0.42930301  1  0  -0.096171  0  3.692164  0  0  -0.117985  0  3.939128  0  0  -0.118878  0  3.958361  0  0  -0.079972  -0.117127  0  3.925981  0
C  C63  1  0.06119900  0.58707056  0.57069586  1  0  -0.096039  0  3.692068  0  0  -0.117822  0  3.939066  0  0  -0.118699  0  3.958306  0  0  -0.079947  -0.116969  0  3.925912  0
C  C64  1  0.53203551  0.49863536  0.51234004  1  0  -0.073264  0  3.787963  0  0  -0.085668  0  4.043516  0  0  -0.088826  0  4.065946  0  0  -0.089971  -0.083575  0  4.028248  0
C  C65  1  0.03203475  0.50136841  0.48765950  1  0  -0.073262  0  3.788  0  0  -0.08571  0  4.043528  0  0  -0.088868  0  4.065952  0  0  -0.089914  -0.083615  0  4.028264  0
C  C66  1  0.58789070  0.47628601  0.60039365  1  0  -0.08859  0  3.680587  0  0  -0.11203  0  3.92703  0  0  -0.112463  0  3.945855  0  0  -0.07966  -0.111552  0  3.914197  0
C  C67  1  0.08788949  0.52372050  0.39960944  1  0  -0.088555  0  3.680666  0  0  -0.111996  0  3.927121  0  0  -0.112428  0  3.945948  0  0  -0.079649  -0.111521  0  3.914287  0
C  C68  1  0.66938563  0.36390616  0.60686503  1  0  0.070633  0  3.828419  0  0  0.093509  0  4.057966  0  0  0.090773  0  4.083267  0  0  -0.010762  0.095221  0  4.040792  0
C  C69  1  0.16939152  0.63609293  0.39313747  1  0  0.070774  0  3.828469  0  0  0.093563  0  4.058143  0  0  0.090825  0  4.083447  0  0  -0.010755  0.095279  0  4.040961  0
C  C70  1  0.72735894  0.33291046  0.69654671  1  0  -0.010865  0  3.713854  0  0  -0.036856  0  3.963279  0  0  -0.031269  0  3.98164  0  0  -0.065352  -0.040397  0  3.950776  0
C  C71  1  0.22735441  0.66708682  0.30345448  1  0  -0.010753  0  3.713766  0  0  -0.036702  0  3.96319  0  0  -0.031119  0  3.98156  0  0  -0.065281  -0.040243  0  3.950682  0
C  C72  1  0.75096132  0.41288225  0.77886819  1  0  -0.255196  0  3.677994  0  0  -0.27042  0  3.935336  0  0  -0.284076  0  3.953032  0  0  -0.105755  -0.261454  0  3.923401  0
C  C73  1  0.25095912  0.58711318  0.22113287  1  0  -0.255322  0  3.678155  0  0  -0.270565  0  3.935493  0  0  -0.284221  0  3.953191  0  0  -0.105804  -0.261599  0  3.923554  0
C  C74  1  0.80429911  0.36941839  0.86626980  1  0  0.707457  0  3.881599  0  0  0.655568  0  4.169621  0  0  0.69159  0  4.161451  0  0  0.213709  0.631183  0  4.174291  0
C  C75  1  0.30429891  0.63057896  0.13372976  1  0  0.707276  0  3.882143  0  0  0.655442  0  4.170073  0  0  0.691463  0  4.161911  0  0  0.213619  0.63106  0  4.174735  0
C  C76  1  0.80595820  0.61276636  0.21180566  1  0  0.670822  0  3.941607  0  0  0.626562  0  4.224962  0  0  0.661625  0  4.220123  0  0  0.189524  0.602867  0  4.22716  0
C  C77  1  0.30595337  0.38723194  0.78819264  1  0  0.670779  0  3.94183  0  0  0.626551  0  4.225149  0  0  0.661615  0  4.220308  0  0  0.189565  0.602856  0  4.227347  0
C  C78  1  0.74768250  0.71808347  0.28386004  1  0  -0.232191  0  3.660254  0  0  -0.245959  0  3.912462  0  0  -0.258352  0  3.929578  0  0  -0.101308  -0.237847  0  3.900909  0
C  C79  1  0.24768397  0.28191761  0.71613831  1  0  -0.232085  0  3.660296  0  0  -0.24588  0  3.912476  0  0  -0.258266  0  3.929601  0  0  -0.101266  -0.237746  0  3.900932  0
C  C80  1  0.71966692  0.70846925  0.37567381  1  0  -0.03407  0  3.711027  0  0  -0.057148  0  3.956909  0  0  -0.053314  0  3.97638  0  0  -0.069774  -0.059441  0  3.943572  0
C  C81  1  0.21967781  0.29152907  0.62432256  1  0  -0.034036  0  3.710997  0  0  -0.057152  0  3.956922  0  0  -0.053315  0  3.97639  0  0  -0.069818  -0.059443  0  3.943574  0
C  C82  1  0.64927044  0.80635038  0.44767262  1  0  0.075517  0  3.817512  0  0  0.095974  0  4.049362  0  0  0.094603  0  4.073204  0  0  -0.008885  0.096787  0  4.033092  0
C  C83  1  0.14927025  0.19365353  0.55232273  1  0  0.075475  0  3.817509  0  0  0.095883  0  4.049444  0  0  0.09451  0  4.073287  0  0  -0.008936  0.096697  0  4.033175  0
C  C84  1  0.67302929  0.80427979  0.54514109  1  0  -0.145841  0  3.655792  0  0  -0.166814  0  3.890457  0  0  -0.168507  0  3.9098  0  0  -0.078721  -0.165451  0  3.877269  0
C  C85  1  0.17303348  0.19571757  0.45485556  1  0  -0.145992  0  3.656009  0  0  -0.166961  0  3.890638  0  0  -0.168655  0  3.90998  0  0  -0.078794  -0.165599  0  3.877455  0
C  C86  1  0.55811491  0.90527709  0.42113244  1  0  -0.101131  0  3.700845  0  0  -0.121411  0  3.947153  0  0  -0.123113  0  3.966589  0  0  -0.079409  -0.12007  0  3.933878  0
C  C87  1  0.05811790  0.09472400  0.57886196  1  0  -0.10115  0  3.701017  0  0  -0.121428  0  3.947293  0  0  -0.12313  0  3.966729  0  0  -0.07936  -0.120085  0  3.934013  0
C  C88  1  0.49395862  0.99871171  0.49027451  1  0  -0.069548  0  3.802144  0  0  -0.082812  0  4.054706  0  0  -0.085082  0  4.077135  0  0  -0.092093  -0.081313  0  4.039474  0
C  C89  1  0.99394543  0.00129418  0.50972182  1  0  -0.069466  0  3.802327  0  0  -0.082693  0  4.054939  0  0  -0.084964  0  4.07737  0  0  -0.092047  -0.081188  0  4.0397  0
C  C90  1  0.52113643  0.99709837  0.58671359  1  0  -0.098676  0  3.68963  0  0  -0.119332  0  3.937764  0  0  -0.121188  0  3.958236  0  0  -0.079351  -0.117875  0  3.923793  0
C  C91  1  0.02113526  0.00290728  0.41328476  1  0  -0.098657  0  3.68953  0  0  -0.119408  0  3.937612  0  0  -0.121265  0  3.958085  0  0  -0.079333  -0.117948  0  3.923638  0
C  C92  1  0.61328778  0.90068545  0.61585351  1  0  0.077128  0  3.811461  0  0  0.097529  0  4.043014  0  0  0.095576  0  4.067729  0  0  -0.009806  0.098737  0  4.026168  0
C  C93  1  0.11329084  0.09931654  0.38414346  1  0  0.077044  0  3.811741  0  0  0.097551  0  4.043141  0  0  0.095602  0  4.067853  0  0  -0.009891  0.098751  0  4.026308  0
C  C94  1  0.65020790  0.91341633  0.71745723  1  0  -0.026784  0  3.697912  0  0  -0.051178  0  3.943513  0  0  -0.046405  0  3.961842  0  0  -0.069553  -0.054163  0  3.931039  0
C  C95  1  0.15021651  0.08658005  0.28254125  1  0  -0.026766  0  3.697733  0  0  -0.05117  0  3.943337  0  0  -0.046398  0  3.961673  0  0  -0.069503  -0.054151  0  3.930858  0
C  C96  1  0.75549207  0.84506308  0.76109815  1  0  -0.236123  0  3.656863  0  0  -0.247769  0  3.910182  0  0  -0.260845  0  3.927318  0  0  -0.101723  -0.239179  0  3.898618  0
C  C97  1  0.25549973  0.15493802  0.23889955  1  0  -0.23618  0  3.656761  0  0  -0.247798  0  3.910081  0  0  -0.260882  0  3.927217  0  0  -0.101712  -0.239205  0  3.898511  0
C  C98  1  0.80394389  0.88550224  0.86161774  1  0  0.7045  0  3.887444  0  0  0.653289  0  4.173464  0  0  0.690714  0  4.165875  0  0  0.202149  0.627855  0  4.177666  0
C  C99  1  0.30394851  0.11449238  0.13837860  1  0  0.704496  0  3.887536  0  0  0.653271  0  4.173592  0  0  0.690696  0  4.166005  0  0  0.202114  0.627837  0  4.177793  0
O  O100  1  0.81391874  0.25415547  0.86924205  1  0  -0.650682  0  2.005404  0  0  -0.58555  0  2.223998  0  0  -0.610384  0  2.211395  0  0  -0.31342  -0.568313  0  2.232213  0
O  O101  1  0.31392942  0.74584082  0.13076302  1  0  -0.650564  0  2.005595  0  0  -0.585456  0  2.224176  0  0  -0.610279  0  2.211546  0  0  -0.313331  -0.568218  0  2.232386  0
O  O102  1  0.83578846  0.45495614  0.93953034  1  0  -0.70105  0  2.093674  0  0  -0.612076  0  2.327925  0  0  -0.644097  0  2.314405  0  0  -0.318662  -0.58959  0  2.336479  0
O  O103  1  0.33579078  0.54504391  0.06047401  1  0  -0.700895  0  2.093748  0  0  -0.611975  0  2.327987  0  0  -0.643985  0  2.314456  0  0  -0.318621  -0.589494  0  2.336539  0
O  O104  1  0.75715664  0.02933342  0.18268026  1  0  -0.654287  0  1.970941  0  0  -0.58934  0  2.20279  0  0  -0.61797  0  2.192599  0  0  -0.321219  -0.569248  0  2.209136  0
O  O105  1  0.25715741  0.97067035  0.81732346  1  0  -0.654297  0  1.970967  0  0  -0.589327  0  2.202855  0  0  -0.617957  0  2.19266  0  0  -0.321239  -0.569233  0  2.209199  0
O  O106  1  0.83727157  0.18506618  0.11088916  1  0  -0.695859  0  2.021819  0  0  -0.606869  0  2.280899  0  0  -0.643041  0  2.268752  0  0  -0.331919  -0.581288  0  2.288267  0
O  O107  1  0.33727896  0.81493581  0.88911197  1  0  -0.695744  0  2.021885  0  0  -0.606758  0  2.280981  0  0  -0.642931  0  2.268838  0  0  -0.33186  -0.581179  0  2.288349  0
O  O108  1  0.00085349  0.83633378  0.11955376  1  0  -0.862792  0  1.901423  0  0  -0.798473  0  2.104415  0  0  -0.822767  0  2.069915  0  0  -0.595078  -0.781224  0  2.128348  0
O  O109  1  0.50085312  0.16366346  0.88044534  1  0  -0.862773  0  1.90139  0  0  -0.798448  0  2.104435  0  0  -0.82274  0  2.069938  0  0  -0.59508  -0.781199  0  2.128363  0
O  O110  1  0.05711793  0.12835488  0.93198164  1  0  -0.86346  0  1.908714  0  0  -0.796415  0  2.099201  0  0  -0.821246  0  2.066347  0  0  -0.572869  -0.778729  0  2.121941  0
O  O111  1  0.55711832  0.87164233  0.06801991  1  0  -0.863477  0  1.908686  0  0  -0.79642  0  2.099156  0  0  -0.821257  0  2.066292  0  0  -0.572904  -0.778736  0  2.121898  0
O  O112  1  0.12875540  0.33773715  0.05953018  1  0  -0.84179  0  1.871774  0  0  -0.777776  0  2.071105  0  0  -0.80132  0  2.035241  0  0  -0.583075  -0.761101  0  2.096179  0
O  O113  1  0.62875145  0.66225818  0.94047293  1  0  -0.841752  0  1.871716  0  0  -0.777727  0  2.07107  0  0  -0.801276  0  2.0352  0  0  -0.58304  -0.761054  0  2.096148  0
O  O114  1  0.57067948  0.37310780  0.08081373  1  0  -0.875052  0  1.858012  0  0  -0.811507  0  2.06143  0  0  -0.833935  0  2.026466  0  0  -0.605434  -0.795611  0  2.085763  0
O  O115  1  0.07067415  0.62689111  0.91919517  1  0  -0.875123  0  1.857827  0  0  -0.811515  0  2.061238  0  0  -0.833948  0  2.026281  0  0  -0.605328  -0.795603  0  2.085594  0
O  O116  1  0.82761820  0.50564522  0.23488943  1  0  -0.662695  0  1.99865  0  0  -0.594416  0  2.241653  0  0  -0.626146  0  2.233837  0  0  -0.326119  -0.572112  0  2.246167  0
O  O117  1  0.32760901  0.49435763  0.76511458  1  0  -0.662713  0  1.99873  0  0  -0.59444  0  2.241706  0  0  -0.626171  0  2.233896  0  0  -0.326128  -0.57213  0  2.24622  0
O  O118  1  0.82808334  0.63074396  0.12603828  1  0  -0.66801  0  1.955672  0  0  -0.602031  0  2.177699  0  0  -0.630048  0  2.166556  0  0  -0.330936  -0.582278  0  2.18466  0
O  O119  1  0.32806775  0.36925529  0.87396029  1  0  -0.667988  0  1.955814  0  0  -0.602002  0  2.17779  0  0  -0.630017  0  2.166644  0  0  -0.330966  -0.582246  0  2.18475  0
O  O120  1  0.93792890  0.84234671  0.89151380  1  0  -0.666121  0  2.035943  0  0  -0.588225  0  2.266929  0  0  -0.619695  0  2.256886  0  0  -0.311392  -0.566026  0  2.272957  0
O  O121  1  0.43794032  0.15764420  0.10848422  1  0  -0.666049  0  2.036049  0  0  -0.588218  0  2.267077  0  0  -0.619692  0  2.257041  0  0  -0.311396  -0.566022  0  2.273098  0
O  O122  1  0.72370083  0.97040628  0.91727802  1  0  -0.693532  0  2.059153  0  0  -0.609851  0  2.317636  0  0  -0.643864  0  2.305154  0  0  -0.332762  -0.585853  0  2.325248  0
O  O123  1  0.22370706  0.02958548  0.08271953  1  0  -0.693542  0  2.059196  0  0  -0.609853  0  2.317683  0  0  -0.643863  0  2.305199  0  0  -0.332727  -0.58587  0  2.325333  0
