# generated using pymatgen
data_CoCuH8C12(N2O)4
_symmetry_space_group_name_H-M   'P 1'
_cell_length_a   9.28428579
_cell_length_b   9.28422051
_cell_length_c   10.42343826
_cell_angle_alpha   100.58587388
_cell_angle_beta   100.58596389
_cell_angle_gamma   92.65502206
_symmetry_Int_Tables_number   1
_chemical_formula_structural   CoCuH8C12(N2O)4
_chemical_formula_sum   'Co2 Cu2 H16 C24 N16 O8'
_cell_volume   865.16401400
_cell_formula_units_Z   2
loop_
 _symmetry_equiv_pos_site_id
 _symmetry_equiv_pos_as_xyz
  1  'x, y, z'
loop_
 _atom_site_type_symbol
 _atom_site_label
 _atom_site_symmetry_multiplicity
 _atom_site_fract_x
 _atom_site_fract_y
 _atom_site_fract_z
 _atom_site_occupancy
 _atom_site_pbe_bader_charge
 _atom_site_pbe_bader_spin_density
 _atom_site_pbe_cm5_charge
 _atom_site_pbe_ddec_charge
 _atom_site_pbe_ddec_spin_density
 _atom_site_pbe_ddec_sum_bond_order
 _atom_site_pbe_magmom
Co  Co0  1  0.14849834  0.85150824  0.75001297  1  1.26516  2.554024  0.69702  0.820057  2.985747  2.703608  2.536
Co  Co1  1  0.85150232  0.14849785  0.25000310  1  1.26455  2.553813  0.69736  0.819918  2.985537  2.70494  2.536
Cu  Cu2  1  0.00003329  0.00000274  0.00004793  1  1.060323  0.476162  0.71834  0.8558  0.509239  2.202016  0.476
Cu  Cu3  1  0.99998401  0.99999987  0.49995866  1  1.060472  0.476169  0.71825  0.855554  0.509246  2.202138  0.476
H  H4  1  0.93988789  0.40741718  0.89923627  1  0.130747  0.001168  0.108805  0.113933  0.000702  1.034805  0.001
H  H5  1  0.59259450  0.06010179  0.60076044  1  0.130546  0.001168  0.108803  0.114008  0.000702  1.03473  0.001
H  H6  1  0.06010839  0.59259405  0.10077609  1  0.130823  0.001168  0.108785  0.114012  0.000702  1.034812  0.001
H  H7  1  0.40741891  0.93989506  0.39920726  1  0.130184  0.001168  0.108841  0.114068  0.000702  1.035017  0.001
H  H8  1  0.97230042  0.66585971  0.86569090  1  0.14965  0.001597  0.118761  0.095416  0.000481  1.038916  0.001
H  H9  1  0.33415254  0.02769584  0.63430668  1  0.150051  0.001597  0.118718  0.09541  0.000481  1.038867  0.001
H  H10  1  0.02768939  0.33417071  0.13431580  1  0.150189  0.001598  0.11864  0.095316  0.000482  1.038977  0.001
H  H11  1  0.66583466  0.97231445  0.36566475  1  0.150087  0.001599  0.118704  0.095376  0.000482  1.038866  0.001
H  H12  1  0.28626453  0.55832483  0.63578725  1  0.107594  0.001946  0.117472  0.083907  0.000732  1.00986  0.001
H  H13  1  0.44167532  0.71372283  0.86421209  1  0.107511  0.001946  0.117457  0.083892  0.000732  1.009787  0.001
H  H14  1  0.71370481  0.44164586  0.36418562  1  0.107293  0.001946  0.117484  0.083874  0.000733  1.010051  0.001
H  H15  1  0.55835827  0.28629434  0.13579273  1  0.107181  0.001947  0.117521  0.083876  0.000733  1.010035  0.001
H  H16  1  0.26959252  0.29660735  0.66443898  1  0.10454  0.000971  0.116672  0.132417  0.000414  0.9846  0.0
H  H17  1  0.70339408  0.73038967  0.83556579  1  0.104995  0.00097  0.116699  0.13258  0.000413  0.98448  0.0
H  H18  1  0.73034742  0.70336904  0.33555988  1  0.104721  0.000971  0.116722  0.132577  0.000413  0.984558  0.0
H  H19  1  0.29664069  0.26965808  0.16441529  1  0.104581  0.000972  0.116758  0.132809  0.000414  0.984423  0.0
C  C20  1  0.09836243  0.18173849  0.81991105  1  1.573931  -0.003463  0.224006  0.599449  -0.004547  4.135965  -0.003
C  C21  1  0.81826936  0.90162581  0.68009754  1  1.573859  -0.003462  0.224028  0.599554  -0.004546  4.136059  -0.003
C  C22  1  0.90159638  0.81825469  0.18010017  1  1.573484  -0.003463  0.224021  0.599569  -0.004548  4.135553  -0.003
C  C23  1  0.18173758  0.09838697  0.31986782  1  1.573862  -0.003465  0.224306  0.599842  -0.004547  4.135221  -0.003
C  C24  1  0.10762137  0.33375433  0.78989822  1  -0.040849  0.003846  0.001575  0.011391  0.000748  3.934755  0.004
C  C25  1  0.66625898  0.89236180  0.71010355  1  -0.040592  0.003852  0.001664  0.011322  0.000754  3.934786  0.004
C  C26  1  0.89234629  0.66625149  0.21010778  1  -0.040235  0.003859  0.001574  0.011048  0.000758  3.934536  0.004
C  C27  1  0.33375449  0.10764597  0.28986013  1  -0.040152  0.003857  0.001576  0.011295  0.000755  3.934065  0.004
C  C28  1  0.01995369  0.43806530  0.84287374  1  0.056522  0.005198  -0.07517  -0.126527  0.002968  3.942271  0.004
C  C29  1  0.56194227  0.98003501  0.65712874  1  0.056693  0.005198  -0.07522  -0.126586  0.002968  3.94244  0.004
C  C30  1  0.98002949  0.56195483  0.15713891  1  0.056457  0.005202  -0.075171  -0.126453  0.00297  3.942206  0.004
C  C31  1  0.43804927  0.01996794  0.34284317  1  0.057267  0.005202  -0.075222  -0.126524  0.00297  3.942406  0.004
C  C32  1  0.03607758  0.58091079  0.82282341  1  0.404972  -0.003764  0.043635  0.093668  -0.004521  3.918443  -0.002
C  C33  1  0.41909768  0.96391749  0.67717816  1  0.404774  -0.003758  0.043676  0.093667  -0.004515  3.918597  -0.002
C  C34  1  0.96390884  0.41910843  0.17718193  1  0.404571  -0.003764  0.043736  0.093793  -0.004521  3.918519  -0.002
C  C35  1  0.58089069  0.03609622  0.32279975  1  0.404083  -0.003767  0.043802  0.093831  -0.004526  3.918458  -0.002
C  C36  1  0.21200506  0.52131523  0.69511954  1  0.447901  -0.003655  0.045177  0.087131  -0.004835  3.937781  -0.002
C  C37  1  0.47868427  0.78798902  0.80488168  1  0.447779  -0.003655  0.04512  0.087064  -0.004835  3.937397  -0.002
C  C38  1  0.78796573  0.47868524  0.30486979  1  0.448409  -0.00365  0.045118  0.087072  -0.004827  3.93811  -0.002
C  C39  1  0.52131966  0.21203794  0.19510848  1  0.448477  -0.00365  0.045221  0.087522  -0.004831  3.937884  -0.002
C  C40  1  0.20270805  0.37579204  0.71115453  1  -0.009179  0.005837  -0.073155  -0.127252  0.003085  3.916281  0.005
C  C41  1  0.62421282  0.79727788  0.78884545  1  -0.009988  0.005838  -0.073091  -0.127284  0.003085  3.915995  0.005
C  C42  1  0.79724630  0.62420400  0.28884301  1  -0.01021  0.005843  -0.073202  -0.127283  0.003088  3.916336  0.005
C  C43  1  0.37579871  0.20275064  0.21113081  1  -0.010313  0.005844  -0.073379  -0.128033  0.003089  3.916194  0.005
N  N44  1  0.18037847  0.90369957  0.95220059  1  -0.311784  0.102482  -0.347028  -0.569259  0.063639  3.286982  0.089
N  N45  1  0.09624775  0.81968655  0.54785398  1  -0.313539  0.102562  -0.346899  -0.568723  0.06368  3.287784  0.089
N  N46  1  0.81970687  0.09619763  0.04796131  1  -0.31475  0.102631  -0.347134  -0.568677  0.063724  3.288862  0.089
N  N47  1  0.90374572  0.18032607  0.45206892  1  -0.315287  0.102615  -0.34717  -0.568928  0.063708  3.288161  0.089
N  N48  1  0.24762172  0.82762636  0.02207982  1  -0.336461  0.013953  0.095176  0.426009  -0.00294  4.424543  -0.005
N  N49  1  0.17231931  0.75244296  0.47797159  1  -0.333087  0.013928  0.094327  0.424851  -0.002926  4.425344  -0.005
N  N50  1  0.75246809  0.17227883  0.97808502  1  -0.330808  0.013952  0.094331  0.425003  -0.002888  4.425867  -0.005
N  N51  1  0.82766656  0.24758114  0.52195097  1  -0.331733  0.013963  0.094511  0.42495  -0.002879  4.425297  -0.005
N  N52  1  0.31299877  0.75375103  0.08658534  1  0.069741  0.176673  -0.147186  -0.30448  0.095124  2.508267  0.127
N  N53  1  0.24619428  0.68706999  0.41347258  1  0.068451  0.176698  -0.14648  -0.303604  0.095121  2.508409  0.127
N  N54  1  0.68711521  0.24615485  0.91358248  1  0.067996  0.176855  -0.146376  -0.303703  0.095194  2.508855  0.127
N  N55  1  0.75380247  0.31294395  0.58644914  1  0.069079  0.176732  -0.146393  -0.303428  0.095136  2.508796  0.127
N  N56  1  0.13271543  0.62397908  0.75238794  1  -1.21702  0.064416  -0.322761  -0.247131  0.037063  3.572675  0.058
N  N57  1  0.37602630  0.86728186  0.74761355  1  -1.216947  0.064413  -0.322783  -0.247136  0.037062  3.572589  0.058
N  N58  1  0.86727194  0.37603572  0.24760150  1  -1.217313  0.06447  -0.322708  -0.247105  0.037095  3.572663  0.058
N  N59  1  0.62396660  0.13273556  0.25237910  1  -1.216632  0.06447  -0.322916  -0.247383  0.037098  3.572695  0.058
O  O60  1  0.04311043  0.17111732  0.92161962  1  -1.127792  0.064503  -0.315953  -0.540788  0.034445  2.408024  0.059
O  O61  1  0.82888203  0.95687963  0.57838882  1  -1.127446  0.064555  -0.315968  -0.540734  0.034473  2.408086  0.059
O  O62  1  0.95684836  0.82887365  0.07839029  1  -1.127298  0.064605  -0.315902  -0.540693  0.034499  2.408414  0.059
O  O63  1  0.17110966  0.04314628  0.42157812  1  -1.127169  0.064563  -0.316028  -0.540819  0.034475  2.408459  0.059
O  O64  1  0.14450701  0.07977455  0.74318718  1  -1.165491  0.052988  -0.297765  -0.566022  0.029839  2.459231  0.048
O  O65  1  0.92023551  0.85549703  0.75682828  1  -1.165847  0.053006  -0.297774  -0.566097  0.029844  2.459258  0.048
O  O66  1  0.85545949  0.92020180  0.25684371  1  -1.165623  0.053011  -0.297737  -0.565974  0.029848  2.458682  0.048
O  O67  1  0.07979334  0.14452273  0.24312439  1  -1.165964  0.052999  -0.297826  -0.566203  0.02984  2.458783  0.048
