# generated using pymatgen
data_CuH12C12S2IN2
_symmetry_space_group_name_H-M   'P 1'
_cell_length_a   8.17356192
_cell_length_b   8.53744434
_cell_length_c   11.81917886
_cell_angle_alpha   102.66169020
_cell_angle_beta   95.14948470
_cell_angle_gamma   117.03603793
_symmetry_Int_Tables_number   1
_chemical_formula_structural   CuH12C12S2IN2
_chemical_formula_sum   'Cu2 H24 C24 S4 I2 N4'
_cell_volume   699.53696309
_cell_formula_units_Z   2
loop_
 _symmetry_equiv_pos_site_id
 _symmetry_equiv_pos_as_xyz
  1  'x, y, z'
loop_
 _atom_site_type_symbol
 _atom_site_label
 _atom_site_symmetry_multiplicity
 _atom_site_fract_x
 _atom_site_fract_y
 _atom_site_fract_z
 _atom_site_occupancy
 _atom_site_hle17_bader_spin_density
 _atom_site_hle17_ddec_charge
 _atom_site_hle17_ddec_spin_density
 _atom_site_hle17_ddec_sum_bond_order
 _atom_site_hle17_magmom
 _atom_site_hse06_10hf_bader_spin_density
 _atom_site_hse06_10hf_ddec_charge
 _atom_site_hse06_10hf_ddec_spin_density
 _atom_site_hse06_10hf_ddec_sum_bond_order
 _atom_site_hse06_10hf_magmom
 _atom_site_hse06_bader_spin_density
 _atom_site_hse06_ddec_charge
 _atom_site_hse06_ddec_spin_density
 _atom_site_hse06_ddec_sum_bond_order
 _atom_site_hse06_magmom
 _atom_site_pbe_bader_spin_density
 _atom_site_pbe_cm5_charge
 _atom_site_pbe_ddec_charge
 _atom_site_pbe_ddec_spin_density
 _atom_site_pbe_ddec_sum_bond_order
 _atom_site_pbe_magmom
Cu  Cu0  1  0.05360874  0.54197365  0.90718843  1  0  0.270593  0  2.190525  0  0  0.176906  0  2.680608  0  0  0.181718  0  2.631895  0  0  0.342287  0.177803  0  2.710323  0
Cu  Cu1  1  0.94638902  0.45802823  0.09281246  1  0  0.270571  0  2.19057  0  0  0.176887  0  2.680653  0  0  0.18178  0  2.631865  0  0  0.342282  0.177779  0  2.710382  0
H  H2  1  0.07692859  0.88393321  0.87589951  1  0  0.066177  0  0.973827  0  0  0.071725  0  1.048291  0  0  0.074744  0  1.045368  0  0  0.096083  0.069567  0  1.050298  0
H  H3  1  0.92307268  0.11606589  0.12410204  1  0  0.066154  0  0.973867  0  0  0.071702  0  1.048329  0  0  0.074715  0  1.045414  0  0  0.096067  0.069547  0  1.050342  0
H  H4  1  0.30104776  0.15486724  0.81651881  1  0  0.096192  0  0.970586  0  0  0.106332  0  1.03162  0  0  0.109419  0  1.030657  0  0  0.094888  0.10404  0  1.032585  0
H  H5  1  0.69895693  0.84513876  0.18348826  1  0  0.096213  0  0.970556  0  0  0.106339  0  1.031619  0  0  0.109421  0  1.030658  0  0  0.094914  0.104052  0  1.032577  0
H  H6  1  0.61691346  0.18844757  0.79311651  1  0  0.096141  0  0.973719  0  0  0.103484  0  1.04401  0  0  0.10664  0  1.040818  0  0  0.095798  0.10107  0  1.046511  0
H  H7  1  0.38309181  0.81155703  0.20688531  1  0  0.096184  0  0.973778  0  0  0.103524  0  1.044058  0  0  0.10668  0  1.040872  0  0  0.095821  0.101107  0  1.046561  0
H  H8  1  0.45729529  0.69028229  0.89313635  1  0  0.079296  0  0.961442  0  0  0.083872  0  1.035878  0  0  0.087032  0  1.033375  0  0  0.096624  0.081106  0  1.038598  0
H  H9  1  0.54270465  0.30971405  0.10685960  1  0  0.079292  0  0.961488  0  0  0.083851  0  1.035938  0  0  0.087007  0  1.033445  0  0  0.096609  0.081081  0  1.038664  0
H  H10  1  0.79767579  0.90319720  0.88940120  1  0  0.10251  0  0.961158  0  0  0.117183  0  1.027693  0  0  0.118529  0  1.027303  0  0  0.088193  0.115973  0  1.028212  0
H  H11  1  0.20232277  0.09679639  0.11059338  1  0  0.102533  0  0.961185  0  0  0.1172  0  1.027718  0  0  0.118548  0  1.02733  0  0  0.088173  0.115989  0  1.028241  0
H  H12  1  0.85097095  0.09717933  0.83498620  1  0  0.099088  0  0.972096  0  0  0.108425  0  1.046012  0  0  0.110558  0  1.044498  0  0  0.088676  0.106718  0  1.047272  0
H  H13  1  0.14902967  0.90281838  0.16501085  1  0  0.099107  0  0.9721  0  0  0.10846  0  1.046017  0  0  0.110604  0  1.044475  0  0  0.088704  0.106752  0  1.047276  0
H  H14  1  0.34104687  0.52388316  0.50458851  1  0  0.096567  0  0.958116  0  0  0.10822  0  1.026428  0  0  0.109563  0  1.025979  0  0  0.089867  0.107215  0  1.026801  0
H  H15  1  0.65895252  0.47611456  0.49540931  1  0  0.096574  0  0.958072  0  0  0.108192  0  1.026439  0  0  0.109536  0  1.025987  0  0  0.089848  0.107189  0  1.026811  0
H  H16  1  0.31235480  0.66042280  0.63141158  1  0  0.10408  0  0.951149  0  0  0.119153  0  1.010374  0  0  0.119545  0  1.012399  0  0  0.096898  0.118803  0  1.0091  0
H  H17  1  0.68764581  0.33957492  0.36858716  1  0  0.104075  0  0.951169  0  0  0.119168  0  1.010386  0  0  0.119561  0  1.012411  0  0  0.096911  0.118818  0  1.009112  0
H  H18  1  0.12477249  0.81454590  0.60700879  1  0  0.09394  0  0.961033  0  0  0.101956  0  1.0299  0  0  0.104308  0  1.029032  0  0  0.099359  0.100096  0  1.0308  0
H  H19  1  0.87523977  0.18546280  0.39299414  1  0  0.093889  0  0.961066  0  0  0.101928  0  1.02991  0  0  0.104271  0  1.029067  0  0  0.099348  0.100071  0  1.030806  0
H  H20  1  0.89332904  0.83932699  0.46712108  1  0  0.088232  0  0.999723  0  0  0.092497  0  1.072436  0  0  0.09573  0  1.071389  0  0  0.092548  0.090108  0  1.073475  0
H  H21  1  0.10667950  0.16068174  0.53288498  1  0  0.088319  0  0.999729  0  0  0.092579  0  1.072435  0  0  0.095815  0  1.07138  0  0  0.092599  0.090189  0  1.073469  0
H  H22  1  0.85173663  0.71204380  0.24775982  1  0  0.06808  0  0.96526  0  0  0.075467  0  1.034421  0  0  0.079083  0  1.030415  0  0  0.100525  0.072635  0  1.037581  0
H  H23  1  0.14825462  0.28795262  0.75224740  1  0  0.068091  0  0.965186  0  0  0.075477  0  1.034355  0  0  0.079085  0  1.030356  0  0  0.100523  0.072635  0  1.037526  0
H  H24  1  0.24019540  0.53558808  0.29886012  1  0  0.070735  0  0.973654  0  0  0.071401  0  1.055319  0  0  0.075099  0  1.05181  0  0  0.096105  0.068602  0  1.058045  0
H  H25  1  0.75979839  0.46440829  0.70113795  1  0  0.07076  0  0.973709  0  0  0.071443  0  1.055346  0  0  0.075141  0  1.051837  0  0  0.096098  0.068643  0  1.058069  0
C  C26  1  0.21469629  0.90351385  0.86302700  1  0  0.100475  0  3.708867  0  0  0.068851  0  3.963674  0  0  0.075254  0  3.979875  0  0  0.026685  0.064655  0  3.953073  0
C  C27  1  0.78530691  0.09648662  0.13697404  1  0  0.100366  0  3.708815  0  0  0.068739  0  3.963652  0  0  0.075153  0  3.97984  0  0  0.026625  0.064536  0  3.953068  0
C  C28  1  0.33904002  0.05210635  0.82906892  1  0  -0.116961  0  3.77643  0  0  -0.125438  0  4.024144  0  0  -0.132716  0  4.045892  0  0  -0.092313  -0.12082  0  4.009872  0
C  C29  1  0.66096401  0.94789826  0.17093451  1  0  -0.116863  0  3.776255  0  0  -0.125331  0  4.023968  0  0  -0.132604  0  4.045713  0  0  -0.092276  -0.120714  0  4.009696  0
C  C30  1  0.51414948  0.07055624  0.81606244  1  0  -0.058583  0  3.701974  0  0  -0.088325  0  3.953177  0  0  -0.083743  0  3.969645  0  0  -0.074666  -0.091359  0  3.942214  0
C  C31  1  0.48584881  0.92944425  0.18393827  1  0  -0.058642  0  3.70193  0  0  -0.088376  0  3.953136  0  0  -0.083798  0  3.969607  0  0  -0.074697  -0.091405  0  3.94217  0
C  C32  1  0.56006788  0.93940680  0.83826465  1  0  0.057276  0  3.771957  0  0  0.08359  0  4.00424  0  0  0.078778  0  4.028999  0  0  -0.012747  0.086279  0  3.988067  0
C  C33  1  0.43993045  0.06059369  0.16173268  1  0  0.057246  0  3.771935  0  0  0.083528  0  4.004268  0  0  0.078726  0  4.029028  0  0  -0.012744  0.086217  0  3.988093  0
C  C34  1  0.42682754  0.79461254  0.87284471  1  0  0.069103  0  3.640481  0  0  0.0342  0  3.888566  0  0  0.040503  0  3.904132  0  0  0.035716  0.02998  0  3.878784  0
C  C35  1  0.57317256  0.20538656  0.12715167  1  0  0.069164  0  3.640659  0  0  0.0343  0  3.888745  0  0  0.0406  0  3.904317  0  0  0.035748  0.030084  0  3.878962  0
C  C36  1  0.74573193  0.95444869  0.82468844  1  0  -0.183229  0  3.664568  0  0  -0.222086  0  3.908027  0  0  -0.220939  0  3.918354  0  0  -0.154788  -0.222657  0  3.901392  0
C  C37  1  0.25426802  0.04554765  0.17530666  1  0  -0.183255  0  3.664621  0  0  -0.222096  0  3.908022  0  0  -0.220963  0  3.918389  0  0  -0.15478  -0.222668  0  3.901389  0
C  C38  1  0.34084094  0.65324390  0.54211827  1  0  -0.191229  0  3.686331  0  0  -0.229595  0  3.932564  0  0  -0.228462  0  3.943681  0  0  -0.152819  -0.230207  0  3.924992  0
C  C39  1  0.65915898  0.34675245  0.45788022  1  0  -0.191192  0  3.686312  0  0  -0.229541  0  3.93255  0  0  -0.228406  0  3.943662  0  0  -0.15278  -0.230155  0  3.924979  0
C  C40  1  0.20200738  0.67371298  0.46383019  1  0  0.059068  0  3.75868  0  0  0.08478  0  3.993973  0  0  0.080241  0  4.018102  0  0  -0.014581  0.087395  0  3.978217  0
C  C41  1  0.79799199  0.32628475  0.53616932  1  0  0.059121  0  3.758653  0  0  0.084788  0  3.994049  0  0  0.08025  0  4.018179  0  0  -0.014596  0.0874  0  3.978302  0
C  C42  1  0.10311698  0.76081393  0.51107086  1  0  -0.059778  0  3.687209  0  0  -0.087608  0  3.935764  0  0  -0.08323  0  3.952601  0  0  -0.076551  -0.090745  0  3.924937  0
C  C43  1  0.89689022  0.23919204  0.48893130  1  0  -0.059677  0  3.687118  0  0  -0.087521  0  3.935728  0  0  -0.083146  0  3.95256  0  0  -0.07653  -0.090659  0  3.924905  0
C  C44  1  0.97537285  0.77559195  0.43377595  1  0  -0.119013  0  3.771894  0  0  -0.127542  0  4.022205  0  0  -0.133993  0  4.042135  0  0  -0.091118  -0.123596  0  4.009381  0
C  C45  1  0.02463049  0.22441129  0.56622721  1  0  -0.11918  0  3.772015  0  0  -0.127713  0  4.022363  0  0  -0.134161  0  4.042288  0  0  -0.091176  -0.123762  0  4.009538  0
C  C46  1  0.95039632  0.70436078  0.31202211  1  0  0.111372  0  3.693201  0  0  0.082042  0  3.941065  0  0  0.088606  0  3.956504  0  0  0.034888  0.077651  0  3.931281  0
C  C47  1  0.04959758  0.29563837  0.68798148  1  0  0.111399  0  3.693108  0  0  0.082084  0  3.940959  0  0  0.088657  0  3.956388  0  0  0.034914  0.0777  0  3.93119  0
C  C48  1  0.16770542  0.60588205  0.34031313  1  0  0.064813  0  3.643095  0  0  0.029633  0  3.893837  0  0  0.035825  0  3.908304  0  0  0.033786  0.025425  0  3.884821  0
C  C49  1  0.83228766  0.39411296  0.65968554  1  0  0.06469  0  3.643326  0  0  0.029501  0  3.89412  0  0  0.035692  0  3.908577  0  0  0.033755  0.025299  0  3.885101  0
S  S50  1  0.73638781  0.80701628  0.68127278  1  0  -0.048297  0  2.387403  0  0  -0.033109  0  2.7586  0  0  -0.037953  0  2.759171  0  0  -0.005888  -0.029558  0  2.758026  0
S  S51  1  0.26361299  0.19298419  0.31872302  1  0  -0.048307  0  2.387423  0  0  -0.033123  0  2.758599  0  0  -0.037959  0  2.759181  0  0  -0.005903  -0.029571  0  2.758031  0
S  S52  1  0.57966526  0.84421761  0.55709960  1  0  -0.034527  0  2.41411  0  0  -0.022082  0  2.782401  0  0  -0.027227  0  2.785573  0  0  -0.002461  -0.017953  0  2.779883  0
S  S53  1  0.42033308  0.15578287  0.44289688  1  0  -0.034557  0  2.414176  0  0  -0.022095  0  2.782463  0  0  -0.027245  0  2.78564  0  0  -0.002456  -0.017962  0  2.779944  0
I  I54  1  0.77955139  0.59296215  0.97337936  1  0  -0.456239  0  1.442999  0  0  -0.404126  0  1.857373  0  0  -0.420419  0  1.822066  0  0  -0.209362  -0.391764  0  1.88133  0
I  I55  1  0.22045018  0.40704247  0.02662475  1  0  -0.456254  0  1.442985  0  0  -0.404143  0  1.85735  0  0  -0.420431  0  1.822042  0  0  -0.20935  -0.391781  0  1.881308  0
N  N56  1  0.25703297  0.77579632  0.88489810  1  0  -0.262534  0  3.369528  0  0  -0.188667  0  3.654505  0  0  -0.200613  0  3.665603  0  0  -0.361011  -0.181382  0  3.646892  0
N  N57  1  0.74296450  0.22420004  0.11510022  1  0  -0.262534  0  3.369638  0  0  -0.188681  0  3.654618  0  0  -0.200643  0  3.665739  0  0  -0.361033  -0.181396  0  3.647015  0
N  N58  1  0.04387828  0.61950412  0.26506197  1  0  -0.263339  0  3.362958  0  0  -0.191129  0  3.647967  0  0  -0.201917  0  3.657349  0  0  -0.360632  -0.185069  0  3.642012  0
N  N59  1  0.95611300  0.38049229  0.73494102  1  0  -0.263296  0  3.362932  0  0  -0.191082  0  3.647928  0  0  -0.201847  0  3.657273  0  0  -0.360611  -0.185022  0  3.641973  0
