# generated using pymatgen
data_ZnH7C12O5
_symmetry_space_group_name_H-M   'P 1'
_cell_length_a   7.65610922
_cell_length_b   12.22697414
_cell_length_c   12.22702552
_cell_angle_alpha   85.28282691
_cell_angle_beta   86.55435610
_cell_angle_gamma   86.55445468
_symmetry_Int_Tables_number   1
_chemical_formula_structural   ZnH7C12O5
_chemical_formula_sum   'Zn4 H28 C48 O20'
_cell_volume   1136.89410853
_cell_formula_units_Z   4
loop_
 _symmetry_equiv_pos_site_id
 _symmetry_equiv_pos_as_xyz
  1  'x, y, z'
loop_
 _atom_site_type_symbol
 _atom_site_label
 _atom_site_symmetry_multiplicity
 _atom_site_fract_x
 _atom_site_fract_y
 _atom_site_fract_z
 _atom_site_occupancy
 _atom_site_hle17_bader_spin_density
 _atom_site_hle17_ddec_charge
 _atom_site_hle17_ddec_spin_density
 _atom_site_hle17_ddec_sum_bond_order
 _atom_site_hle17_magmom
 _atom_site_hse06_10hf_bader_spin_density
 _atom_site_hse06_10hf_ddec_charge
 _atom_site_hse06_10hf_ddec_spin_density
 _atom_site_hse06_10hf_ddec_sum_bond_order
 _atom_site_hse06_10hf_magmom
 _atom_site_hse06_bader_spin_density
 _atom_site_hse06_ddec_charge
 _atom_site_hse06_ddec_spin_density
 _atom_site_hse06_ddec_sum_bond_order
 _atom_site_hse06_magmom
 _atom_site_pbe_bader_spin_density
 _atom_site_pbe_cm5_charge
 _atom_site_pbe_ddec_charge
 _atom_site_pbe_ddec_spin_density
 _atom_site_pbe_ddec_sum_bond_order
 _atom_site_pbe_magmom
Zn  Zn0  1  0.56595488  0.76466405  0.70225157  1  0  1.198751  0  1.733461  0  0  1.028752  0  2.217993  0  0  1.079399  0  2.148508  0  0  0.71756  0.992807  0  2.266349  0
Zn  Zn1  1  0.93404619  0.29774826  0.23533871  1  0  1.198742  0  1.733489  0  0  1.028731  0  2.218031  0  0  1.079375  0  2.148545  0  0  0.71755  0.992782  0  2.266392  0
Zn  Zn2  1  0.43404692  0.23533673  0.29774878  1  0  1.198746  0  1.733495  0  0  1.028758  0  2.218015  0  0  1.079401  0  2.148529  0  0  0.717569  0.992811  0  2.26639  0
Zn  Zn3  1  0.06595301  0.70225252  0.76466256  1  0  1.198747  0  1.733489  0  0  1.02875  0  2.218041  0  0  1.079396  0  2.148557  0  0  0.717567  0.992804  0  2.266416  0
H  H4  1  0.30603107  0.05268558  0.53814609  1  0  0.113728  0  0.948002  0  0  0.120146  0  1.015491  0  0  0.124434  0  1.011604  0  0  0.107956  0.117067  0  1.018305  0
H  H5  1  0.19397011  0.46185288  0.94731437  1  0  0.113702  0  0.948025  0  0  0.120129  0  1.015513  0  0  0.124416  0  1.011627  0  0  0.107935  0.117048  0  1.018326  0
H  H6  1  0.69397218  0.94731352  0.46185190  1  0  0.113736  0  0.948026  0  0  0.120145  0  1.015524  0  0  0.124433  0  1.011638  0  0  0.107942  0.117068  0  1.018335  0
H  H7  1  0.80603029  0.53814871  0.05268514  1  0  0.113715  0  0.948049  0  0  0.120127  0  1.015549  0  0  0.124415  0  1.011662  0  0  0.107935  0.117051  0  1.018358  0
H  H8  1  0.78868054  0.20927213  0.56027276  1  0  0.119138  0  0.948392  0  0  0.127987  0  1.011162  0  0  0.131974  0  1.00797  0  0  0.10917  0.125105  0  1.013522  0
H  H9  1  0.71131858  0.43972732  0.79072880  1  0  0.119126  0  0.948441  0  0  0.127977  0  1.01121  0  0  0.131964  0  1.008017  0  0  0.109156  0.125091  0  1.013569  0
H  H10  1  0.21131995  0.79072865  0.43972764  1  0  0.119138  0  0.948394  0  0  0.127981  0  1.011167  0  0  0.13197  0  1.007975  0  0  0.109159  0.125098  0  1.013523  0
H  H11  1  0.28868199  0.56027262  0.20927087  1  0  0.119135  0  0.948443  0  0  0.127984  0  1.011214  0  0  0.131971  0  1.008021  0  0  0.109161  0.125103  0  1.013569  0
H  H12  1  0.93050654  0.93878187  0.79361513  1  0  0.12525  0  0.948273  0  0  0.133035  0  1.0148  0  0  0.137005  0  1.011504  0  0  0.111916  0.130157  0  1.017246  0
H  H13  1  0.56949365  0.20638458  0.06121800  1  0  0.125244  0  0.948271  0  0  0.133033  0  1.014799  0  0  0.137003  0  1.011504  0  0  0.111915  0.130154  0  1.017246  0
H  H14  1  0.06949419  0.06121643  0.20638468  1  0  0.125265  0  0.948282  0  0  0.13306  0  1.01479  0  0  0.137028  0  1.011499  0  0  0.111928  0.13018  0  1.017229  0
H  H15  1  0.43050430  0.79361536  0.93878177  1  0  0.125252  0  0.948283  0  0  0.13304  0  1.014803  0  0  0.137006  0  1.011518  0  0  0.111916  0.130162  0  1.017239  0
H  H16  1  0.51004789  0.13340863  0.62686365  1  0  0.06939  0  0.918241  0  0  0.085243  0  0.980729  0  0  0.085285  0  0.979709  0  0  0.107007  0.085155  0  0.98152  0
H  H17  1  0.98995105  0.37313602  0.86659091  1  0  0.069409  0  0.918242  0  0  0.085253  0  0.980723  0  0  0.085295  0  0.979704  0  0  0.107012  0.085148  0  0.981524  0
H  H18  1  0.48995154  0.86658967  0.37313703  1  0  0.069416  0  0.91827  0  0  0.085255  0  0.980736  0  0  0.085297  0  0.979717  0  0  0.107017  0.085154  0  0.981538  0
H  H19  1  0.01004698  0.62686309  0.13340812  1  0  0.069395  0  0.918226  0  0  0.085253  0  0.98071  0  0  0.085297  0  0.979692  0  0  0.106996  0.085164  0  0.981497  0
H  H20  1  0.59027300  0.23736551  0.70202536  1  0  0.051756  0  0.932046  0  0  0.066154  0  0.998632  0  0  0.066059  0  0.998017  0  0  0.099848  0.066176  0  0.999115  0
H  H21  1  0.90972478  0.29797521  0.76263377  1  0  0.051753  0  0.93206  0  0  0.06615  0  0.998633  0  0  0.066057  0  0.998017  0  0  0.099846  0.066171  0  0.999115  0
H  H22  1  0.40972511  0.76263279  0.29797456  1  0  0.051747  0  0.932061  0  0  0.066136  0  0.998627  0  0  0.066043  0  0.998009  0  0  0.099833  0.066154  0  0.999109  0
H  H23  1  0.09027455  0.70202390  0.23736520  1  0  0.051757  0  0.932054  0  0  0.066159  0  0.998637  0  0  0.066067  0  0.998022  0  0  0.099842  0.066177  0  0.999117  0
H  H24  1  0.50512492  0.99760381  0.88219568  1  0  0.099711  0  0.973249  0  0  0.106957  0  1.042352  0  0  0.110351  0  1.040426  0  0  0.101083  0.104524  0  1.043768  0
H  H25  1  0.99487182  0.11780198  0.00239385  1  0  0.09975  0  0.973205  0  0  0.107026  0  1.042278  0  0  0.110423  0  1.04035  0  0  0.101125  0.10459  0  1.043701  0
H  H26  1  0.49487312  0.00239532  0.11780499  1  0  0.099723  0  0.973258  0  0  0.10697  0  1.042359  0  0  0.110365  0  1.040433  0  0  0.101086  0.104533  0  1.043776  0
H  H27  1  0.00512613  0.88219795  0.99760592  1  0  0.099757  0  0.973213  0  0  0.107032  0  1.042285  0  0  0.110434  0  1.040349  0  0  0.101143  0.104598  0  1.043706  0
H  H28  1  0.24999780  0.98272612  0.01727175  1  0  0.092492  0  0.952953  0  0  0.102347  0  1.015007  0  0  0.105384  0  1.013363  0  0  0.101222  0.100128  0  1.016319  0
H  H29  1  0.75000016  0.01727382  0.98272884  1  0  0.092503  0  0.952952  0  0  0.102337  0  1.015041  0  0  0.105369  0  1.013395  0  0  0.10121  0.100118  0  1.016361  0
H  H30  1  0.24999914  0.28256484  0.71743545  1  0  0.097756  0  0.932642  0  0  0.114938  0  0.982233  0  0  0.117242  0  0.982454  0  0  0.102347  0.113252  0  0.982242  0
H  H31  1  0.75000020  0.71743427  0.28256434  1  0  0.097728  0  0.932683  0  0  0.11491  0  0.982268  0  0  0.117213  0  0.982489  0  0  0.102333  0.11322  0  0.982279  0
C  C32  1  0.13249470  0.98534921  0.66956536  1  0  -0.064082  0  3.804345  0  0  -0.03731  0  4.037288  0  0  -0.04707  0  4.063103  0  0  -0.018645  -0.031015  0  4.019983  0
C  C33  1  0.36750460  0.33043312  0.01465083  1  0  -0.064114  0  3.804389  0  0  -0.037314  0  4.037309  0  0  -0.047075  0  4.063127  0  0  -0.018614  -0.031006  0  4.019984  0
C  C34  1  0.86750602  0.01464907  0.33043282  1  0  -0.064104  0  3.804407  0  0  -0.037296  0  4.037312  0  0  -0.047055  0  4.063128  0  0  -0.018598  -0.030986  0  4.019986  0
C  C35  1  0.63249466  0.66956683  0.98534970  1  0  -0.064138  0  3.804362  0  0  -0.037344  0  4.037278  0  0  -0.047104  0  4.063097  0  0  -0.018634  -0.031036  0  4.019951  0
C  C36  1  0.17703660  0.05933199  0.58004318  1  0  -0.079403  0  3.705584  0  0  -0.123978  0  3.965126  0  0  -0.122001  0  3.985035  0  0  -0.082165  -0.125064  0  3.951684  0
C  C37  1  0.32296243  0.41995836  0.94066802  1  0  -0.079328  0  3.70551  0  0  -0.12393  0  3.96508  0  0  -0.121952  0  3.984989  0  0  -0.082139  -0.125016  0  3.951632  0
C  C38  1  0.82296405  0.94066714  0.41995737  1  0  -0.079369  0  3.705631  0  0  -0.123942  0  3.965188  0  0  -0.121964  0  3.985099  0  0  -0.082151  -0.12503  0  3.951742  0
C  C39  1  0.67703799  0.58004325  0.05933313  1  0  -0.079361  0  3.705606  0  0  -0.123947  0  3.965155  0  0  -0.12197  0  3.985065  0  0  -0.082147  -0.12504  0  3.951717  0
C  C40  1  0.05342230  0.14013134  0.54311230  1  0  -0.056373  0  3.781654  0  0  -0.029528  0  4.018216  0  0  -0.038661  0  4.042816  0  0  -0.019365  -0.023607  0  4.001703  0
C  C41  1  0.44657793  0.45688854  0.85986922  1  0  -0.056488  0  3.781576  0  0  -0.029651  0  4.018196  0  0  -0.038786  0  4.042795  0  0  -0.019397  -0.023738  0  4.001689  0
C  C42  1  0.94657957  0.85986861  0.45688731  1  0  -0.056439  0  3.781685  0  0  -0.029615  0  4.018283  0  0  -0.038749  0  4.042884  0  0  -0.019382  -0.023704  0  4.001784  0
C  C43  1  0.55342248  0.54311306  0.14013111  1  0  -0.056377  0  3.78164  0  0  -0.029518  0  4.018197  0  0  -0.038652  0  4.042797  0  0  -0.019356  -0.023608  0  4.001698  0
C  C44  1  0.88393441  0.14772901  0.59374130  1  0  -0.187498  0  3.702185  0  0  -0.224179  0  3.959749  0  0  -0.225621  0  3.977788  0  0  -0.095624  -0.222973  0  3.947633  0
C  C45  1  0.61606684  0.40625836  0.85227080  1  0  -0.187447  0  3.702149  0  0  -0.22413  0  3.959729  0  0  -0.22557  0  3.977767  0  0  -0.095593  -0.222913  0  3.947605  0
C  C46  1  0.11606747  0.85227095  0.40625913  1  0  -0.187481  0  3.702174  0  0  -0.22414  0  3.959732  0  0  -0.225586  0  3.977775  0  0  -0.095601  -0.222928  0  3.947611  0
C  C47  1  0.38393373  0.59374159  0.14772968  1  0  -0.18751  0  3.702225  0  0  -0.224203  0  3.959799  0  0  -0.225644  0  3.977839  0  0  -0.095606  -0.222994  0  3.947686  0
C  C48  1  0.84255875  0.07575193  0.68532408  1  0  0.27563  0  3.801106  0  0  0.266282  0  4.06674  0  0  0.275549  0  4.082765  0  0  0.089082  0.259612  0  4.05594  0
C  C49  1  0.65743956  0.31467562  0.92424886  1  0  0.275711  0  3.801134  0  0  0.26636  0  4.066777  0  0  0.275629  0  4.082801  0  0  0.089138  0.259683  0  4.055985  0
C  C50  1  0.15744182  0.92424801  0.31467558  1  0  0.275645  0  3.801068  0  0  0.266313  0  4.06672  0  0  0.275585  0  4.082741  0  0  0.089076  0.259641  0  4.055918  0
C  C51  1  0.34255970  0.68532432  0.07575086  1  0  0.275753  0  3.801127  0  0  0.266404  0  4.066759  0  0  0.275672  0  4.082782  0  0  0.089146  0.259726  0  4.055974  0
C  C52  1  0.96697964  0.99466815  0.72313570  1  0  -0.142584  0  3.656062  0  0  -0.180098  0  3.911185  0  0  -0.180408  0  3.928731  0  0  -0.081182  -0.179598  0  3.89941  0
C  C53  1  0.53301913  0.27686470  0.00533178  1  0  -0.142569  0  3.656152  0  0  -0.180108  0  3.911293  0  0  -0.180418  0  3.928838  0  0  -0.081216  -0.179614  0  3.899525  0
C  C54  1  0.03301970  0.00533097  0.27686410  1  0  -0.142596  0  3.656149  0  0  -0.180128  0  3.911283  0  0  -0.180437  0  3.928825  0  0  -0.081211  -0.17963  0  3.899501  0
C  C55  1  0.46698137  0.72313608  0.99466862  1  0  -0.142595  0  3.656192  0  0  -0.180117  0  3.911319  0  0  -0.180429  0  3.928863  0  0  -0.081207  -0.179621  0  3.89954  0
C  C56  1  0.26057577  0.89598047  0.70662713  1  0  0.67256  0  3.868665  0  0  0.620695  0  4.15399  0  0  0.656468  0  4.147112  0  0  0.224065  0.596264  0  4.158004  0
C  C57  1  0.23942509  0.29337217  0.10402052  1  0  0.672566  0  3.868789  0  0  0.620709  0  4.154078  0  0  0.656482  0  4.147198  0  0  0.224069  0.596277  0  4.158085  0
C  C58  1  0.73942480  0.10401949  0.29337335  1  0  0.672547  0  3.868665  0  0  0.620657  0  4.154022  0  0  0.656428  0  4.147145  0  0  0.224043  0.596219  0  4.158041  0
C  C59  1  0.76057672  0.70662862  0.89598065  1  0  0.672605  0  3.868541  0  0  0.620741  0  4.153861  0  0  0.656513  0  4.146983  0  0  0.224105  0.596313  0  4.157862  0
C  C60  1  0.54718442  0.15228959  0.70895254  1  0  0.06407  0  3.636977  0  0  -0.005053  0  3.901127  0  0  0.004075  0  3.905909  0  0  -0.055368  -0.011144  0  3.897633  0
C  C61  1  0.95281455  0.29104709  0.84770935  1  0  0.064032  0  3.636992  0  0  -0.005042  0  3.901115  0  0  0.004085  0  3.905899  0  0  -0.055383  -0.011122  0  3.897614  0
C  C62  1  0.45281492  0.84770953  0.29104725  1  0  0.063991  0  3.637098  0  0  -0.005021  0  3.901146  0  0  0.00411  0  3.905929  0  0  -0.055357  -0.011104  0  3.897652  0
C  C63  1  0.04718478  0.70895202  0.15228963  1  0  0.064078  0  3.63692  0  0  -0.005034  0  3.901116  0  0  0.004088  0  3.905908  0  0  -0.055353  -0.011117  0  3.897599  0
C  C64  1  0.39457397  0.14153944  0.79191615  1  0  0.065482  0  3.763193  0  0  0.088347  0  4.001993  0  0  0.087887  0  4.026974  0  0  -0.014319  0.08868  0  3.984976  0
C  C65  1  0.10542426  0.20808250  0.85845868  1  0  0.065554  0  3.763094  0  0  0.088322  0  4.002012  0  0  0.087863  0  4.026996  0  0  -0.014323  0.088659  0  3.984988  0
C  C66  1  0.60542536  0.85845967  0.20808364  1  0  0.065512  0  3.763239  0  0  0.088317  0  4.002068  0  0  0.087857  0  4.02705  0  0  -0.014347  0.088647  0  3.985047  0
C  C67  1  0.89457499  0.79191743  0.14154022  1  0  0.065482  0  3.763136  0  0  0.088225  0  4.002113  0  0  0.087764  0  4.027101  0  0  -0.014342  0.088571  0  3.985078  0
C  C68  1  0.39353325  0.05675671  0.87618032  1  0  -0.119291  0  3.73256  0  0  -0.146548  0  3.984692  0  0  -0.150055  0  4.006473  0  0  -0.09919  -0.144077  0  3.969874  0
C  C69  1  0.10646457  0.12381784  0.94324148  1  0  -0.11937  0  3.732665  0  0  -0.146616  0  3.984807  0  0  -0.150128  0  4.006591  0  0  -0.099222  -0.144146  0  3.969995  0
C  C70  1  0.60646609  0.94324241  0.12382029  1  0  -0.11933  0  3.732598  0  0  -0.146559  0  3.984708  0  0  -0.150068  0  4.006488  0  0  -0.099184  -0.144083  0  3.969889  0
C  C71  1  0.89353460  0.87618292  0.05675816  1  0  -0.119336  0  3.732669  0  0  -0.146567  0  3.984815  0  0  -0.150081  0  4.00659  0  0  -0.099221  -0.144108  0  3.970012  0
C  C72  1  0.24999868  0.04853062  0.95146675  1  0  -0.054707  0  3.769022  0  0  -0.065173  0  4.022389  0  0  -0.066902  0  4.044838  0  0  -0.093305  -0.063843  0  4.006993  0
C  C73  1  0.75000057  0.95146932  0.04853297  1  0  -0.054707  0  3.769052  0  0  -0.065165  0  4.022422  0  0  -0.066886  0  4.044864  0  0  -0.093307  -0.063842  0  4.007042  0
C  C74  1  0.25000004  0.21658590  0.78341342  1  0  -0.17048  0  3.731625  0  0  -0.197259  0  3.974593  0  0  -0.203147  0  4.000276  0  0  -0.094085  -0.193153  0  3.957065  0
C  C75  1  0.74999930  0.78341323  0.21658719  1  0  -0.170435  0  3.731675  0  0  -0.197183  0  3.974655  0  0  -0.20307  0  4.000338  0  0  -0.094061  -0.193073  0  3.957122  0
C  C76  1  0.10341578  0.21562073  0.44531215  1  0  0.703403  0  3.859631  0  0  0.652787  0  4.144607  0  0  0.688881  0  4.136035  0  0  0.231171  0.628128  0  4.149762  0
C  C77  1  0.39658757  0.55468949  0.78438064  1  0  0.703645  0  3.859427  0  0  0.653022  0  4.144413  0  0  0.689116  0  4.135835  0  0  0.231246  0.628358  0  4.149582  0
C  C78  1  0.89658717  0.78438170  0.55468800  1  0  0.703572  0  3.859459  0  0  0.652952  0  4.144446  0  0  0.689046  0  4.135868  0  0  0.231201  0.628298  0  4.1496  0
C  C79  1  0.60341408  0.44531295  0.21562037  1  0  0.703562  0  3.859452  0  0  0.652946  0  4.14442  0  0  0.68904  0  4.135843  0  0  0.231223  0.628294  0  4.149567  0
O  O80  1  0.41345853  0.89280406  0.65774957  1  0  -0.614265  0  2.029701  0  0  -0.538205  0  2.293768  0  0  -0.567416  0  2.277356  0  0  -0.300424  -0.517953  0  2.304562  0
O  O81  1  0.08654186  0.34225059  0.10719551  1  0  -0.614319  0  2.02976  0  0  -0.538237  0  2.293784  0  0  -0.567446  0  2.277371  0  0  -0.300452  -0.517982  0  2.304573  0
O  O82  1  0.58654335  0.10719589  0.34225003  1  0  -0.61425  0  2.029747  0  0  -0.53818  0  2.293817  0  0  -0.56739  0  2.277405  0  0  -0.300408  -0.517926  0  2.304615  0
O  O83  1  0.91345871  0.65774935  0.89280415  1  0  -0.614258  0  2.029692  0  0  -0.538203  0  2.293759  0  0  -0.567414  0  2.277347  0  0  -0.300427  -0.517952  0  2.304549  0
O  O84  1  0.21809331  0.82465220  0.78490378  1  0  -0.682274  0  2.085484  0  0  -0.614156  0  2.372351  0  0  -0.641856  0  2.352858  0  0  -0.325518  -0.594744  0  2.385316  0
O  O85  1  0.28190802  0.21509619  0.17534902  1  0  -0.682259  0  2.085544  0  0  -0.614156  0  2.372415  0  0  -0.641856  0  2.35292  0  0  -0.32551  -0.594747  0  2.385379  0
O  O86  1  0.78190726  0.17534775  0.21509588  1  0  -0.682282  0  2.085439  0  0  -0.614167  0  2.372336  0  0  -0.641866  0  2.352841  0  0  -0.325525  -0.59475  0  2.3853  0
O  O87  1  0.71809378  0.78490459  0.82465133  1  0  -0.682306  0  2.085428  0  0  -0.61419  0  2.372308  0  0  -0.641889  0  2.352814  0  0  -0.325543  -0.594781  0  2.385268  0
O  O88  1  0.26619293  0.22792570  0.42599611  1  0  -0.651967  0  2.07617  0  0  -0.581086  0  2.347314  0  0  -0.608914  0  2.327557  0  0  -0.32188  -0.561687  0  2.360455  0
O  O89  1  0.23381051  0.57400593  0.77207375  1  0  -0.6521  0  2.076101  0  0  -0.581214  0  2.347251  0  0  -0.609041  0  2.327491  0  0  -0.321925  -0.561815  0  2.360401  0
O  O90  1  0.73381158  0.77207428  0.57400502  1  0  -0.652056  0  2.076113  0  0  -0.581168  0  2.347262  0  0  -0.608997  0  2.327502  0  0  -0.3219  -0.56177  0  2.360399  0
O  O91  1  0.76619244  0.42599650  0.22792640  1  0  -0.652074  0  2.076048  0  0  -0.581193  0  2.347198  0  0  -0.609021  0  2.327438  0  0  -0.321944  -0.561798  0  2.360337  0
O  O92  1  0.97895529  0.26214494  0.39021129  1  0  -0.671682  0  2.085852  0  0  -0.597966  0  2.359897  0  0  -0.627092  0  2.339801  0  0  -0.323388  -0.577602  0  2.373195  0
O  O93  1  0.52104806  0.60978941  0.73785776  1  0  -0.671773  0  2.085795  0  0  -0.598049  0  2.35985  0  0  -0.627176  0  2.339752  0  0  -0.323435  -0.577683  0  2.373154  0
O  O94  1  0.02104767  0.73785750  0.60978967  1  0  -0.671774  0  2.085806  0  0  -0.598061  0  2.359873  0  0  -0.627189  0  2.339774  0  0  -0.323435  -0.577697  0  2.373176  0
O  O95  1  0.47895643  0.39021055  0.26214256  1  0  -0.671752  0  2.08583  0  0  -0.598038  0  2.359878  0  0  -0.627165  0  2.33978  0  0  -0.323417  -0.577678  0  2.373181  0
O  O96  1  0.68646480  0.07708907  0.74459169  1  0  -0.271949  0  2.357969  0  0  -0.195666  0  2.591025  0  0  -0.214522  0  2.595002  0  0  -0.169862  -0.182355  0  2.587884  0
O  O97  1  0.81353355  0.25540694  0.92290999  1  0  -0.272031  0  2.35799  0  0  -0.195736  0  2.591028  0  0  -0.214592  0  2.595005  0  0  -0.169894  -0.182423  0  2.587884  0
O  O98  1  0.31353453  0.92291003  0.25540729  1  0  -0.27192  0  2.357976  0  0  -0.195712  0  2.591045  0  0  -0.214574  0  2.595025  0  0  -0.169856  -0.182398  0  2.587895  0
O  O99  1  0.18646578  0.74459216  0.07708899  1  0  -0.272054  0  2.358039  0  0  -0.195754  0  2.591102  0  0  -0.214605  0  2.595077  0  0  -0.169906  -0.182445  0  2.58796  0
