# generated using pymatgen
data_ZnH12C19N2O5
_symmetry_space_group_name_H-M   'P 1'
_cell_length_a   9.80413551
_cell_length_b   10.20008276
_cell_length_c   23.03801751
_cell_angle_alpha   94.14793947
_cell_angle_beta   89.99990475
_cell_angle_gamma   89.99985778
_symmetry_Int_Tables_number   1
_chemical_formula_structural   ZnH12C19N2O5
_chemical_formula_sum   'Zn4 H48 C76 N8 O20'
_cell_volume   2297.83598463
_cell_formula_units_Z   4
loop_
 _symmetry_equiv_pos_site_id
 _symmetry_equiv_pos_as_xyz
  1  'x, y, z'
loop_
 _atom_site_type_symbol
 _atom_site_label
 _atom_site_symmetry_multiplicity
 _atom_site_fract_x
 _atom_site_fract_y
 _atom_site_fract_z
 _atom_site_occupancy
 _atom_site_pbe_bader_charge
 _atom_site_pbe_bader_spin_density
 _atom_site_pbe_cm5_charge
 _atom_site_pbe_ddec_charge
 _atom_site_pbe_ddec_spin_density
 _atom_site_pbe_ddec_sum_bond_order
 _atom_site_pbe_magmom
Zn  Zn0  1  0.87368387  0.43783629  0.48871548  1  1.285269  0  0.667878  0.814851  0  2.410631  0
Zn  Zn1  1  0.37368608  0.06216890  0.01128165  1  1.285375  0  0.667942  0.814956  0  2.410474  0
Zn  Zn2  1  0.12631334  0.56216831  0.51128568  1  1.285285  0  0.667916  0.814826  0  2.410441  0
Zn  Zn3  1  0.62631317  0.93782873  0.98871584  1  1.285339  0  0.667906  0.814858  0  2.410481  0
H  H4  1  0.52458600  0.54417252  0.04658623  1  0.094432  0  0.103529  0.104938  0  1.018113  0
H  H5  1  0.02459159  0.95583263  0.45341087  1  0.09445  0  0.103536  0.104951  0  1.018098  0
H  H6  1  0.47541325  0.45582417  0.95341254  1  0.094419  0  0.103548  0.104983  0  1.018064  0
H  H7  1  0.97540154  0.04417099  0.54659026  1  0.094305  0  0.103488  0.104897  0  1.018081  0
H  H8  1  0.35414233  0.48753084  0.23227890  1  0.091724  0  0.108387  0.124209  0  0.992887  0
H  H9  1  0.85413698  0.01247252  0.26772123  1  0.091876  0  0.108416  0.124198  0  0.992922  0
H  H10  1  0.64586508  0.51247580  0.76772491  1  0.091886  0  0.108405  0.1242  0  0.993027  0
H  H11  1  0.14585615  0.98752412  0.73227581  1  0.0918  0  0.108386  0.124211  0  0.992918  0
H  H12  1  0.17001585  0.76496404  0.10302650  1  0.089222  0  0.102736  0.104728  0  1.004833  0
H  H13  1  0.67002472  0.73503692  0.39697473  1  0.08933  0  0.102738  0.104698  0  1.004969  0
H  H14  1  0.82997932  0.23502866  0.89697043  1  0.089197  0  0.102732  0.104728  0  1.004794  0
H  H15  1  0.32996739  0.26496475  0.60302678  1  0.089272  0  0.102723  0.104627  0  1.004982  0
H  H16  1  0.99967743  0.24111173  0.20486263  1  0.078919  0  0.103214  0.118559  0  1.010569  0
H  H17  1  0.49966476  0.25888351  0.29514109  1  0.078858  0  0.103139  0.11846  0  1.010668  0
H  H18  1  0.00033100  0.75888220  0.79514345  1  0.078841  0  0.103179  0.118522  0  1.010659  0
H  H19  1  0.50032531  0.74111411  0.70485597  1  0.078851  0  0.103201  0.118504  0  1.010687  0
H  H20  1  0.43552680  0.34767899  0.09467877  1  0.130542  0  0.108276  0.136601  0  1.016867  0
H  H21  1  0.93552667  0.15232309  0.40531780  1  0.130477  0  0.10826  0.136629  0  1.016853  0
H  H22  1  0.56447755  0.65231773  0.90532130  1  0.130609  0  0.108227  0.13653  0  1.016965  0
H  H23  1  0.06446850  0.84767255  0.59467878  1  0.130593  0  0.108262  0.13667  0  1.016882  0
H  H24  1  0.94193828  0.27794300  0.31088761  1  0.080316  0  0.103196  0.10679  0  1.030211  0
H  H25  1  0.44192000  0.22205926  0.18911634  1  0.080422  0  0.103118  0.106735  0  1.03014  0
H  H26  1  0.05807933  0.72205393  0.68912029  1  0.079964  0  0.10314  0.106808  0  1.030144  0
H  H27  1  0.55807721  0.77794323  0.81087955  1  0.080016  0  0.103147  0.106836  0  1.030031  0
H  H28  1  0.75554521  0.18952007  0.51837280  1  0.158821  0  0.127555  0.109322  0  1.007857  0
H  H29  1  0.25553984  0.31047747  0.98162501  1  0.15921  0  0.127579  0.109301  0  1.00793  0
H  H30  1  0.24445302  0.81047759  0.48162556  1  0.158748  0  0.127566  0.10928  0  1.007835  0
H  H31  1  0.74445534  0.68952315  0.01837430  1  0.158739  0  0.127562  0.109296  0  1.007873  0
H  H32  1  0.29729770  0.52037093  0.33813686  1  0.06419  0  0.104443  0.107016  0  1.000139  0
H  H33  1  0.79728443  0.97964051  0.16186412  1  0.064405  0  0.104404  0.10691  0  1.000327  0
H  H34  1  0.70271481  0.47963869  0.66186833  1  0.064435  0  0.104398  0.106915  0  1.000404  0
H  H35  1  0.20271074  0.02036201  0.83813264  1  0.064369  0  0.104402  0.106907  0  1.000377  0
H  H36  1  0.37473033  0.39509272  0.41935314  1  0.14083  0  0.110045  0.124407  0  1.031264  0
H  H37  1  0.87473058  0.10490861  0.08064649  1  0.140745  0  0.110007  0.124344  0  1.031397  0
H  H38  1  0.62527402  0.60490983  0.58064492  1  0.141122  0  0.110046  0.124394  0  1.031335  0
H  H39  1  0.12526969  0.89508908  0.91935318  1  0.140727  0  0.110022  0.124416  0  1.031302  0
H  H40  1  0.08465304  0.57233142  0.15412287  1  0.087308  0  0.109713  0.126266  0  0.98179  0
H  H41  1  0.58465345  0.92766479  0.34587612  1  0.087394  0  0.109625  0.126149  0  0.981753  0
H  H42  1  0.91535131  0.42766329  0.84587542  1  0.087311  0  0.109696  0.126217  0  0.981767  0
H  H43  1  0.41534376  0.07233280  0.65412007  1  0.087507  0  0.109673  0.126203  0  0.981751  0
H  H44  1  0.60668229  0.50145417  0.43180657  1  0.104899  0  0.124001  0.097919  0  0.989271  0
H  H45  1  0.10668214  0.99854397  0.06819333  1  0.104894  0  0.124007  0.097949  0  0.98924  0
H  H46  1  0.39331900  0.49854849  0.56819540  1  0.104984  0  0.12402  0.09793  0  0.989224  0
H  H47  1  0.89331609  0.00145172  0.93180499  1  0.104956  0  0.124013  0.09794  0  0.989226  0
H  H48  1  0.34158331  0.16907027  0.45503733  1  0.136867  0  0.118997  0.122299  0  0.984629  0
H  H49  1  0.84158312  0.33093116  0.04496276  1  0.13683  0  0.119038  0.12238  0  0.984683  0
H  H50  1  0.65841492  0.83093227  0.54496030  1  0.136905  0  0.119031  0.122399  0  0.984693  0
H  H51  1  0.15841511  0.66906653  0.95503691  1  0.13692  0  0.119025  0.122364  0  0.984742  0
C  C52  1  0.11674549  0.40025963  0.33110239  1  -0.025243  0  -0.030564  -0.063831  0  3.997835  0
C  C53  1  0.61672806  0.09975126  0.16889985  1  -0.025194  0  -0.030597  -0.064109  0  3.998104  0
C  C54  1  0.88326804  0.59975098  0.66890283  1  -0.024671  0  -0.030551  -0.063849  0  3.998029  0
C  C55  1  0.38326813  0.90024929  0.83109685  1  -0.024723  0  -0.030551  -0.063853  0  3.997915  0
C  C56  1  0.42755547  0.54933646  0.06963070  1  -0.050203  0  -0.08163  -0.068989  0  3.97765  0
C  C57  1  0.92755957  0.95066672  0.43036737  1  -0.050093  0  -0.081649  -0.068988  0  3.977698  0
C  C58  1  0.57244480  0.45066024  0.93036851  1  -0.050048  0  -0.081669  -0.069074  0  3.977689  0
C  C59  1  0.07243662  0.04933690  0.56963376  1  -0.049544  0  -0.081595  -0.068938  0  3.977665  0
C  C60  1  0.40496475  0.78439554  0.04319861  1  1.562356  0  0.212465  0.588264  0  4.181323  0
C  C61  1  0.90496936  0.71561371  0.45680397  1  1.562175  0  0.212296  0.587897  0  4.181532  0
C  C62  1  0.59503654  0.21560110  0.95679886  1  1.562327  0  0.212485  0.588355  0  4.18131  0
C  C63  1  0.09502377  0.28439296  0.54320071  1  1.562134  0  0.21218  0.587805  0  4.18163  0
C  C64  1  0.26504730  0.44047338  0.24996158  1  -0.020732  0  -0.10573  -0.213858  0  4.016399  0
C  C65  1  0.76503374  0.05953515  0.25003963  1  -0.020901  0  -0.105752  -0.213865  0  4.016675  0
C  C66  1  0.73496419  0.55953333  0.75004484  1  -0.020451  0  -0.105668  -0.213839  0  4.016698  0
C  C67  1  0.23495837  0.94046440  0.74995618  1  -0.020086  0  -0.105702  -0.21389  0  4.016652  0
C  C68  1  0.22830157  0.67395237  0.10189428  1  -0.018681  0  -0.086098  -0.070212  0  3.997689  0
C  C69  1  0.72830613  0.82604841  0.39810560  1  -0.018681  0  -0.086035  -0.070052  0  3.997631  0
C  C70  1  0.77169768  0.32604332  0.89810403  1  -0.018714  0  -0.08606  -0.07012  0  3.997578  0
C  C71  1  0.27168803  0.17395130  0.60189629  1  -0.01866  0  -0.086009  -0.069985  0  3.997726  0
C  C72  1  0.35280115  0.66676568  0.07173863  1  -0.019144  0  -0.028141  -0.060757  0  3.989128  0
C  C73  1  0.85281066  0.83323876  0.42826256  1  -0.019374  0  -0.02813  -0.060656  0  3.988952  0
C  C74  1  0.64719607  0.33323099  0.92825970  1  -0.019171  0  -0.028145  -0.060782  0  3.989081  0
C  C75  1  0.14718247  0.16675996  0.57173888  1  -0.019749  0  -0.028231  -0.060674  0  3.988964  0
C  C76  1  0.06496562  0.30085526  0.23453336  1  -0.019424  0  -0.1031  -0.201483  0  3.98848  0
C  C77  1  0.56495163  0.19915378  0.26546844  1  -0.019855  0  -0.103011  -0.201351  0  3.988358  0
C  C78  1  0.93504791  0.69914951  0.76547388  1  -0.020541  0  -0.103038  -0.201338  0  3.988076  0
C  C79  1  0.43504762  0.80085068  0.73452750  1  -0.020607  0  -0.103117  -0.201439  0  3.988188  0
C  C80  1  0.17968350  0.36249229  0.21291114  1  0.383925  0  0.088124  0.265471  0  4.043391  0
C  C81  1  0.67968183  0.13750959  0.28709038  1  0.384641  0  0.088147  0.265457  0  4.043387  0
C  C82  1  0.82031983  0.63750847  0.78709295  1  0.384748  0  0.088043  0.26533  0  4.043577  0
C  C83  1  0.32031538  0.86249294  0.71290681  1  0.384864  0  0.088072  0.265339  0  4.043438  0
C  C84  1  0.37981856  0.44040852  0.09678978  1  0.021245  0  -0.099572  -0.19864  0  3.971849  0
C  C85  1  0.87982071  0.05959380  0.40321031  1  0.021258  0  -0.099554  -0.198703  0  3.971988  0
C  C86  1  0.62018375  0.55958919  0.90321076  1  0.02119  0  -0.099494  -0.198533  0  3.971925  0
C  C87  1  0.12017038  0.94040290  0.59678890  1  0.020982  0  -0.099566  -0.198757  0  3.971868  0
C  C88  1  0.03356240  0.32102112  0.29346444  1  0.034588  0  -0.082356  -0.066882  0  3.977049  0
C  C89  1  0.53355176  0.17898311  0.20653812  1  0.034411  0  -0.082321  -0.066806  0  3.977543  0
C  C90  1  0.96645011  0.67897862  0.70653833  1  0.034961  0  -0.082371  -0.067061  0  3.977372  0
C  C91  1  0.46644545  0.82102238  0.79345958  1  0.034993  0  -0.082355  -0.066977  0  3.977457  0
C  C92  1  0.54799820  0.16195417  0.48762088  1  0.370585  0  0.094995  0.114541  0  4.062377  0
C  C93  1  0.04799460  0.33804307  0.01237844  1  0.370537  0  0.095008  0.114548  0  4.06249  0
C  C94  1  0.45199902  0.83804447  0.51237751  1  0.37074  0  0.095023  0.114655  0  4.062284  0
C  C95  1  0.95200364  0.66195560  0.98762126  1  0.370539  0  0.09505  0.114655  0  4.062436  0
C  C96  1  0.07875626  0.42781170  0.39359038  1  1.577539  0  0.211899  0.5859  0  4.182734  0
C  C97  1  0.57874323  0.07219534  0.10641136  1  1.577474  0  0.212044  0.5861  0  4.182354  0
C  C98  1  0.92126543  0.57219892  0.60641528  1  1.577365  0  0.211824  0.585957  0  4.182495  0
C  C99  1  0.42125500  0.92780326  0.89358573  1  1.577465  0  0.211931  0.586022  0  4.182312  0
C  C100  1  0.25715596  0.45118276  0.12743982  1  0.326199  0  0.082075  0.252953  0  4.050856  0
C  C101  1  0.75715724  0.04881493  0.37255936  1  0.326229  0  0.082067  0.252857  0  4.051078  0
C  C102  1  0.74284839  0.54881299  0.87256066  1  0.326031  0  0.082059  0.252873  0  4.050975  0
C  C103  1  0.24283997  0.95118176  0.62743984  1  0.326619  0  0.082007  0.252742  0  4.051014  0
C  C104  1  0.67000375  0.23133079  0.49576013  1  0.503591  0  0.067955  0.040463  0  3.860249  0
C  C105  1  0.17000036  0.26866808  0.00423828  1  0.50318  0  0.067967  0.040535  0  3.860367  0
C  C106  1  0.32999754  0.76866985  0.50423962  1  0.503627  0  0.067941  0.040515  0  3.86031  0
C  C107  1  0.82999685  0.73132961  0.99576139  1  0.503589  0  0.067956  0.040467  0  3.8602  0
C  C108  1  0.23336971  0.45844014  0.30878352  1  -0.052213  0  -0.084987  -0.073033  0  4.007699  0
C  C109  1  0.73336459  0.04156847  0.19121771  1  -0.052632  0  -0.084922  -0.072773  0  4.007354  0
C  C110  1  0.76663566  0.54156750  0.69122076  1  -0.053064  0  -0.084942  -0.072835  0  4.007386  0
C  C111  1  0.26663160  0.95843503  0.80877908  1  -0.053443  0  -0.084945  -0.072845  0  4.007323  0
C  C112  1  0.45822166  0.34414824  0.43948521  1  0.026977  0  -0.075406  -0.113845  0  3.954724  0
C  C113  1  0.95822083  0.15584698  0.06051377  1  0.027153  0  -0.075359  -0.113694  0  3.954719  0
C  C114  1  0.54177862  0.65584943  0.56051359  1  0.02668  0  -0.075361  -0.113725  0  3.954764  0
C  C115  1  0.04177842  0.84414971  0.93948501  1  0.027152  0  -0.075394  -0.11386  0  3.954623  0
C  C116  1  0.18053814  0.56715967  0.13010279  1  -0.025565  0  -0.103723  -0.206447  0  4.010872  0
C  C117  1  0.68054661  0.93284022  0.36989580  1  -0.025574  0  -0.103675  -0.206432  0  4.011084  0
C  C118  1  0.81946213  0.43283704  0.86989686  1  -0.025315  0  -0.103729  -0.20644  0  4.011123  0
C  C119  1  0.31944754  0.06715839  0.63010129  1  -0.025843  0  -0.103638  -0.206396  0  4.011272  0
C  C120  1  0.58512515  0.40487546  0.44706812  1  0.458635  0  0.063203  0.103135  0  3.888946  0
C  C121  1  0.08512610  0.09512461  0.05293039  1  0.458703  0  0.063183  0.103019  0  3.889147  0
C  C122  1  0.41487818  0.59512716  0.55293212  1  0.458635  0  0.063136  0.103051  0  3.889051  0
C  C123  1  0.91487213  0.90487304  0.94706798  1  0.458686  0  0.063197  0.10307  0  3.889105  0
C  C124  1  0.43878202  0.22036365  0.45968493  1  -0.05094  0  -0.047888  -0.070827  0  3.875297  0
C  C125  1  0.93877892  0.27963849  0.04031424  1  -0.050895  0  -0.047967  -0.070978  0  3.875338  0
C  C126  1  0.56122131  0.77963892  0.54031357  1  -0.050935  0  -0.047983  -0.071073  0  3.875312  0
C  C127  1  0.06121931  0.72035922  0.95968630  1  -0.050999  0  -0.047941  -0.07092  0  3.875405  0
N  N128  1  0.68843770  0.34938320  0.47508248  1  -1.262473  0  -0.323139  -0.191692  0  3.540713  0
N  N129  1  0.18843453  0.15061268  0.02491627  1  -1.262781  0  -0.323149  -0.191693  0  3.540774  0
N  N130  1  0.31156258  0.65061746  0.52491814  1  -1.262571  0  -0.323117  -0.191692  0  3.540705  0
N  N131  1  0.81156370  0.84938595  0.97508212  1  -1.262704  0  -0.32315  -0.191658  0  3.540765  0
N  N132  1  0.54783410  0.03682405  0.50970594  1  -0.484297  0  -0.138636  -0.124169  0  3.299192  0
N  N133  1  0.04783442  0.46317204  0.99029198  1  -0.484306  0  -0.138662  -0.124231  0  3.299126  0
N  N134  1  0.45216312  0.96317457  0.49029201  1  -0.441373  0  -0.138685  -0.124338  0  3.299201  0
N  N135  1  0.95216382  0.53682664  0.00970815  1  -0.441151  0  -0.138676  -0.124292  0  3.299104  0
O  O136  1  0.20850515  0.34212451  0.15410359  1  -1.096692  0  -0.157572  -0.226283  0  2.541791  0
O  O137  1  0.70849912  0.15787830  0.34589880  1  -1.096772  0  -0.157576  -0.226214  0  2.541709  0
O  O138  1  0.79150634  0.65787725  0.84590139  1  -1.096897  0  -0.157512  -0.226148  0  2.541631  0
O  O139  1  0.29150115  0.84211934  0.65409913  1  -1.096945  0  -0.15745  -0.225993  0  2.541644  0
O  O140  1  0.52587194  0.77911976  0.02287511  1  -1.177559  0  -0.313923  -0.547168  0  2.336779  0
O  O141  1  0.02587803  0.72089047  0.47712821  1  -1.177548  0  -0.313826  -0.546988  0  2.33674  0
O  O142  1  0.47412833  0.22087885  0.97712242  1  -1.177471  0  -0.313972  -0.547299  0  2.336812  0
O  O143  1  0.97410796  0.27911427  0.52287773  1  -1.177575  0  -0.31366  -0.546933  0  2.336693  0
O  O144  1  0.32408142  0.88211618  0.04145934  1  -1.173714  0  -0.318582  -0.556221  0  2.345107  0
O  O145  1  0.82408422  0.61789230  0.45854328  1  -1.173622  0  -0.318554  -0.556101  0  2.345075  0
O  O146  1  0.67591885  0.11788148  0.95853902  1  -1.173772  0  -0.318541  -0.556162  0  2.345009  0
O  O147  1  0.17590483  0.38210348  0.54145851  1  -1.173534  0  -0.318534  -0.556054  0  2.345212  0
O  O148  1  0.16425269  0.49222823  0.42634228  1  -1.183086  0  -0.318031  -0.554811  0  2.352228  0
O  O149  1  0.66423689  0.00777760  0.07365893  1  -1.182729  0  -0.318109  -0.554869  0  2.351895  0
O  O150  1  0.83575982  0.50777245  0.57365921  1  -1.182558  0  -0.318086  -0.554985  0  2.351625  0
O  O151  1  0.33576032  0.99222398  0.92633954  1  -1.182708  0  -0.318058  -0.5549  0  2.351922  0
O  O152  1  0.96320346  0.38641630  0.40971848  1  -1.170503  0  -0.313593  -0.539407  0  2.352236  0
O  O153  1  0.46319299  0.11358778  0.09028203  1  -1.170822  0  -0.313701  -0.539517  0  2.352334  0
O  O154  1  0.03680191  0.61358647  0.59028740  1  -1.170721  0  -0.313483  -0.539291  0  2.352773  0
O  O155  1  0.53680422  0.88641177  0.90971379  1  -1.170636  0  -0.313623  -0.539478  0  2.352312  0
