# generated using pymatgen
data_Cu8H60C33(Br4N3)2
_symmetry_space_group_name_H-M   'P 1'
_cell_length_a   6.65475945
_cell_length_b   14.85491938
_cell_length_c   14.85523772
_cell_angle_alpha   119.99673886
_cell_angle_beta   89.99700264
_cell_angle_gamma   90.00043027
_symmetry_Int_Tables_number   1
_chemical_formula_structural   Cu8H60C33(Br4N3)2
_chemical_formula_sum   'Cu8 H60 C33 Br8 N6'
_cell_volume   1271.82444631
_cell_formula_units_Z   1
loop_
 _symmetry_equiv_pos_site_id
 _symmetry_equiv_pos_as_xyz
  1  'x, y, z'
loop_
 _atom_site_type_symbol
 _atom_site_label
 _atom_site_symmetry_multiplicity
 _atom_site_fract_x
 _atom_site_fract_y
 _atom_site_fract_z
 _atom_site_occupancy
 _atom_site_pbe_bader_charge
 _atom_site_pbe_bader_spin_density
 _atom_site_pbe_cm5_charge
 _atom_site_pbe_ddec_charge
 _atom_site_pbe_ddec_spin_density
 _atom_site_pbe_ddec_sum_bond_order
 _atom_site_pbe_magmom
Cu  Cu0  1  0.46203799  0.87838961  0.93588670  1  0.461338  0  0.279269  0.181405  0  2.367537  0
Cu  Cu1  1  0.46201902  0.05749381  0.12160671  1  0.46291  0  0.279269  0.181453  0  2.367295  0
Cu  Cu2  1  0.46203677  0.06410263  0.94249906  1  0.460851  0  0.279298  0.181509  0  2.367398  0
Cu  Cu3  1  0.76711162  0.99998726  0.99999339  1  0.419236  0  0.19535  0.190805  0  2.846872  0
Cu  Cu4  1  0.23673101  0.45231425  0.70636026  1  0.46482  0  0.280329  0.186379  0  2.384716  0
Cu  Cu5  1  0.23670565  0.25402653  0.54766494  1  0.463467  0  0.280358  0.18645  0  2.384986  0
Cu  Cu6  1  0.23670180  0.29364629  0.74597427  1  0.464734  0  0.280341  0.186251  0  2.384625  0
Cu  Cu7  1  0.93050950  0.33333582  0.66668632  1  0.407359  0  0.193907  0.182677  0  2.799914  0
H  H8  1  0.08083421  0.78014939  0.84401749  1  0.070463  0  0.089849  0.090671  0  1.031452  0
H  H9  1  0.08083196  0.06386759  0.21986425  1  0.072988  0  0.089874  0.09076  0  1.031444  0
H  H10  1  0.08087763  0.15599337  0.93615758  1  0.073083  0  0.089818  0.090736  0  1.03143  0
H  H11  1  0.06624152  0.65356970  0.82811886  1  0.053944  0  0.087713  0.075497  0  1.035997  0
H  H12  1  0.06624037  0.17453127  0.34643429  1  0.051355  0  0.087756  0.075596  0  1.036522  0
H  H13  1  0.06625717  0.17191086  0.82548959  1  0.049583  0  0.087745  0.075564  0  1.036392  0
H  H14  1  0.36567330  0.72373078  0.71983994  1  0.056898  0  0.094464  0.042829  0  1.019231  0
H  H15  1  0.36568072  0.99610375  0.27626850  1  0.059624  0  0.094439  0.042854  0  1.019225  0
H  H16  1  0.36571933  0.28016443  0.00388067  1  0.052727  0  0.094528  0.042961  0  1.019422  0
H  H17  1  0.64107056  0.67357801  0.78260481  1  0.047831  0  0.087661  0.075731  0  1.035537  0
H  H18  1  0.64105817  0.10901558  0.32641551  1  0.046605  0  0.087673  0.075683  0  1.036212  0
H  H19  1  0.64108137  0.21739571  0.89096364  1  0.054337  0  0.087711  0.075775  0  1.036001  0
H  H20  1  0.64786231  0.54833794  0.77130179  1  0.088722  0  0.089551  0.087369  0  1.035911  0
H  H21  1  0.64787242  0.22293640  0.45164383  1  0.085314  0  0.089598  0.087454  0  1.035621  0
H  H22  1  0.64790286  0.22870557  0.77703655  1  0.088193  0  0.08958  0.087327  0  1.035774  0
H  H23  1  0.37086866  0.59410514  0.89527670  1  0.060761  0  0.088445  0.069085  0  1.033368  0
H  H24  1  0.37089808  0.30115753  0.40588415  1  0.057013  0  0.088425  0.069075  0  1.03336  0
H  H25  1  0.37091971  0.10473328  0.69883926  1  0.061135  0  0.088408  0.069093  0  1.033233  0
H  H26  1  0.57259541  0.68445170  0.95142443  1  0.072602  0  0.106367  0.099303  0  0.968382  0
H  H27  1  0.57261289  0.26695086  0.31552666  1  0.067661  0  0.106338  0.099246  0  0.96859  0
H  H28  1  0.57262249  0.04857796  0.73304302  1  0.061261  0  0.106321  0.099193  0  0.968536  0
H  H29  1  0.15937208  0.60496987  0.56287662  1  0.002938  0  0.087534  0.126204  0  1.018262  0
H  H30  1  0.15938044  0.95789341  0.39504602  1  0.034839  0  0.087502  0.126173  0  1.018214  0
H  H31  1  0.15946150  0.43714326  0.04210751  1  0.042354  0  0.087539  0.126265  0  1.018338  0
H  H32  1  0.01484506  0.70743470  0.66026383  1  0.046634  0  0.082992  0.126469  0  1.028211  0
H  H33  1  0.01483576  0.95281602  0.29257988  1  0.04771  0  0.08298  0.126394  0  1.027815  0
H  H34  1  0.01489167  0.33977332  0.04720312  1  0.04413  0  0.082964  0.126426  0  1.027932  0
H  H35  1  0.99756875  0.57958317  0.64271067  1  0.045663  0  0.076392  0.119729  0  1.046433  0
H  H36  1  0.99757302  0.06311073  0.42043153  1  0.03854  0  0.076368  0.119748  0  1.046407  0
H  H37  1  0.99763668  0.35734458  0.93690868  1  0.043759  0  0.076424  0.119937  0  1.046362  0
H  H38  1  0.09211108  0.83245556  0.02420520  1  0.0823  0  0.088064  0.087212  0  1.031239  0
H  H39  1  0.09213480  0.19175700  0.16754622  1  0.082312  0  0.088091  0.087256  0  1.03147  0
H  H40  1  0.09210810  0.97581305  0.80826771  1  0.082215  0  0.088096  0.087375  0  1.031407  0
H  H41  1  0.08722062  0.69828166  0.98522544  1  0.063413  0  0.091491  0.076389  0  1.007894  0
H  H42  1  0.08723344  0.28693879  0.30171772  1  0.038928  0  0.091528  0.076435  0  1.008111  0
H  H43  1  0.08726098  0.01479900  0.71307322  1  0.056809  0  0.091607  0.076583  0  1.008015  0
H  H44  1  0.42693772  0.84172939  0.12547613  1  0.075844  0  0.076936  0.076661  0  1.08968  0
H  H45  1  0.42697317  0.28374394  0.15827395  1  0.088367  0  0.077006  0.07678  0  1.090146  0
H  H46  1  0.42694972  0.87452297  0.71627439  1  0.092241  0  0.076979  0.076632  0  1.089832  0
H  H47  1  0.12325649  0.69445853  0.14409273  1  0.061641  0  0.091036  0.128667  0  1.015288  0
H  H48  1  0.12331102  0.44961154  0.30552123  1  0.070492  0  0.091165  0.128903  0  1.015655  0
H  H49  1  0.12323838  0.85593669  0.55043293  1  0.064027  0  0.091076  0.128791  0  1.015544  0
H  H50  1  0.32709673  0.77203032  0.23710302  1  0.030584  0  0.089647  0.128232  0  1.043745  0
H  H51  1  0.32713076  0.46507480  0.22794689  1  0.026808  0  0.089636  0.128111  0  1.043234  0
H  H52  1  0.32703250  0.76288656  0.53495550  1  0.069712  0  0.089559  0.128241  0  1.0434  0
H  H53  1  0.60408072  0.47161747  0.59730851  1  0.080532  0  0.091213  0.091163  0  1.027407  0
H  H54  1  0.60406985  0.12566854  0.52837949  1  0.106379  0  0.091263  0.091335  0  1.027118  0
H  H55  1  0.60406830  0.40269040  0.87425451  1  0.081456  0  0.09114  0.090912  0  1.027237  0
H  H56  1  0.37769436  0.47835324  0.53906477  1  0.061348  0  0.096351  0.083759  0  1.013343  0
H  H57  1  0.37766934  0.06068557  0.52164697  1  0.053191  0  0.096325  0.083511  0  1.013439  0
H  H58  1  0.37771117  0.46094502  0.93925432  1  0.04912  0  0.096316  0.083567  0  1.013462  0
H  H59  1  0.67853392  0.66244787  0.62911346  1  0.067546  0  0.091149  0.087082  0  1.039493  0
H  H60  1  0.67852663  0.96665510  0.33755378  1  0.060904  0  0.091168  0.087101  0  1.039573  0
H  H61  1  0.67854108  0.37088875  0.03328223  1  0.060439  0  0.09109  0.086837  0  1.04014  0
H  H62  1  0.48888579  0.52552767  0.41272552  1  0.076955  0  0.085964  0.125329  0  1.05991  0
H  H63  1  0.48883860  0.88717615  0.47447739  1  0.06594  0  0.085995  0.125428  0  1.059653  0
H  H64  1  0.48898365  0.58730112  0.11274462  1  0.062152  0  0.086037  0.12542  0  1.060143  0
H  H65  1  0.65702257  0.64006122  0.45503925  1  0.044227  0  0.0921  0.13001  0  1.017152  0
H  H66  1  0.65697254  0.81496481  0.35994455  1  0.029617  0  0.092149  0.130135  0  1.017286  0
H  H67  1  0.65712786  0.54496985  0.18495874  1  0.04657  0  0.092086  0.129928  0  1.01736  0
C  C68  1  0.17026978  0.71180922  0.82870532  1  0.238653  0  -0.087191  -0.125237  0  3.841448  0
C  C69  1  0.17023506  0.11690942  0.28820448  1  0.212093  0  -0.087332  -0.12567  0  3.841761  0
C  C70  1  0.17025752  0.17130058  0.88310725  1  0.211468  0  -0.087267  -0.125488  0  3.841393  0
C  C71  1  0.26550228  0.66543196  0.72188134  1  0.242297  0  -0.008342  0.134769  0  3.826131  0
C  C72  1  0.26549446  0.05642682  0.33457663  1  0.260339  0  -0.008336  0.134777  0  3.826086  0
C  C73  1  0.26555507  0.27814244  0.94357276  1  0.275116  0  -0.00839  0.134695  0  3.825955  0
C  C74  1  0.54900196  0.61324750  0.78531255  1  0.207076  0  -0.088131  -0.09673  0  3.87763  0
C  C75  1  0.54901726  0.17202679  0.38673167  1  0.238079  0  -0.087994  -0.096494  0  3.877543  0
C  C76  1  0.54904418  0.21470188  0.82795161  1  0.230559  0  -0.08803  -0.096518  0  3.877085  0
C  C77  1  0.45455686  0.65657519  0.89181227  1  0.232174  0  -0.078747  -0.077319  0  3.863562  0
C  C78  1  0.45456314  0.23523179  0.34340991  1  0.223894  0  -0.078743  -0.077446  0  3.863183  0
C  C79  1  0.45457778  0.10818088  0.76476219  1  0.216397  0  -0.078741  -0.077281  0  3.862882  0
C  C80  1  0.09997861  0.63705915  0.64185920  1  -0.050279  0  -0.253584  -0.420519  0  3.92986  0
C  C81  1  0.10000779  0.00479830  0.36296194  1  -0.073008  0  -0.253405  -0.420333  0  3.930129  0
C  C82  1  0.10004558  0.35817499  0.99522188  1  -0.08541  0  -0.253587  -0.42078  0  3.929948  0
C  C83  1  0.18786549  0.76546197  0.00797988  1  0.203817  0  -0.081369  -0.079579  0  3.905156  0
C  C84  1  0.18784172  0.24250744  0.23453870  1  0.232343  0  -0.081387  -0.079684  0  3.904422  0
C  C85  1  0.18785473  0.99203824  0.75750338  1  0.214951  0  -0.081613  -0.080323  0  3.905116  0
C  C86  1  0.30097758  0.78752233  0.10349932  1  -0.059127  0  -0.102547  -0.031195  0  4.00608  0
C  C87  1  0.30106336  0.31597370  0.21246358  1  -0.075744  0  -0.102665  -0.031316  0  4.005607  0
C  C88  1  0.30100886  0.89650590  0.68405266  1  -0.046685  0  -0.102481  -0.030618  0  4.005574  0
C  C89  1  0.24875841  0.74872673  0.16419905  1  -0.122496  0  -0.184157  -0.311685  0  3.879723  0
C  C90  1  0.24876851  0.41545780  0.25127787  1  -0.123795  0  -0.184269  -0.311849  0  3.879593  0
C  C91  1  0.24871781  0.83582650  0.58457168  1  -0.19114  0  -0.184211  -0.312184  0  3.87964  0
C  C92  1  0.49068261  0.52578288  0.59773120  1  0.239926  0  -0.083553  -0.083261  0  3.890515  0
C  C93  1  0.49066054  0.07192482  0.47421080  1  0.20021  0  -0.08355  -0.083068  0  3.890048  0
C  C94  1  0.49067410  0.40228012  0.92802816  1  0.2562  0  -0.083376  -0.0826  0  3.889424  0
C  C95  1  0.58838189  0.59930157  0.56944892  1  -0.149076  0  -0.097112  -0.023301  0  3.988714  0
C  C96  1  0.58836491  0.97013453  0.40069930  1  -0.109896  0  -0.097189  -0.023329  0  3.988952  0
C  C97  1  0.58844537  0.43055916  0.02981653  1  -0.122757  0  -0.096916  -0.023024  0  3.989925  0
C  C98  1  0.57670553  0.58809912  0.47458715  1  -0.085142  0  -0.187494  -0.320619  0  3.873469  0
C  C99  1  0.57669520  0.88647419  0.41189864  1  -0.062526  0  -0.187566  -0.320937  0  3.873586  0
C  C100  1  0.57679393  0.52542995  0.11344606  1  -0.090131  0  -0.187666  -0.320805  0  3.874894  0
Br  Br101  1  0.17022042  0.99999776  0.00000341  1  -0.49284  0  -0.1719  -0.260668  0  2.302508  0
Br  Br102  1  0.72936244  0.95009006  0.13128652  1  -0.509083  0  -0.199261  -0.317344  0  1.8049  0
Br  Br103  1  0.72936679  0.18117777  0.04989457  1  -0.509516  0  -0.199224  -0.317311  0  1.804838  0
Br  Br104  1  0.72940384  0.86870309  0.81881309  1  -0.508713  0  -0.199234  -0.317335  0  1.805006  0
Br  Br105  1  0.53766585  0.33329310  0.66660355  1  -0.497195  0  -0.177256  -0.289848  0  2.265333  0
Br  Br106  1  0.99185652  0.48004672  0.84132127  1  -0.50912  0  -0.199192  -0.31366  0  1.786062  0
Br  Br107  1  0.99196614  0.36132657  0.51999034  1  -0.507905  0  -0.199183  -0.313595  0  1.78589  0
Br  Br108  1  0.99189131  0.15867625  0.63871240  1  -0.508309  0  -0.199202  -0.313619  0  1.785985  0
N  N109  1  0.31489672  0.74416839  0.91614035  1  -0.963351  0  -0.356675  -0.068498  0  3.447053  0
N  N110  1  0.31491284  0.17196880  0.25583690  1  -0.978197  0  -0.356621  -0.068116  0  3.446939  0
N  N111  1  0.31492642  0.08387778  0.82803949  1  -0.97058  0  -0.356551  -0.068223  0  3.446788  0
N  N112  1  0.39276196  0.57413106  0.70236900  1  -0.980237  0  -0.350595  -0.102087  0  3.414723  0
N  N113  1  0.39274898  0.12822515  0.42586171  1  -0.981994  0  -0.350716  -0.102366  0  3.415284  0
N  N114  1  0.39278119  0.29763914  0.87175657  1  -0.98679  0  -0.350798  -0.102241  0  3.415066  0
