# generated using pymatgen
data_Li3PuH12C14N2O13
_symmetry_space_group_name_H-M   'P 1'
_cell_length_a   8.61104899
_cell_length_b   9.63062006
_cell_length_c   12.72076771
_cell_angle_alpha   109.39396646
_cell_angle_beta   97.10582524
_cell_angle_gamma   106.17158681
_symmetry_Int_Tables_number   1
_chemical_formula_structural   Li3PuH12C14N2O13
_chemical_formula_sum   'Li6 Pu2 H24 C28 N4 O26'
_cell_volume   928.08728145
_cell_formula_units_Z   2
loop_
 _symmetry_equiv_pos_site_id
 _symmetry_equiv_pos_as_xyz
  1  'x, y, z'
loop_
 _atom_site_type_symbol
 _atom_site_label
 _atom_site_symmetry_multiplicity
 _atom_site_fract_x
 _atom_site_fract_y
 _atom_site_fract_z
 _atom_site_occupancy
 _atom_site_hle17_ddec_charge
 _atom_site_hle17_ddec_spin_density
 _atom_site_hle17_ddec_sum_bond_order
 _atom_site_hle17_magmom
 _atom_site_hse06_10hf_bader_charge
 _atom_site_hse06_10hf_bader_spin_density
 _atom_site_hse06_10hf_ddec_charge
 _atom_site_hse06_10hf_ddec_spin_density
 _atom_site_hse06_10hf_ddec_sum_bond_order
 _atom_site_hse06_10hf_magmom
 _atom_site_hse06_ddec_charge
 _atom_site_hse06_ddec_spin_density
 _atom_site_hse06_ddec_sum_bond_order
 _atom_site_hse06_magmom
 _atom_site_pbe_cm5_charge
 _atom_site_pbe_ddec_charge
 _atom_site_pbe_ddec_spin_density
 _atom_site_pbe_ddec_sum_bond_order
 _atom_site_pbe_magmom
Li  Li0  1  0.37454147  0.59750675  0.45925107  1  0.860426  0.00025  0.401055  0.0  0.864292  -3.1e-05  0.827723  0.000142  0.49519  0.0  0.836956  0.000137  0.478964  0.0  0.5327  0.820901  0.000157  0.507201  0.0
Li  Li1  1  0.62545227  0.40249015  0.54074840  1  0.860394  0.000249  0.401081  0.0  0.864257  -3.1e-05  0.827722  0.000142  0.49518  0.0  0.836943  0.000137  0.478956  0.0  0.532712  0.820902  0.000157  0.507188  0.0
Li  Li2  1  0.16385339  0.29078002  0.29157768  1  0.873068  0.000124  0.365671  0.0  0.876312  6e-06  0.836195  6.4e-05  0.466886  0.0  0.845317  4.8e-05  0.450018  0.0  0.502867  0.829572  8.9e-05  0.478933  0.0
Li  Li3  1  0.83614888  0.70922374  0.70842431  1  0.87306  0.000125  0.365676  0.0  0.876316  6e-06  0.836174  6.4e-05  0.466911  0.0  0.845298  4.8e-05  0.450042  0.0  0.502867  0.829549  8.9e-05  0.478959  0.0
Li  Li4  1  0.34233236  0.97922387  0.88798263  1  0.854322  0.000326  0.399156  0.0  0.864228  -3.4e-05  0.8157  0.000174  0.502377  0.0  0.826459  0.000156  0.48412  0.0  0.520449  0.807844  0.000186  0.5158  0.0
Li  Li5  1  0.65767004  0.02077404  0.11201316  1  0.854365  0.000326  0.399119  0.0  0.864224  -3.4e-05  0.815736  0.000174  0.50234  0.0  0.8265  0.000156  0.484081  0.0  0.52047  0.80789  0.000186  0.515751  0.0
Pu  Pu6  1  0.50751574  0.74750826  0.25247553  1  2.022791  -3.94784  3.583451  -3.798  2.469079  -3.301872  2.066097  -3.373672  4.254127  -3.302  2.251165  -3.408127  4.060482  -3.324  1.747792  1.982619  -3.348878  4.30281  -3.279
Pu  Pu7  1  0.49249212  0.25249181  0.74752523  1  2.02293  -3.947877  3.583498  -3.798  2.469067  -3.301868  2.066099  -3.373659  4.254229  -3.301  2.251104  -3.40813  4.060664  -3.324  1.747784  1.982559  -3.348855  4.303003  -3.279
H  H8  1  0.37108498  0.75711779  0.66986623  1  0.428248  -1e-06  0.869963  0.0  0.65133  1e-06  0.40247  1.7e-05  0.924586  0.0  0.412209  1.6e-05  0.910235  0.0  0.30212  0.395541  2.3e-05  0.934793  0.0
H  H9  1  0.62892175  0.24288233  0.33013366  1  0.428239  -1e-06  0.869984  0.0  0.651479  1e-06  0.402477  1.7e-05  0.924573  0.0  0.412215  1.6e-05  0.910224  0.0  0.302148  0.395549  2.3e-05  0.934779  0.0
H  H10  1  0.44840010  0.87823765  0.61629501  1  0.437204  0.00235  0.860608  0.0  0.656261  0.00082  0.416643  0.001857  0.908612  0.0  0.42754  0.001847  0.892757  0.0  0.304168  0.409015  0.001876  0.919782  0.0
H  H11  1  0.55160619  0.12176131  0.38370376  1  0.437205  0.00235  0.860591  0.0  0.656174  0.000821  0.416641  0.001856  0.908604  0.0  0.427539  0.001847  0.892748  0.0  0.304176  0.40901  0.001876  0.919776  0.0
H  H12  1  0.19148345  0.68278123  0.78164790  1  0.443131  6.1e-05  0.855561  0.0  0.67427  1.5e-05  0.408927  2.2e-05  0.923956  0.0  0.420036  1.3e-05  0.907757  0.0  0.304047  0.401143  3.3e-05  0.935284  0.0
H  H13  1  0.80852216  0.31721895  0.21834955  1  0.443088  6.1e-05  0.855613  0.0  0.674247  1.5e-05  0.408903  2.2e-05  0.923999  0.0  0.420012  1.2e-05  0.9078  0.0  0.304046  0.40112  3.3e-05  0.935326  0.0
H  H14  1  0.38429403  0.70501693  0.82240153  1  0.428541  0.000153  0.828379  0.0  0.63047  0.000127  0.408442  0.000213  0.888317  0.0  0.416984  0.000183  0.877734  0.0  0.331177  0.4023  0.00025  0.895959  0.0
H  H15  1  0.61571204  0.29498442  0.17759626  1  0.428391  0.000153  0.828605  0.0  0.63043  0.000127  0.408319  0.000213  0.888483  0.0  0.416861  0.000183  0.877898  0.0  0.331165  0.402181  0.00025  0.896122  0.0
H  H16  1  0.37402254  0.37201663  0.16708128  1  0.425833  0.001406  0.867857  0.0  0.646852  0.00055  0.4007  0.001223  0.924153  0.0  0.409984  0.0011  0.910587  0.0  0.30657  0.394052  0.001327  0.934014  0.0
H  H17  1  0.62598044  0.62798000  0.83292053  1  0.425841  0.001406  0.867846  0.0  0.646773  0.00055  0.400664  0.001223  0.924199  0.0  0.409946  0.0011  0.910638  0.0  0.306551  0.394015  0.001327  0.934064  0.0
H  H18  1  0.30556761  0.18451631  0.12534766  1  0.434857  -1.2e-05  0.858767  0.0  0.647001  -2.3e-05  0.409638  0.0  0.912241  0.0  0.418553  -2e-06  0.899145  0.0  0.30788  0.403516  1.1e-05  0.921239  0.0
H  H19  1  0.69443098  0.81547807  0.87465318  1  0.434925  -1.2e-05  0.85866  0.0  0.647007  -2.3e-05  0.409695  0.0  0.912163  0.0  0.418609  -2e-06  0.899065  0.0  0.307891  0.403574  1.1e-05  0.921161  0.0
H  H20  1  0.04658403  0.69585368  0.52755716  1  0.122895  0.00018  0.928615  0.0  0.115523  8.8e-05  0.132009  5.9e-05  0.987573  0.0  0.13664  3.9e-05  0.984224  0.0  0.131269  0.128705  8.3e-05  0.989956  0.0
H  H21  1  0.95340033  0.30414340  0.47244701  1  0.122939  0.000181  0.928567  0.0  0.115583  8.8e-05  0.132023  5.9e-05  0.987557  0.0  0.136652  3.9e-05  0.984211  0.0  0.131298  0.128717  8.3e-05  0.989937  0.0
H  H22  1  0.28326365  0.87257397  0.48129850  1  0.111766  0.001421  0.977073  0.0  0.183441  0.000482  0.121775  0.001051  1.038083  0.0  0.126346  0.000996  1.034111  0.0  0.126466  0.1184  0.001073  1.041359  0.0
H  H23  1  0.71672514  0.12741945  0.51870514  1  0.111738  0.001421  0.977042  0.0  0.183364  0.000483  0.121774  0.001051  1.038023  0.0  0.126347  0.000996  1.034046  0.0  0.126464  0.118398  0.001073  1.041295  0.0
H  H24  1  0.21422796  0.01142434  0.35781291  1  0.121343  0.000467  0.925116  0.0  0.114896  0.000246  0.133378  0.000336  0.980589  0.0  0.137609  0.000283  0.977615  0.0  0.128634  0.130285  0.000381  0.98278  0.0
H  H25  1  0.78577174  0.98857591  0.64219032  1  0.121279  0.000468  0.925181  0.0  0.114817  0.000246  0.13332  0.000336  0.980656  0.0  0.137549  0.000283  0.977686  0.0  0.128595  0.130246  0.000381  0.982827  0.0
H  H26  1  0.79901678  0.48482338  0.13343870  1  0.105786  0.000515  0.950891  0.0  0.078438  0.000288  0.116518  0.000423  1.012134  0.0  0.120376  0.000369  1.009379  0.0  0.117118  0.113751  0.000462  1.014106  0.0
H  H27  1  0.20099294  0.51518140  0.86656187  1  0.10578  0.000514  0.95074  0.0  0.078344  0.000287  0.116454  0.000422  1.012054  0.0  0.120312  0.000369  1.009301  0.0  0.117106  0.113687  0.000462  1.014016  0.0
H  H28  1  0.73479415  0.63000139  0.01576879  1  0.115355  0.001106  0.941642  0.0  0.150555  0.000399  0.127958  0.000868  0.998074  0.0  0.132215  0.000809  0.99493  0.0  0.125671  0.124702  0.000897  1.000923  0.0
H  H29  1  0.26520713  0.37000593  0.98423637  1  0.115341  0.001107  0.941725  0.0  0.150595  0.0004  0.127959  0.000868  0.998118  0.0  0.132218  0.000809  0.99497  0.0  0.125668  0.124679  0.000897  1.000998  0.0
H  H30  1  0.97697099  0.83311437  0.99252278  1  0.127618  0.000179  0.928555  0.0  0.124475  9.3e-05  0.135155  6.7e-05  0.990242  0.0  0.139849  4.5e-05  0.986573  0.0  0.129764  0.131684  9.4e-05  0.993027  0.0
H  H31  1  0.02303321  0.16689755  0.00748696  1  0.127631  0.000178  0.928454  0.0  0.125029  9.2e-05  0.135126  6.7e-05  0.9902  0.0  0.13982  4.5e-05  0.986531  0.0  0.129762  0.131667  9.4e-05  0.99297  0.0
C  C32  1  0.71437883  0.65184305  0.45764970  1  0.691079  -2.9e-05  3.888304  -0.001  1.628061  -0.000856  0.64864  -3.4e-05  4.17635  -0.001  0.683377  4e-05  4.165458  -0.001  0.25485  0.625071  -0.000158  4.184184  -0.001
C  C33  1  0.28561263  0.34815394  0.54234801  1  0.691161  -3e-05  3.888325  -0.001  1.628065  -0.000856  0.648818  -3.4e-05  4.176366  -0.001  0.68355  4.1e-05  4.165481  -0.001  0.254953  0.625246  -0.000158  4.184201  -0.001
C  C34  1  0.86106763  0.73854393  0.42492712  1  0.085385  -0.00074  3.759793  -0.002  0.483137  -0.001813  0.095145  -0.000402  4.003734  -0.001  0.09514  -0.000408  4.026537  -0.001  0.121017  0.094563  -0.000611  3.990421  -0.002
C  C35  1  0.13891916  0.26145316  0.57507177  1  0.085566  -0.000733  3.759548  -0.002  0.483412  -0.001812  0.095004  -0.000402  4.003932  -0.001  0.094997  -0.000407  4.026739  -0.001  0.120988  0.094422  -0.000611  3.990616  -0.002
C  C36  1  0.02419063  0.75624166  0.47163343  1  -0.092334  0.003557  3.661045  0.003  0.018954  0.001038  -0.118378  0.001137  3.912294  0.001  -0.120843  0.001324  3.928054  0.001  -0.056209  -0.116468  0.001027  3.901434  0.001
C  C37  1  0.97579683  0.24375421  0.52836678  1  -0.092413  0.003537  3.660909  0.003  0.018952  0.001038  -0.118348  0.001136  3.912276  0.001  -0.120814  0.001323  3.928036  0.001  -0.056208  -0.116431  0.001027  3.901403  0.001
C  C38  1  0.15430621  0.85368007  0.44646512  1  0.006789  -0.000886  3.671404  -0.002  -0.045705  -0.001588  -0.014406  -0.000159  3.929662  -0.001  -0.011338  -0.000129  3.943179  -0.001  -0.046867  -0.016755  -0.000585  3.920659  -0.001
C  C39  1  0.84568558  0.14631801  0.55353919  1  0.006913  -0.000878  3.67131  -0.002  -0.045782  -0.001588  -0.014261  -0.000159  3.929489  -0.001  -0.011188  -0.000128  3.942997  -0.001  -0.046812  -0.0166  -0.000585  3.920466  -0.001
C  C40  1  0.11665874  0.93115668  0.37740645  1  -0.080031  0.004004  3.656393  0.003  0.019103  0.001099  -0.107526  0.001439  3.907024  0.001  -0.109818  0.001632  3.923657  0.001  -0.057348  -0.105552  0.001267  3.895454  0.001
C  C41  1  0.88333628  0.06884367  0.62259873  1  -0.080156  0.003984  3.656601  0.003  0.01886  0.001099  -0.107694  0.00144  3.907251  0.001  -0.109988  0.001631  3.923886  0.001  -0.057431  -0.105735  0.001267  3.895669  0.001
C  C42  1  0.95009106  0.90266369  0.33126174  1  0.082177  -0.000884  3.781857  -0.003  0.422615  -0.001772  0.093627  -0.00043  4.022659  -0.001  0.093471  -0.000439  4.046765  -0.001  0.120029  0.09309  -0.000628  4.008651  -0.002
C  C43  1  0.04990479  0.09733555  0.66873616  1  0.082214  -0.000877  3.782  -0.003  0.422756  -0.001772  0.093715  -0.00043  4.022703  -0.001  0.093558  -0.000439  4.046812  -0.001  0.120092  0.093173  -0.000627  4.008706  -0.002
C  C44  1  0.90037558  0.97966686  0.25445755  1  0.66219  3.9e-05  3.941958  -0.001  1.651705  -0.000726  0.61913  -2e-06  4.233928  -0.001  0.652462  8.9e-05  4.226703  0.0  0.231971  0.596519  -0.000124  4.239071  -0.001
C  C45  1  0.09960691  0.02032211  0.74553574  1  0.662121  3.8e-05  3.942013  -0.001  1.651973  -0.000726  0.61907  -2e-06  4.233947  -0.001  0.652399  8.9e-05  4.226725  0.0  0.231877  0.596461  -0.000124  4.239089  -0.001
C  C46  1  0.11488056  0.52548490  0.24936312  1  0.641366  -2.1e-05  3.933959  -0.001  1.639133  -0.000784  0.592914  -5.8e-05  4.231093  -0.001  0.626749  3.3e-05  4.22437  0.0  0.231881  0.569947  -0.000223  4.236379  -0.001
C  C47  1  0.88512432  0.47451646  0.75063614  1  0.641523  -2e-05  3.93382  -0.001  1.639119  -0.000784  0.593017  -5.8e-05  4.23102  -0.001  0.626846  3.3e-05  4.224295  0.0  0.231974  0.570038  -0.000222  4.236326  -0.001
C  C48  1  0.06499805  0.60073691  0.17121924  1  0.082714  -0.000799  3.781069  -0.002  0.438806  -0.001737  0.094562  -0.000439  4.023092  -0.001  0.093743  -0.00044  4.047627  -0.001  0.118521  0.094501  -0.000657  4.008895  -0.002
C  C49  1  0.93500885  0.39926673  0.82878313  1  0.082671  -0.000802  3.780935  -0.002  0.438915  -0.001738  0.094599  -0.000439  4.022879  -0.001  0.093783  -0.000441  4.047409  -0.001  0.118486  0.094529  -0.000658  4.008705  -0.002
C  C50  1  0.89940392  0.57004653  0.12042150  1  -0.07739  0.003304  3.662247  0.002  0.042378  0.000926  -0.104244  0.001226  3.912924  0.001  -0.106467  0.001412  3.930988  0.001  -0.059906  -0.102757  0.001018  3.900922  0.001
C  C51  1  0.10060467  0.42995235  0.87957825  1  -0.077401  0.003311  3.661978  0.002  0.042511  0.000928  -0.104225  0.001228  3.912629  0.001  -0.10645  0.001412  3.930693  0.001  -0.059917  -0.102731  0.001018  3.900621  0.001
C  C52  1  0.86391497  0.65278906  0.05475429  1  0.00453  -0.00108  3.660079  -0.002  0.005878  -0.001604  -0.016207  -0.000356  3.918019  -0.001  -0.014302  -0.00032  3.93309  -0.001  -0.047254  -0.017873  -0.000789  3.908574  -0.002
C  C53  1  0.13608796  0.34721348  0.94524980  1  0.004462  -0.001083  3.659998  -0.002  0.005765  -0.001606  -0.016259  -0.000357  3.917899  -0.001  -0.014353  -0.000321  3.932967  -0.001  -0.047287  -0.017906  -0.00079  3.908469  -0.002
C  C54  1  0.99595767  0.76325504  0.04164205  1  -0.081091  0.003128  3.642786  0.002  -0.035116  0.0009  -0.107735  0.001004  3.89415  0.001  -0.109452  0.00119  3.909744  0.001  -0.054407  -0.106743  0.000882  3.883875  0.001
C  C55  1  0.00404420  0.23675694  0.95836829  1  -0.081004  0.003134  3.64253  0.002  -0.035791  0.000901  -0.107664  0.001004  3.893922  0.001  -0.10938  0.001191  3.909515  0.001  -0.05435  -0.106678  0.000883  3.883637  0.001
C  C56  1  0.15818073  0.78361087  0.09277643  1  0.098053  -0.000659  3.735119  -0.002  0.506851  -0.001634  0.108283  -0.000324  3.979507  -0.001  0.108522  -0.000322  4.00124  -0.001  0.125805  0.10759  -0.000573  3.966782  -0.002
C  C57  1  0.84182020  0.21638940  0.90722298  1  0.097949  -0.000662  3.735194  -0.002  0.50697  -0.001633  0.108266  -0.000323  3.979519  -0.001  0.108501  -0.000323  4.001246  -0.001  0.125785  0.107573  -0.000573  3.966802  -0.002
C  C58  1  0.30731855  0.89344999  0.07751841  1  0.666355  -6e-05  3.91232  -0.001  1.631468  -0.000795  0.618969  -5.1e-05  4.208434  -0.001  0.65378  2.2e-05  4.197982  0.0  0.242628  0.59551  -0.000194  4.215787  -0.001
C  C59  1  0.69268920  0.10654660  0.92247674  1  0.666465  -5.9e-05  3.912033  -0.001  1.631667  -0.000796  0.619021  -5.1e-05  4.208196  -0.001  0.65384  2.2e-05  4.197732  0.0  0.242647  0.595563  -0.000194  4.21555  -0.001
N  N60  1  0.82377912  0.80599022  0.35276145  1  -0.371468  0.029072  3.264783  0.028  -1.236436  0.004837  -0.350206  0.009857  3.537422  0.011  -0.376157  0.00885  3.566081  0.01  -0.331918  -0.337127  0.010846  3.520057  0.012
N  N61  1  0.17621547  0.19401492  0.64724177  1  -0.371489  0.029054  3.26484  0.028  -1.236642  0.004839  -0.35014  0.009857  3.537553  0.011  -0.376083  0.008847  3.566209  0.01  -0.331887  -0.337058  0.010846  3.520192  0.012
N  N62  1  0.19276626  0.70410431  0.15629366  1  -0.367072  0.026364  3.256895  0.025  -1.223879  0.004469  -0.34514  0.00933  3.527789  0.01  -0.370259  0.00843  3.555965  0.01  -0.327328  -0.332449  0.010007  3.510548  0.011
N  N63  1  0.80723627  0.29589709  0.84370697  1  -0.367013  0.026369  3.256841  0.025  -1.223909  0.004467  -0.345128  0.00933  3.527705  0.01  -0.370237  0.008432  3.555875  0.01  -0.327287  -0.332424  0.010006  3.510467  0.011
O  O64  1  0.50202818  0.56254472  0.14453275  1  -0.740796  0.390992  1.494191  0.341  -0.923999  0.148141  -0.769216  0.161803  1.811259  0.143  -0.822141  0.18235  1.784533  0.164  -0.735191  -0.74116  0.147482  1.820799  0.129
O  O65  1  0.49797024  0.43745209  0.85546476  1  -0.740804  0.390966  1.494187  0.341  -0.923927  0.148137  -0.769225  0.161798  1.811304  0.143  -0.822131  0.182338  1.784588  0.164  -0.735193  -0.741148  0.14748  1.820852  0.129
O  O66  1  0.40834720  0.76484167  0.60099137  1  -0.909403  0.005178  1.731704  0.005  -1.335239  0.00289  -0.868617  0.002926  1.878332  0.003  -0.884708  0.002832  1.845956  0.003  -0.653804  -0.857157  0.002968  1.900797  0.003
O  O67  1  0.59165748  0.23515616  0.39900618  1  -0.909395  0.00518  1.731716  0.005  -1.335292  0.00289  -0.868619  0.002926  1.878343  0.003  -0.884704  0.002832  1.845963  0.003  -0.653842  -0.857155  0.002968  1.900811  0.003
O  O68  1  0.50576938  0.92594751  0.36342957  1  -0.723951  0.384726  1.579866  0.336  -0.920481  0.146465  -0.74899  0.159715  1.90364  0.142  -0.803344  0.179085  1.880941  0.161  -0.719162  -0.719736  0.145921  1.91115  0.128
O  O69  1  0.49422583  0.07405297  0.63656622  1  -0.724014  0.384684  1.580032  0.336  -0.920518  0.146459  -0.748967  0.159709  1.903806  0.142  -0.803301  0.179071  1.881119  0.161  -0.719153  -0.719681  0.145914  1.911304  0.128
O  O70  1  0.30960037  0.75446524  0.79885400  1  -0.868696  0.000235  1.806832  0.0  -1.305066  0.000138  -0.816921  0.000194  1.975882  0.0  -0.833722  0.00016  1.945944  0.0  -0.598996  -0.805055  0.000219  1.996942  0.0
O  O71  1  0.69040407  0.24553496  0.20114414  1  -0.86849  0.000236  1.807004  0.0  -1.305005  0.000138  -0.816767  0.000194  1.97599  0.0  -0.833569  0.00016  1.946046  0.0  -0.598997  -0.80491  0.000219  1.997048  0.0
O  O72  1  0.57224584  0.63750758  0.40408237  1  -0.715779  0.018143  2.088675  0.019  -1.219662  -0.000318  -0.682738  0.004301  2.350086  0.006  -0.71808  0.003634  2.337784  0.006  -0.386858  -0.662849  0.004919  2.357116  0.007
O  O73  1  0.42774199  0.36248006  0.59591106  1  -0.715811  0.018139  2.088693  0.019  -1.219435  -0.000314  -0.682806  0.004301  2.350127  0.006  -0.718115  0.003632  2.337783  0.006  -0.386926  -0.66291  0.004918  2.357157  0.007
O  O74  1  0.31785208  0.28409874  0.18746873  1  -0.890558  0.001994  1.756238  0.002  -1.311059  0.00128  -0.847321  0.001297  1.906359  0.001  -0.86335  0.001165  1.876475  0.001  -0.622007  -0.836083  0.001385  1.926957  0.001
O  O75  1  0.68215160  0.71589668  0.81253283  1  -0.890635  0.001995  1.756122  0.002  -1.310975  0.00128  -0.847334  0.001298  1.906312  0.001  -0.863356  0.001165  1.876438  0.001  -0.621998  -0.8361  0.001385  1.926911  0.001
O  O76  1  0.74543161  0.92559512  0.20412903  1  -0.734132  0.021054  2.077501  0.022  -1.235254  -0.000369  -0.699049  0.00429  2.338664  0.007  -0.736282  0.003503  2.32905  0.006  -0.408906  -0.677358  0.005134  2.34371  0.008
O  O77  1  0.25456450  0.07440770  0.79586744  1  -0.734158  0.021066  2.076985  0.022  -1.235477  -0.000366  -0.699064  0.004293  2.338119  0.007  -0.73629  0.003502  2.328504  0.006  -0.408892  -0.677352  0.005136  2.343162  0.008
O  O78  1  0.73906234  0.60268922  0.53699166  1  -0.76733  0.003993  1.967397  0.003  -1.268482  0.00037  -0.727425  0.000802  2.206925  0.0  -0.744879  0.000523  2.187239  0.0  -0.417264  -0.714651  0.001098  2.219589  0.001
O  O79  1  0.26092884  0.39731012  0.46300820  1  -0.767461  0.003993  1.967516  0.003  -1.268531  0.00037  -0.72753  0.000802  2.206988  0.0  -0.744995  0.000523  2.187315  0.0  -0.417304  -0.714753  0.001099  2.219653  0.001
O  O80  1  0.00855837  0.08837300  0.24331554  1  -0.688574  0.006199  1.940846  0.005  -1.23497  0.000409  -0.650447  0.000795  2.173957  0.0  -0.670938  0.000446  2.16219  0.0  -0.381495  -0.635497  0.001262  2.181224  0.001
O  O81  1  0.99144892  0.91163175  0.75669108  1  -0.688456  0.006197  1.941385  0.005  -1.234918  0.000409  -0.650337  0.000796  2.174478  0.0  -0.670827  0.000446  2.162714  0.0  -0.381406  -0.635385  0.001263  2.181744  0.001
O  O82  1  0.26704341  0.58428603  0.30553968  1  -0.727035  0.017832  2.122443  0.019  -1.235841  -0.000778  -0.691316  0.003891  2.394477  0.006  -0.727654  0.003293  2.384543  0.006  -0.379682  -0.670586  0.004475  2.399977  0.007
O  O83  1  0.73296173  0.41571891  0.69445815  1  -0.727183  0.017832  2.122444  0.019  -1.235914  -0.000779  -0.691426  0.003891  2.394448  0.006  -0.727786  0.003291  2.384582  0.006  -0.379775  -0.670685  0.004476  2.399951  0.007
O  O84  1  0.44614000  0.87936450  0.10940160  1  -0.719363  0.016387  2.077768  0.017  -1.22068  -0.000268  -0.68636  0.003778  2.338617  0.006  -0.72136  0.003094  2.326568  0.005  -0.382217  -0.666565  0.004423  2.345611  0.007
O  O85  1  0.55386342  0.12062989  0.89058946  1  -0.719382  0.016388  2.077683  0.017  -1.220544  -0.000267  -0.686367  0.003779  2.338565  0.006  -0.721364  0.003092  2.32651  0.005  -0.382205  -0.666556  0.004423  2.345558  0.007
O  O86  1  0.01074220  0.40941438  0.25711934  1  -0.668204  0.003772  2.003683  0.003  -1.235376  0.000412  -0.616897  0.000761  2.232835  0.0  -0.639224  0.000499  2.220534  0.0  -0.327879  -0.601071  0.001002  2.2407  0.001
O  O87  1  0.98925784  0.59058356  0.74287860  1  -0.668223  0.003771  2.003655  0.003  -1.235427  0.000412  -0.616902  0.000761  2.232826  0.0  -0.639226  0.0005  2.220529  0.0  -0.327901  -0.601075  0.001002  2.240701  0.001
O  O88  1  0.28781432  0.98930840  0.03295240  1  -0.710618  0.004563  1.96033  0.004  -1.248277  0.000508  -0.661472  0.000863  2.186985  0.001  -0.681177  0.00056  2.169469  0.0  -0.370706  -0.647377  0.001132  2.198247  0.001
O  O89  1  0.71219150  0.01069533  0.96704597  1  -0.710693  0.00456  1.960122  0.004  -1.248575  0.000508  -0.661518  0.000863  2.186797  0.001  -0.681225  0.000561  2.169276  0.0  -0.370725  -0.647425  0.001132  2.198055  0.001
