# generated using pymatgen
data_CuH8C5N3O
_symmetry_space_group_name_H-M   'P 1'
_cell_length_a   9.89534454
_cell_length_b   11.42432836
_cell_length_c   11.43997727
_cell_angle_alpha   112.03182236
_cell_angle_beta   106.83266028
_cell_angle_gamma   106.85321551
_symmetry_Int_Tables_number   1
_chemical_formula_structural   CuH8C5N3O
_chemical_formula_sum   'Cu6 H48 C30 N18 O6'
_cell_volume   1025.18167001
_cell_formula_units_Z   6
loop_
 _symmetry_equiv_pos_site_id
 _symmetry_equiv_pos_as_xyz
  1  'x, y, z'
loop_
 _atom_site_type_symbol
 _atom_site_label
 _atom_site_symmetry_multiplicity
 _atom_site_fract_x
 _atom_site_fract_y
 _atom_site_fract_z
 _atom_site_occupancy
 _atom_site_pbe_bader_charge
 _atom_site_pbe_bader_spin_density
 _atom_site_pbe_cm5_charge
 _atom_site_pbe_ddec_charge
 _atom_site_pbe_ddec_spin_density
 _atom_site_pbe_ddec_sum_bond_order
 _atom_site_pbe_magmom
Cu  Cu0  1  0.90002707  0.54052117  0.58287977  1  0.618428  0  0.460065  0.330454  0  2.169489  0
Cu  Cu1  1  0.35808049  0.04139882  0.45909554  1  0.618698  0  0.459173  0.330531  0  2.166652  0
Cu  Cu2  1  0.31783763  0.41744199  0.95856719  1  0.619274  0  0.459362  0.330908  0  2.168827  0
Cu  Cu3  1  0.09997000  0.45948274  0.41712791  1  0.618322  0  0.460045  0.330526  0  2.169276  0
Cu  Cu4  1  0.64190248  0.95859875  0.54090151  1  0.618744  0  0.459185  0.330571  0  2.166468  0
Cu  Cu5  1  0.68215436  0.58254822  0.04141471  1  0.619348  0  0.459372  0.330805  0  2.168538  0
H  H6  1  0.04264802  0.35960334  0.72567772  1  0.146677  0  0.118551  0.062782  0  1.045956  0
H  H7  1  0.12914574  0.77808858  0.12889066  1  0.083633  0  0.109238  0.132359  0  1.01889  0
H  H8  1  0.88577466  0.65266925  0.89637669  1  0.070769  0  0.107194  0.066  0  1.016511  0
H  H9  1  0.39426229  0.80911018  0.23850232  1  0.530388  0  0.284093  0.308531  0  1.018456  0
H  H10  1  0.44676826  0.67196007  0.15349744  1  0.448513  0  0.293376  0.281739  0  0.995311  0
H  H11  1  0.86624130  0.16013626  0.15517821  1  -0.003577  0  0.069531  0.053316  0  1.030396  0
H  H12  1  0.69690193  0.13835700  0.18667912  1  0.033472  0  0.081423  0.075488  0  1.024669  0
H  H13  1  0.76941644  0.26627184  0.13935552  1  0.00325  0  0.075635  0.067333  0  1.05518  0
H  H14  1  0.68160477  0.36448858  0.63919420  1  0.117313  0  0.118606  0.062369  0  1.047091  0
H  H15  1  0.35053902  0.35113266  0.22166922  1  0.098603  0  0.110411  0.13291  0  1.017605  0
H  H16  1  0.23157448  0.24395606  0.34622724  1  0.095048  0  0.106791  0.065235  0  1.018623  0
H  H17  1  0.58546290  0.42908216  0.19142485  1  0.539102  0  0.284228  0.309852  0  1.017018  0
H  H18  1  0.77482382  0.48019922  0.32850581  1  0.454388  0  0.293035  0.282442  0  0.995697  0
H  H19  1  0.70718497  0.99574156  0.83991406  1  -0.004194  0  0.069252  0.051464  0  1.029962  0
H  H20  1  0.55860242  0.04800339  0.86024779  1  0.009838  0  0.080911  0.075201  0  1.026286  0
H  H21  1  0.50409185  0.87296199  0.73241304  1  0.013743  0  0.074824  0.066953  0  1.055736  0
H  H22  1  0.31614476  0.27424218  0.63406681  1  0.145348  0  0.118131  0.062381  0  1.046291  0
H  H23  1  0.99983362  0.87089796  0.64993375  1  0.097072  0  0.110469  0.132869  0  1.017739  0
H  H24  1  0.98945788  0.10344464  0.75735717  1  0.072702  0  0.107967  0.066517  0  1.016235  0
H  H25  1  0.15573986  0.76182813  0.57152072  1  0.546472  0  0.284572  0.309277  0  1.017488  0
H  H26  1  0.29264524  0.84691368  0.51895790  1  0.453874  0  0.292978  0.282304  0  0.995985  0
H  H27  1  0.71057561  0.84484642  0.00407297  1  0.007921  0  0.069047  0.052853  0  1.029892  0
H  H28  1  0.50946985  0.81278205  0.95184221  1  0.020246  0  0.08092  0.075285  0  1.024988  0
H  H29  1  0.63069513  0.86013412  0.12665632  1  0.011895  0  0.075124  0.066733  0  1.057018  0
H  H30  1  0.95735606  0.64038900  0.27429959  1  0.146874  0  0.118541  0.06274  0  1.04583  0
H  H31  1  0.87082139  0.22191331  0.87105940  1  0.083165  0  0.109243  0.132332  0  1.018953  0
H  H32  1  0.11419731  0.34730410  0.10356553  1  0.070701  0  0.107132  0.065996  0  1.016396  0
H  H33  1  0.60569734  0.19088423  0.76147913  1  0.530322  0  0.284137  0.308566  0  1.01838  0
H  H34  1  0.55320911  0.32805341  0.84647684  1  0.448673  0  0.293413  0.281926  0  0.994938  0
H  H35  1  0.13382357  0.83987400  0.84485004  1  -0.002987  0  0.069439  0.053174  0  1.030336  0
H  H36  1  0.30313060  0.86160258  0.81329955  1  0.005673  0  0.081366  0.075475  0  1.024751  0
H  H37  1  0.23061099  0.73370991  0.86063976  1  0.003352  0  0.075703  0.067336  0  1.055098  0
H  H38  1  0.31839981  0.63548892  0.36080003  1  0.118075  0  0.118657  0.062422  0  1.047106  0
H  H39  1  0.64945300  0.64886278  0.77833756  1  0.098514  0  0.11039  0.132927  0  1.017546  0
H  H40  1  0.76842780  0.75604574  0.65377977  1  0.094922  0  0.106827  0.065248  0  1.018622  0
H  H41  1  0.41452781  0.57092066  0.80858813  1  0.539111  0  0.284248  0.309963  0  1.01682  0
H  H42  1  0.22517253  0.51979199  0.67150189  1  0.454366  0  0.293064  0.282435  0  0.99584  0
H  H43  1  0.29284160  0.00432469  0.16012893  1  -0.004583  0  0.069236  0.051473  0  1.030037  0
H  H44  1  0.44135824  0.95197723  0.13975111  1  0.010101  0  0.080893  0.075255  0  1.026251  0
H  H45  1  0.49595865  0.12704298  0.26760845  1  0.01348  0  0.074831  0.067047  0  1.055825  0
H  H46  1  0.68383598  0.72576277  0.36593801  1  0.145705  0  0.118169  0.062401  0  1.046137  0
H  H47  1  0.00019583  0.12911965  0.35010346  1  0.097042  0  0.110462  0.132811  0  1.017749  0
H  H48  1  0.01055706  0.89656346  0.24266980  1  0.072343  0  0.10791  0.066493  0  1.016269  0
H  H49  1  0.84429586  0.23818953  0.42850200  1  0.546976  0  0.284542  0.309287  0  1.017338  0
H  H50  1  0.70739423  0.15311664  0.48107854  1  0.45324  0  0.292944  0.282171  0  0.996142  0
H  H51  1  0.28936492  0.15512479  0.99586470  1  0.008047  0  0.068927  0.052712  0  1.030007  0
H  H52  1  0.49050147  0.18724077  0.04820552  1  0.019054  0  0.080853  0.075297  0  1.024858  0
H  H53  1  0.36936928  0.13989625  0.87336502  1  0.0122  0  0.075181  0.066642  0  1.057239  0
C  C54  1  0.10936489  0.68606269  0.03673566  1  0.04305  0  -0.09427  -0.269863  0  3.918963  0
C  C55  1  0.06142450  0.45559720  0.81361579  1  1.042165  0  0.158138  0.23003  0  3.984198  0
C  C56  1  0.97790476  0.61736971  0.90945482  1  0.424464  0  0.036662  0.115813  0  4.035429  0
C  C57  1  0.22561135  0.63624202  0.04692875  1  1.017378  0  0.232808  0.46269  0  4.039017  0
C  C58  1  0.80592510  0.21788285  0.20209278  1  0.440126  0  -0.181426  -0.113443  0  4.052472  0
C  C59  1  0.42256573  0.35067570  0.31354597  1  0.032997  0  -0.097215  -0.271718  0  3.919665  0
C  C60  1  0.60458131  0.35688963  0.54344017  1  1.051596  0  0.159679  0.232159  0  3.98894  0
C  C61  1  0.35924019  0.29192582  0.38170962  1  0.422452  0  0.038744  0.117624  0  4.034167  0
C  C62  1  0.58890915  0.41032722  0.36370338  1  0.972557  0  0.233813  0.463459  0  4.039851  0
C  C63  1  0.58894189  0.98451232  0.78141940  1  0.455775  0  -0.180133  -0.111308  0  4.049913  0
C  C64  1  0.07220393  0.96312638  0.65000863  1  0.052707  0  -0.096865  -0.271873  0  3.920689  0
C  C65  1  0.24718988  0.18631818  0.64231582  1  1.032517  0  0.162265  0.234448  0  3.985504  0
C  C66  1  0.06823895  0.09038308  0.70873638  1  0.400198  0  0.037183  0.116899  0  4.035854  0
C  C67  1  0.17816010  0.95312303  0.58992283  1  1.011223  0  0.235987  0.466594  0  4.038181  0
C  C68  1  0.60360455  0.79755750  0.01529376  1  0.438479  0  -0.180455  -0.112292  0  4.051164  0
C  C69  1  0.89060922  0.31393072  0.96322204  1  0.042922  0  -0.094238  -0.269717  0  3.918655  0
C  C70  1  0.93857623  0.54440256  0.18635331  1  1.042736  0  0.158212  0.230137  0  3.983589  0
C  C71  1  0.02207132  0.38261948  0.09049983  1  0.425569  0  0.036643  0.115707  0  4.035386  0
C  C72  1  0.77435991  0.36375346  0.95304847  1  0.987946  0  0.232685  0.46231  0  4.039271  0
C  C73  1  0.19410403  0.78209995  0.79790501  1  0.467272  0  -0.181385  -0.113329  0  4.052215  0
C  C74  1  0.57742883  0.64931765  0.68645172  1  0.032941  0  -0.097207  -0.271763  0  3.919911  0
C  C75  1  0.39541175  0.64309209  0.45655431  1  1.050767  0  0.159679  0.232155  0  3.988719  0
C  C76  1  0.64076288  0.70806434  0.61829727  1  0.42325  0  0.038759  0.117697  0  4.033915  0
C  C77  1  0.41109041  0.58966929  0.63630009  1  0.972328  0  0.233906  0.463542  0  4.040148  0
C  C78  1  0.41106595  0.01550426  0.21859816  1  0.456182  0  -0.180119  -0.111526  0  4.05022  0
C  C79  1  0.92782332  0.03689019  0.35001897  1  0.052915  0  -0.096858  -0.271836  0  3.920365  0
C  C80  1  0.75282288  0.81369522  0.35770409  1  1.032051  0  0.162201  0.234436  0  3.985424  0
C  C81  1  0.93177205  0.90962397  0.29128588  1  0.400276  0  0.037336  0.117012  0  4.035593  0
C  C82  1  0.82185117  0.04689039  0.41009065  1  1.011596  0  0.236034  0.466687  0  4.038071  0
C  C83  1  0.39637811  0.20244746  0.98470882  1  0.439328  0  -0.1803  -0.111961  0  4.051121  0
N  N84  1  0.95424136  0.50366946  0.79357869  1  -1.239634  0  -0.346539  -0.327323  0  3.42888  0
N  N85  1  0.19389020  0.51295063  0.93409289  1  -1.229877  0  -0.394038  -0.354294  0  3.654368  0
N  N86  1  0.36259693  0.70404912  0.16329077  1  -1.298173  0  -0.563461  -0.588335  0  3.326879  0
N  N87  1  0.44893744  0.28912479  0.49504775  1  -1.231886  0  -0.347993  -0.328718  0  3.432052  0
N  N88  1  0.68021845  0.42032641  0.48676969  1  -1.21255  0  -0.395434  -0.355879  0  3.655906  0
N  N89  1  0.65868278  0.45893437  0.29646929  1  -1.298666  0  -0.562252  -0.588557  0  3.325986  0
N  N90  1  0.16041266  0.20630642  0.71071115  1  -1.24982  0  -0.350179  -0.331438  0  3.433698  0
N  N91  1  0.25913213  0.06592426  0.57926353  1  -1.208149  0  -0.39607  -0.357449  0  3.656726  0
N  N92  1  0.19878322  0.83691519  0.54146296  1  -1.315486  0  -0.563307  -0.589479  0  3.328039  0
N  N93  1  0.04574319  0.49630386  0.20638007  1  -1.240919  0  -0.346413  -0.32726  0  3.42876  0
N  N94  1  0.80609726  0.48704169  0.06588457  1  -1.229769  0  -0.394058  -0.353997  0  3.654118  0
N  N95  1  0.63737323  0.29595059  0.83668705  1  -1.268827  0  -0.563545  -0.588511  0  3.326793  0
N  N96  1  0.55106340  0.71085377  0.50494527  1  -1.23206  0  -0.348102  -0.328842  0  3.431481  0
N  N97  1  0.31978263  0.57967116  0.51323363  1  -1.212898  0  -0.395428  -0.355917  0  3.656003  0
N  N98  1  0.34131881  0.54106741  0.70354283  1  -1.298309  0  -0.562361  -0.588726  0  3.326083  0
N  N99  1  0.83958473  0.79369958  0.28930181  1  -1.249543  0  -0.350248  -0.331525  0  3.433653  0
N  N100  1  0.74087675  0.93408810  0.42075254  1  -1.208443  0  -0.396104  -0.357495  0  3.656652  0
N  N101  1  0.80123474  0.16309399  0.45855542  1  -1.315629  0  -0.563276  -0.589387  0  3.328134  0
O  O102  1  0.90020841  0.31808046  0.34772939  1  -1.131489  0  -0.447101  -0.533827  0  2.587756  0
O  O103  1  0.58381339  0.03065743  0.68196968  1  -1.133583  0  -0.446991  -0.533808  0  2.584279  0
O  O104  1  0.55210085  0.65169889  0.96913666  1  -1.137296  0  -0.446473  -0.534306  0  2.586547  0
O  O105  1  0.09978762  0.68191817  0.65226896  1  -1.131643  0  -0.44707  -0.53373  0  2.587709  0
O  O106  1  0.41617194  0.96933801  0.31803050  1  -1.133566  0  -0.446958  -0.533699  0  2.584286  0
O  O107  1  0.44787085  0.34830497  0.03087991  1  -1.137223  0  -0.44648  -0.534383  0  2.586728  0
