# generated using pymatgen
data_CdH4C4N3ClO2
_symmetry_space_group_name_H-M   'P 1'
_cell_length_a   6.92344449
_cell_length_b   7.96648102
_cell_length_c   12.75424855
_cell_angle_alpha   90.00000762
_cell_angle_beta   90.00019032
_cell_angle_gamma   108.64945756
_symmetry_Int_Tables_number   1
_chemical_formula_structural   CdH4C4N3ClO2
_chemical_formula_sum   'Cd4 H16 C16 N12 Cl4 O8'
_cell_volume   666.52969595
_cell_formula_units_Z   4
loop_
 _symmetry_equiv_pos_site_id
 _symmetry_equiv_pos_as_xyz
  1  'x, y, z'
loop_
 _atom_site_type_symbol
 _atom_site_label
 _atom_site_symmetry_multiplicity
 _atom_site_fract_x
 _atom_site_fract_y
 _atom_site_fract_z
 _atom_site_occupancy
 _atom_site_hle17_bader_spin_density
 _atom_site_hle17_ddec_charge
 _atom_site_hle17_ddec_spin_density
 _atom_site_hle17_ddec_sum_bond_order
 _atom_site_hle17_magmom
 _atom_site_hse06_10hf_bader_spin_density
 _atom_site_hse06_10hf_ddec_charge
 _atom_site_hse06_10hf_ddec_spin_density
 _atom_site_hse06_10hf_ddec_sum_bond_order
 _atom_site_hse06_10hf_magmom
 _atom_site_hse06_bader_spin_density
 _atom_site_hse06_ddec_charge
 _atom_site_hse06_ddec_spin_density
 _atom_site_hse06_ddec_sum_bond_order
 _atom_site_hse06_magmom
 _atom_site_pbe_bader_spin_density
 _atom_site_pbe_cm5_charge
 _atom_site_pbe_ddec_charge
 _atom_site_pbe_ddec_spin_density
 _atom_site_pbe_ddec_sum_bond_order
 _atom_site_pbe_magmom
Cd  Cd0  1  0.95790992  0.74106618  0.51565025  1  0  1.07854  0  1.775509  0  0  0.901212  0  2.225367  0  0  0.955636  0  2.177876  0  0  0.701731  0.862436  0  2.257734  0
Cd  Cd1  1  0.04209198  0.75893658  0.01564975  1  0  1.078518  0  1.775501  0  0  0.901216  0  2.22533  0  0  0.95564  0  2.177841  0  0  0.701709  0.862441  0  2.257697  0
Cd  Cd2  1  0.04209402  0.25893564  0.48435002  1  0  1.078526  0  1.775518  0  0  0.901211  0  2.225365  0  0  0.955633  0  2.177878  0  0  0.70173  0.862436  0  2.257734  0
Cd  Cd3  1  0.95790665  0.24106259  0.98434818  1  0  1.078506  0  1.775514  0  0  0.90123  0  2.225322  0  0  0.955656  0  2.17783  0  0  0.701733  0.862453  0  2.25769  0
H  H4  1  0.58451438  0.79097950  0.14257423  1  0  0.135938  0  0.953174  0  0  0.140589  0  1.020935  0  0  0.144266  0  1.016275  0  0  0.140648  0.137783  0  1.024422  0
H  H5  1  0.41548116  0.70902353  0.64257609  1  0  0.135903  0  0.95318  0  0  0.140564  0  1.02094  0  0  0.144243  0  1.016276  0  0  0.140608  0.137756  0  1.024428  0
H  H6  1  0.41547845  0.20901569  0.85742135  1  0  0.135853  0  0.953287  0  0  0.140571  0  1.020981  0  0  0.144254  0  1.016313  0  0  0.140586  0.137764  0  1.024469  0
H  H7  1  0.58452659  0.29096901  0.35742419  1  0  0.135878  0  0.953767  0  0  0.140627  0  1.021384  0  0  0.144306  0  1.016718  0  0  0.140655  0.137821  0  1.024872  0
H  H8  1  0.07221854  0.65065001  0.27071458  1  0  0.10015  0  0.945967  0  0  0.109074  0  1.010574  0  0  0.110946  0  1.008044  0  0  0.133303  0.107573  0  1.012588  0
H  H9  1  0.92778074  0.84934933  0.77071582  1  0  0.100208  0  0.946089  0  0  0.10914  0  1.010657  0  0  0.111013  0  1.008127  0  0  0.133356  0.10764  0  1.012669  0
H  H10  1  0.92778011  0.34935313  0.72928413  1  0  0.100245  0  0.945898  0  0  0.109103  0  1.010564  0  0  0.110976  0  1.008033  0  0  0.133334  0.107602  0  1.012573  0
H  H11  1  0.07222221  0.15064587  0.22928759  1  0  0.100298  0  0.946051  0  0  0.109184  0  1.010652  0  0  0.111056  0  1.008123  0  0  0.133382  0.107685  0  1.012658  0
H  H12  1  0.40778772  0.82095835  0.31101206  1  0  0.136  0  0.933166  0  0  0.144967  0  1.001739  0  0  0.147896  0  0.999815  0  0  0.119544  0.142818  0  1.003296  0
H  H13  1  0.59220990  0.67903975  0.81101346  1  0  0.136013  0  0.933176  0  0  0.144957  0  1.001734  0  0  0.147897  0  0.999815  0  0  0.119551  0.142806  0  1.003295  0
H  H14  1  0.59221140  0.17904214  0.68898508  1  0  0.13598  0  0.93326  0  0  0.144958  0  1.001787  0  0  0.147893  0  0.999869  0  0  0.119542  0.142808  0  1.003345  0
H  H15  1  0.40779262  0.32096604  0.18898447  1  0  0.13605  0  0.933127  0  0  0.144972  0  1.00171  0  0  0.147915  0  0.99979  0  0  0.119568  0.142815  0  1.003282  0
H  H16  1  0.54698871  0.83289579  0.42904501  1  0  0.127201  0  0.957406  0  0  0.135046  0  1.028772  0  0  0.137896  0  1.026775  0  0  0.106118  0.132932  0  1.030376  0
H  H17  1  0.45300538  0.66710257  0.92904615  1  0  0.127329  0  0.957303  0  0  0.135114  0  1.028694  0  0  0.137975  0  1.026699  0  0  0.106138  0.133002  0  1.030295  0
H  H18  1  0.45301331  0.16710868  0.57095135  1  0  0.127344  0  0.957305  0  0  0.135124  0  1.028699  0  0  0.137982  0  1.026703  0  0  0.106138  0.133012  0  1.030299  0
H  H19  1  0.54699854  0.33289527  0.07095334  1  0  0.127186  0  0.957271  0  0  0.134982  0  1.028682  0  0  0.137843  0  1.026692  0  0  0.10607  0.132869  0  1.030283  0
C  C20  1  0.68714669  0.75309960  0.19488317  1  0  0.201649  0  3.568519  0  0  0.118137  0  3.838541  0  0  0.134468  0  3.847215  0  0  0.172119  0.10752  0  3.832648  0
C  C21  1  0.31285163  0.74690620  0.69488170  1  0  0.201805  0  3.568337  0  0  0.118282  0  3.838331  0  0  0.134612  0  3.847011  0  0  0.172216  0.107664  0  3.832439  0
C  C22  1  0.31285339  0.24689957  0.80511476  1  0  0.201824  0  3.568501  0  0  0.118236  0  3.838519  0  0  0.134559  0  3.847196  0  0  0.172174  0.107617  0  3.832627  0
C  C23  1  0.68712442  0.25310224  0.30513190  1  0  0.201819  0  3.567396  0  0  0.118148  0  3.837494  0  0  0.134478  0  3.84617  0  0  0.172043  0.107527  0  3.831608  0
C  C24  1  0.93257538  0.68290650  0.26288896  1  0  0.225514  0  3.703342  0  0  0.161297  0  3.994171  0  0  0.176279  0  4.007093  0  0  0.149107  0.15145  0  3.98533  0
C  C25  1  0.06742000  0.81709415  0.76288940  1  0  0.225591  0  3.703459  0  0  0.161395  0  3.994256  0  0  0.176378  0  4.007176  0  0  0.149101  0.151547  0  3.985416  0
C  C26  1  0.06742230  0.31709399  0.73711053  1  0  0.225549  0  3.70326  0  0  0.161409  0  3.994087  0  0  0.176392  0  4.007003  0  0  0.149129  0.15156  0  3.985248  0
C  C27  1  0.93258295  0.18290104  0.23711009  1  0  0.225381  0  3.703767  0  0  0.161233  0  3.994566  0  0  0.176215  0  4.007489  0  0  0.149032  0.151386  0  3.985727  0
C  C28  1  0.48757056  0.75034553  0.35974099  1  0  -0.192675  0  3.606631  0  0  -0.265226  0  3.8469  0  0  -0.267654  0  3.852511  0  0  -0.059004  -0.263542  0  3.843417  0
C  C29  1  0.51243365  0.74965399  0.85974460  1  0  -0.192851  0  3.606571  0  0  -0.265259  0  3.846699  0  0  -0.267745  0  3.852376  0  0  -0.059045  -0.263577  0  3.843215  0
C  C30  1  0.51243096  0.24965363  0.64025537  1  0  -0.192783  0  3.606666  0  0  -0.265244  0  3.846835  0  0  -0.267712  0  3.852488  0  0  -0.059005  -0.263564  0  3.843357  0
C  C31  1  0.48757270  0.25035047  0.14025960  1  0  -0.192613  0  3.606816  0  0  -0.265046  0  3.846932  0  0  -0.267547  0  3.852638  0  0  -0.058928  -0.263361  0  3.843443  0
C  C32  1  0.34101998  0.57089640  0.39439362  1  0  0.680829  0  3.874446  0  0  0.632606  0  4.178558  0  0  0.665981  0  4.172072  0  0  0.19847  0.609912  0  4.182042  0
C  C33  1  0.65898253  0.92910188  0.89439829  1  0  0.680937  0  3.874511  0  0  0.632681  0  4.178638  0  0  0.666068  0  4.172158  0  0  0.198442  0.609989  0  4.182123  0
C  C34  1  0.65898155  0.42910675  0.60560588  1  0  0.680956  0  3.874298  0  0  0.632693  0  4.178429  0  0  0.666076  0  4.171947  0  0  0.198459  0.609999  0  4.181915  0
C  C35  1  0.34102866  0.07090788  0.10560905  1  0  0.680797  0  3.874198  0  0  0.632594  0  4.178223  0  0  0.665988  0  4.171744  0  0  0.198482  0.6099  0  4.181708  0
N  N36  1  0.86049574  0.72170885  0.17024996  1  0  -0.401754  0  3.199134  0  0  -0.328078  0  3.496694  0  0  -0.352108  0  3.509973  0  0  -0.348024  -0.311862  0  3.487251  0
N  N37  1  0.13950481  0.77829556  0.67025053  1  0  -0.40185  0  3.19917  0  0  -0.328192  0  3.496756  0  0  -0.352213  0  3.510009  0  0  -0.348071  -0.311977  0  3.487314  0
N  N38  1  0.13950096  0.27828899  0.82975031  1  0  -0.401796  0  3.199142  0  0  -0.328126  0  3.496704  0  0  -0.352158  0  3.509989  0  0  -0.348032  -0.311909  0  3.487262  0
N  N39  1  0.86050825  0.22169963  0.32975209  1  0  -0.401745  0  3.198544  0  0  -0.328073  0  3.496158  0  0  -0.352095  0  3.509413  0  0  -0.347997  -0.311858  0  3.486721  0
N  N40  1  0.81334086  0.68900310  0.34334597  1  0  -0.303983  0  3.04371  0  0  -0.267571  0  3.31827  0  0  -0.285021  0  3.334025  0  0  -0.232794  -0.255783  0  3.307571  0
N  N41  1  0.18665748  0.81100037  0.84334741  1  0  -0.304156  0  3.043839  0  0  -0.267791  0  3.318423  0  0  -0.28524  0  3.334175  0  0  -0.232873  -0.256004  0  3.307724  0
N  N42  1  0.18666214  0.31100402  0.65665039  1  0  -0.304113  0  3.043728  0  0  -0.267769  0  3.318335  0  0  -0.28522  0  3.334085  0  0  -0.232846  -0.255982  0  3.307638  0
N  N43  1  0.81334693  0.18899879  0.15665836  1  0  -0.304038  0  3.044087  0  0  -0.267672  0  3.318672  0  0  -0.285117  0  3.334421  0  0  -0.232834  -0.255883  0  3.307972  0
N  N44  1  0.65796204  0.73474463  0.29885085  1  0  0.089905  0  3.543167  0  0  0.208071  0  3.722519  0  0  0.200596  0  3.743562  0  0  -0.126269  0.212661  0  3.708475  0
N  N45  1  0.34203938  0.76526007  0.79885414  1  0  0.089865  0  3.542925  0  0  0.208072  0  3.722194  0  0  0.200608  0  3.743248  0  0  -0.126238  0.212664  0  3.708148  0
N  N46  1  0.34203854  0.26525984  0.70114629  1  0  0.089824  0  3.543139  0  0  0.208051  0  3.722415  0  0  0.200587  0  3.743466  0  0  -0.12626  0.212643  0  3.708369  0
N  N47  1  0.65795492  0.23473910  0.20113986  1  0  0.089936  0  3.542481  0  0  0.208126  0  3.721844  0  0  0.200665  0  3.742909  0  0  -0.126131  0.212717  0  3.7078  0
Cl  Cl48  1  0.77979128  0.97723930  0.57429879  1  0  -0.595165  0  0.990441  0  0  -0.533329  0  1.279238  0  0  -0.554639  0  1.258325  0  0  -0.297526  -0.517856  0  1.293252  0
Cl  Cl49  1  0.22020329  0.52275828  0.07429938  1  0  -0.595163  0  0.990439  0  0  -0.533324  0  1.279225  0  0  -0.554633  0  1.25831  0  0  -0.297524  -0.517855  0  1.293247  0
Cl  Cl50  1  0.22020494  0.02275722  0.42569914  1  0  -0.595177  0  0.990455  0  0  -0.533353  0  1.279255  0  0  -0.554664  0  1.258342  0  0  -0.297527  -0.51788  0  1.293266  0
Cl  Cl51  1  0.77979534  0.47724088  0.92569854  1  0  -0.595165  0  0.990464  0  0  -0.533318  0  1.279237  0  0  -0.554628  0  1.258325  0  0  -0.297524  -0.517856  0  1.293271  0
O  O52  1  0.19235694  0.57465544  0.45359493  1  0  -0.66378  0  2.031792  0  0  -0.587476  0  2.291568  0  0  -0.619328  0  2.281741  0  0  -0.336531  -0.564929  0  2.297365  0
O  O53  1  0.80764018  0.92533899  0.95359360  1  0  -0.663677  0  2.03179  0  0  -0.587486  0  2.291699  0  0  -0.619334  0  2.281864  0  0  -0.336493  -0.56494  0  2.297498  0
O  O54  1  0.80764940  0.42534505  0.54640692  1  0  -0.663853  0  2.031776  0  0  -0.587543  0  2.291584  0  0  -0.619394  0  2.281752  0  0  -0.336552  -0.564998  0  2.297382  0
O  O55  1  0.19235123  0.07466017  0.04640197  1  0  -0.66385  0  2.031496  0  0  -0.587571  0  2.291265  0  0  -0.619425  0  2.28143  0  0  -0.336569  -0.565022  0  2.297062  0
O  O56  1  0.36885624  0.43010297  0.36533744  1  0  -0.618413  0  1.966332  0  0  -0.569321  0  2.206242  0  0  -0.595216  0  2.199251  0  0  -0.320904  -0.551109  0  2.210385  0
O  O57  1  0.63114554  0.06989235  0.86534596  1  0  -0.618418  0  1.966325  0  0  -0.569365  0  2.206347  0  0  -0.59526  0  2.199354  0  0  -0.320901  -0.55115  0  2.210487  0
O  O58  1  0.63114916  0.56990282  0.63465814  1  0  -0.618381  0  1.966201  0  0  -0.569358  0  2.206279  0  0  -0.59525  0  2.199286  0  0  -0.320876  -0.551144  0  2.210417  0
O  O59  1  0.36885112  0.93009754  0.13466451  1  0  -0.618446  0  1.966235  0  0  -0.56938  0  2.206176  0  0  -0.595271  0  2.199175  0  0  -0.320938  -0.551168  0  2.210321  0
