# generated using pymatgen
data_ZnH10C11N2O5
_symmetry_space_group_name_H-M   'P 1'
_cell_length_a   19.55249261
_cell_length_b   19.55240727
_cell_length_c   21.64069580
_cell_angle_alpha   64.28683169
_cell_angle_beta   64.28713908
_cell_angle_gamma   60.69133863
_symmetry_Int_Tables_number   1
_chemical_formula_structural   ZnH10C11N2O5
_chemical_formula_sum   'Zn12 H120 C132 N24 O60'
_cell_volume   6236.20713329
_cell_formula_units_Z   12
loop_
 _symmetry_equiv_pos_site_id
 _symmetry_equiv_pos_as_xyz
  1  'x, y, z'
loop_
 _atom_site_type_symbol
 _atom_site_label
 _atom_site_symmetry_multiplicity
 _atom_site_fract_x
 _atom_site_fract_y
 _atom_site_fract_z
 _atom_site_occupancy
 _atom_site_pbe_bader_charge
 _atom_site_pbe_bader_spin_density
 _atom_site_pbe_cm5_charge
 _atom_site_pbe_ddec_charge
 _atom_site_pbe_ddec_spin_density
 _atom_site_pbe_ddec_sum_bond_order
 _atom_site_pbe_magmom
Zn  Zn0  1  0.30633273  0.18320269  0.31199944  1  1.338202  0  0.671141  0.91861  0  2.326769  0
Zn  Zn1  1  0.26624214  0.26754363  0.17507582  1  1.35159  0  0.673904  0.933304  0  2.321325  0
Zn  Zn2  1  0.82207668  0.26527640  0.18234026  1  1.342703  0  0.672434  0.921601  0  2.334664  0
Zn  Zn3  1  0.81679633  0.69366623  0.18800205  1  1.338366  0  0.671122  0.918569  0  2.326834  0
Zn  Zn4  1  0.73246134  0.73375633  0.32492384  1  1.351575  0  0.673913  0.93333  0  2.321346  0
Zn  Zn5  1  0.73472523  0.17792455  0.31765990  1  1.341763  0  0.672382  0.921472  0  2.334722  0
Zn  Zn6  1  0.69366410  0.81679956  0.68799990  1  1.33824  0  0.671139  0.91859  0  2.326693  0
Zn  Zn7  1  0.73375775  0.73246259  0.82492309  1  1.351685  0  0.673885  0.93329  0  2.321364  0
Zn  Zn8  1  0.17792443  0.73472539  0.81765944  1  1.34173  0  0.67241  0.921534  0  2.334692  0
Zn  Zn9  1  0.18320050  0.30633545  0.81199798  1  1.338357  0  0.671112  0.918592  0  2.326721  0
Zn  Zn10  1  0.26753977  0.26624263  0.67507605  1  1.351515  0  0.673898  0.933304  0  2.321394  0
Zn  Zn11  1  0.26527954  0.82207531  0.68234051  1  1.342758  0  0.672424  0.921531  0  2.334663  0
H  H12  1  0.14013115  0.36830712  0.41602212  1  0.094263  0  0.108952  0.119291  0  1.005068  0
H  H13  1  0.04195148  0.47209385  0.23746132  1  0.114208  0  0.107442  0.114461  0  1.012623  0
H  H14  1  0.18173261  0.14682635  0.44642998  1  0.116108  0  0.128505  0.059358  0  0.994919  0
H  H15  1  0.87589695  0.24944119  0.03213990  1  0.099155  0  0.131638  0.061534  0  0.976814  0
H  H16  1  0.11576340  0.14905433  0.61185949  1  0.099145  0  0.112422  0.130646  0  0.966629  0
H  H17  1  0.14980252  0.04251579  0.62253875  1  0.11697  0  0.110224  0.138536  0  1.002864  0
H  H18  1  0.10245590  0.11719255  0.55310301  1  0.058497  0  0.112587  0.123184  0  0.989163  0
H  H19  1  0.29050010  0.01883020  0.60732078  1  0.11006  0  0.112629  0.139274  0  0.994028  0
H  H20  1  0.27261346  0.12365820  0.59060898  1  0.08325  0  0.111986  0.13767  0  0.984789  0
H  H21  1  0.34520215  0.07103208  0.52428628  1  0.082653  0  0.112386  0.128559  0  1.000327  0
H  H22  1  0.98734444  0.41032474  0.91626792  1  0.097819  0  0.112454  0.140016  0  0.996758  0
H  H23  1  0.90000083  0.43794183  0.98996725  1  0.079206  0  0.111884  0.129201  0  1.001481  0
H  H24  1  0.88841155  0.47001981  0.90252722  1  0.052971  0  0.112255  0.130175  0  0.976486  0
H  H25  1  0.98715859  0.31099876  0.86458659  1  0.106146  0  0.11132  0.142704  0  0.99813  0
H  H26  1  0.88214150  0.36650208  0.86623762  1  0.032549  0  0.112334  0.128732  0  0.966373  0
H  H27  1  0.91429259  0.26226413  0.91914478  1  0.049443  0  0.111976  0.121669  0  0.998267  0
H  H28  1  0.30531992  0.40489161  0.04303370  1  0.1155  0  0.129994  0.061601  0  0.987575  0
H  H29  1  0.35506703  0.45666500  0.86629427  1  0.078152  0  0.111284  0.128214  0  0.967241  0
H  H30  1  0.32341697  0.49423645  0.94011492  1  0.049346  0  0.110341  0.120261  0  1.011522  0
H  H31  1  0.25349987  0.52741854  0.89126249  1  0.093861  0  0.109421  0.134668  0  0.996233  0
H  H32  1  0.29651085  0.35278600  0.88604773  1  0.071685  0  0.113426  0.134754  0  0.968406  0
H  H33  1  0.19510847  0.42188003  0.91320232  1  0.05775  0  0.11155  0.129149  0  0.969597  0
H  H34  1  0.23189855  0.32333990  0.97360129  1  0.100739  0  0.114097  0.132916  0  1.009654  0
H  H35  1  0.91617667  0.57987324  0.41209652  1  0.154013  0  0.110326  0.119068  0  1.022441  0
H  H36  1  0.41025076  0.41647658  0.08211426  1  0.114386  0  0.104288  0.104452  0  1.043174  0
H  H37  1  0.63629319  0.40300835  0.08309136  1  0.09732  0  0.104625  0.109007  0  1.032136  0
H  H38  1  0.52033577  0.23860170  0.25076659  1  0.102865  0  0.11057  0.120157  0  1.003302  0
H  H39  1  0.15048159  0.05763783  0.40281370  1  0.081706  0  0.104358  0.10455  0  1.040228  0
H  H40  1  0.92550211  0.06374520  0.40692855  1  0.101945  0  0.105418  0.106995  0  1.043548  0
H  H41  1  0.05492693  0.20484453  0.22143466  1  0.123362  0  0.109798  0.111647  0  1.028354  0
H  H42  1  0.63169393  0.85986911  0.08397945  1  0.094298  0  0.10897  0.119304  0  1.005061  0
H  H43  1  0.52790880  0.95804813  0.26253914  1  0.114162  0  0.107453  0.114461  0  1.012658  0
H  H44  1  0.85317649  0.81826684  0.05356878  1  0.116146  0  0.128515  0.059355  0  0.994942  0
H  H45  1  0.75056305  0.12409851  0.46785881  1  0.0991  0  0.131635  0.061514  0  0.976749  0
H  H46  1  0.85095448  0.88423565  0.88813898  1  0.098983  0  0.112419  0.130631  0  0.966552  0
H  H47  1  0.95749257  0.85019281  0.87746062  1  0.116945  0  0.110177  0.138428  0  1.002955  0
H  H48  1  0.88281652  0.89753996  0.94689478  1  0.058478  0  0.112575  0.123111  0  0.989129  0
H  H49  1  0.98117085  0.70949353  0.89268233  1  0.110107  0  0.112637  0.139313  0  0.994017  0
H  H50  1  0.87634408  0.72738353  0.90939263  1  0.083073  0  0.112008  0.137683  0  0.98477  0
H  H51  1  0.92896769  0.65479439  0.97571666  1  0.08254  0  0.112412  0.12863  0  1.000266  0
H  H52  1  0.58967448  0.01265339  0.58373283  1  0.097703  0  0.112453  0.140048  0  0.996656  0
H  H53  1  0.56205927  0.09999820  0.51003121  1  0.079038  0  0.11192  0.129266  0  1.001432  0
H  H54  1  0.52998236  0.11159002  0.59747116  1  0.053027  0  0.112252  0.130148  0  0.976462  0
H  H55  1  0.68900188  0.01283876  0.63541253  1  0.10602  0  0.111336  0.142764  0  0.998189  0
H  H56  1  0.63349779  0.11785917  0.63376121  1  0.032599  0  0.112345  0.128778  0  0.966308  0
H  H57  1  0.73773732  0.08570333  0.58085409  1  0.049465  0  0.111997  0.121735  0  0.998256  0
H  H58  1  0.59511306  0.69467723  0.45696506  1  0.115502  0  0.129963  0.061623  0  0.987561  0
H  H59  1  0.54332777  0.64494310  0.63371067  1  0.078155  0  0.11131  0.128268  0  0.967155  0
H  H60  1  0.50577454  0.67657229  0.55988542  1  0.049079  0  0.110356  0.12022  0  1.011553  0
H  H61  1  0.47257990  0.74650695  0.60872328  1  0.094125  0  0.109439  0.134729  0  0.996186  0
H  H62  1  0.64722015  0.70348104  0.61395270  1  0.071472  0  0.113433  0.134783  0  0.968475  0
H  H63  1  0.57813273  0.80488692  0.58679347  1  0.057904  0  0.111535  0.129156  0  0.969693  0
H  H64  1  0.67667149  0.76808875  0.52639745  1  0.100431  0  0.114127  0.132936  0  1.009636  0
H  H65  1  0.42012669  0.08382675  0.08790361  1  0.154351  0  0.110318  0.119083  0  1.022425  0
H  H66  1  0.58352525  0.58974693  0.41788599  1  0.11441  0  0.104277  0.104415  0  1.043217  0
H  H67  1  0.59698948  0.36370871  0.41690959  1  0.097181  0  0.104638  0.109049  0  1.032133  0
H  H68  1  0.76139874  0.47966320  0.24923778  1  0.10291  0  0.110567  0.120168  0  1.003286  0
H  H69  1  0.94235530  0.84952498  0.09718060  1  0.081536  0  0.10436  0.104522  0  1.04017  0
H  H70  1  0.93625045  0.07450345  0.09306989  1  0.102015  0  0.105388  0.106959  0  1.043502  0
H  H71  1  0.79516232  0.94507145  0.27856686  1  0.123324  0  0.109784  0.111561  0  1.028399  0
H  H72  1  0.85986813  0.63169592  0.58397550  1  0.094193  0  0.108966  0.119334  0  1.005091  0
H  H73  1  0.95804780  0.52791430  0.76253337  1  0.114345  0  0.107474  0.114449  0  1.012658  0
H  H74  1  0.81826422  0.85317533  0.55356912  1  0.116181  0  0.128528  0.059389  0  0.994965  0
H  H75  1  0.12410905  0.75055595  0.96785924  1  0.099146  0  0.131625  0.061461  0  0.976791  0
H  H76  1  0.88422794  0.85094201  0.38814015  1  0.099053  0  0.112441  0.130641  0  0.966713  0
H  H77  1  0.85019798  0.95747715  0.37745818  1  0.117007  0  0.110232  0.138585  0  1.002963  0
H  H78  1  0.89754522  0.88280187  0.44689217  1  0.059155  0  0.112528  0.123079  0  0.989118  0
H  H79  1  0.70948817  0.98117352  0.39268318  1  0.110089  0  0.112629  0.139297  0  0.993982  0
H  H80  1  0.72737726  0.87634404  0.40939507  1  0.083022  0  0.112019  0.137664  0  0.984866  0
H  H81  1  0.65479223  0.92896596  0.47572167  1  0.082472  0  0.112375  0.128583  0  1.000242  0
H  H82  1  0.01265606  0.58967444  0.08373212  1  0.097764  0  0.11246  0.140044  0  0.996714  0
H  H83  1  0.09999661  0.56206019  0.01003056  1  0.079012  0  0.111913  0.129255  0  1.001442  0
H  H84  1  0.11159018  0.52997892  0.09746927  1  0.052998  0  0.112235  0.130157  0  0.976495  0
H  H85  1  0.01283824  0.68900236  0.13540996  1  0.10601  0  0.111324  0.14274  0  0.998105  0
H  H86  1  0.11785594  0.63350334  0.13376348  1  0.032657  0  0.112295  0.128755  0  0.966243  0
H  H87  1  0.08569874  0.73774073  0.08085292  1  0.049433  0  0.112004  0.121738  0  0.998315  0
H  H88  1  0.69468302  0.59511347  0.95696585  1  0.115582  0  0.129951  0.061564  0  0.987599  0
H  H89  1  0.64493592  0.54333328  0.13370239  1  0.078264  0  0.111285  0.128247  0  0.967145  0
H  H90  1  0.67658964  0.50576784  0.05988026  1  0.04921  0  0.110354  0.120209  0  1.011495  0
H  H91  1  0.74650369  0.47258348  0.10873292  1  0.094076  0  0.109444  0.134709  0  0.99621  0
H  H92  1  0.70348720  0.64721295  0.11395658  1  0.071479  0  0.113412  0.134767  0  0.968428  0
H  H93  1  0.80489203  0.57813163  0.08679560  1  0.057919  0  0.111558  0.129167  0  0.969625  0
H  H94  1  0.76808849  0.67667108  0.02640586  1  0.100531  0  0.114136  0.132939  0  1.009658  0
H  H95  1  0.08381894  0.42012606  0.58790260  1  0.153975  0  0.110346  0.119099  0  1.022413  0
H  H96  1  0.58974851  0.58352248  0.91789092  1  0.113934  0  0.10431  0.104415  0  1.043074  0
H  H97  1  0.36370669  0.59699105  0.91691160  1  0.097352  0  0.104669  0.10904  0  1.032188  0
H  H98  1  0.47966656  0.76139622  0.74923923  1  0.102689  0  0.110575  0.120139  0  1.00332  0
H  H99  1  0.84953054  0.94235534  0.59717443  1  0.082309  0  0.104388  0.104516  0  1.040188  0
H  H100  1  0.07450941  0.93623855  0.59306397  1  0.101889  0  0.105439  0.107004  0  1.043613  0
H  H101  1  0.94507296  0.79515601  0.77855999  1  0.123413  0  0.109822  0.111594  0  1.028412  0
H  H102  1  0.36830657  0.14013347  0.91602295  1  0.094242  0  0.108937  0.119275  0  1.005068  0
H  H103  1  0.47208375  0.04194605  0.73746827  1  0.114548  0  0.107436  0.114439  0  1.012533  0
H  H104  1  0.14682645  0.18172916  0.94643385  1  0.115959  0  0.128499  0.059354  0  0.994944  0
H  H105  1  0.24943867  0.87589510  0.53214292  1  0.099094  0  0.131625  0.061481  0  0.976762  0
H  H106  1  0.14905518  0.11576863  0.11186333  1  0.099079  0  0.112438  0.130652  0  0.966734  0
H  H107  1  0.04251770  0.14980330  0.12254465  1  0.116935  0  0.110197  0.138504  0  1.002947  0
H  H108  1  0.11719497  0.10245172  0.05311082  1  0.058999  0  0.112517  0.123071  0  0.989166  0
H  H109  1  0.01883026  0.29050826  0.10731691  1  0.110156  0  0.112651  0.139325  0  0.993996  0
H  H110  1  0.12365825  0.27262235  0.09060221  1  0.08264  0  0.112015  0.137641  0  0.984921  0
H  H111  1  0.07103281  0.34520593  0.02427877  1  0.082491  0  0.112387  0.128603  0  1.000275  0
H  H112  1  0.41032357  0.98734386  0.41626799  1  0.097799  0  0.112437  0.140013  0  0.996733  0
H  H113  1  0.43793511  0.90000211  0.48997169  1  0.079001  0  0.111914  0.129274  0  1.001509  0
H  H114  1  0.47001814  0.88840632  0.40253230  1  0.052972  0  0.112219  0.130146  0  0.976488  0
H  H115  1  0.31099739  0.98716030  0.36458803  1  0.10604  0  0.111328  0.142724  0  0.998136  0
H  H116  1  0.36649843  0.88214160  0.36623849  1  0.032601  0  0.112314  0.128759  0  0.966287  0
H  H117  1  0.26226073  0.91429676  0.41914516  1  0.049354  0  0.111981  0.12169  0  0.998375  0
H  H118  1  0.40488866  0.30532037  0.54303141  1  0.115606  0  0.129989  0.061646  0  0.987579  0
H  H119  1  0.45667640  0.35504677  0.36628833  1  0.07806  0  0.111284  0.128226  0  0.967252  0
H  H120  1  0.49422535  0.32342315  0.44011169  1  0.049349  0  0.110356  0.120203  0  1.011485  0
H  H121  1  0.52742183  0.25348440  0.39127842  1  0.093998  0  0.109424  0.134682  0  0.996182  0
H  H122  1  0.35277913  0.29651349  0.38604917  1  0.071508  0  0.113448  0.134797  0  0.968509  0
H  H123  1  0.42186777  0.19511113  0.41320238  1  0.057782  0  0.11156  0.129212  0  0.969635  0
H  H124  1  0.32333085  0.23190578  0.47359952  1  0.100371  0  0.114106  0.132914  0  1.009666  0
H  H125  1  0.57987136  0.91617730  0.91210102  1  0.154026  0  0.110338  0.119078  0  1.022431  0
H  H126  1  0.41647647  0.41025293  0.58211238  1  0.114188  0  0.104272  0.104412  0  1.04321  0
H  H127  1  0.40301163  0.63629194  0.58308963  1  0.097156  0  0.104648  0.109074  0  1.03211  0
H  H128  1  0.23860420  0.52033848  0.75076078  1  0.102725  0  0.110546  0.120097  0  1.003249  0
H  H129  1  0.05763970  0.15047681  0.90282056  1  0.082086  0  0.104377  0.104504  0  1.0402  0
H  H130  1  0.06373722  0.92550390  0.90693058  1  0.101751  0  0.10539  0.10698  0  1.043551  0
H  H131  1  0.20484184  0.05492409  0.72144056  1  0.123481  0  0.109811  0.111576  0  1.028424  0
C  C132  1  0.16730994  0.34649644  0.29111055  1  1.58353  0  0.213597  0.600127  0  4.171019  0
C  C133  1  0.09865867  0.41350638  0.32292946  1  -0.079075  0  -0.020359  -0.034046  0  3.984758  0
C  C134  1  0.09365469  0.41468078  0.38893553  1  -0.003104  0  -0.070755  -0.142294  0  3.906559  0
C  C135  1  0.03854995  0.47325791  0.28856637  1  0.049265  0  -0.069615  -0.093644  0  3.903731  0
C  C136  1  0.23535847  0.12790372  0.46370607  1  1.34493  0  0.181942  0.291529  0  4.070013  0
C  C137  1  0.88485017  0.30384625  0.02590548  1  1.372183  0  0.184292  0.293538  0  4.074722  0
C  C138  1  0.14293246  0.10289211  0.58323791  1  0.209994  0  -0.124829  -0.282684  0  3.892776  0
C  C139  1  0.28692226  0.07752722  0.56609884  1  0.219618  0  -0.129021  -0.283159  0  3.854456  0
C  C140  1  0.92199141  0.42078867  0.94089619  1  0.273728  0  -0.128672  -0.278041  0  3.861886  0
C  C141  1  0.02876216  0.47514940  0.42054784  1  0.370387  0  0.081571  0.158935  0  4.074432  0
C  C142  1  0.92407582  0.31976654  0.89865789  1  0.303231  0  -0.125355  -0.283562  0  3.888411  0
C  C143  1  0.28066805  0.37598248  0.02810387  1  1.359952  0  0.185263  0.299451  0  4.070412  0
C  C144  1  0.30366474  0.47523044  0.91190403  1  0.255374  0  -0.123983  -0.279924  0  3.899835  0
C  C145  1  0.24848763  0.37422574  0.93184931  1  0.261601  0  -0.126197  -0.271149  0  3.878131  0
C  C146  1  0.96770055  0.53395196  0.38681252  1  -0.090884  0  -0.069644  -0.13524  0  3.887928  0
C  C147  1  0.97271032  0.53296622  0.32102155  1  -0.027936  0  -0.017473  -0.025582  0  3.981556  0
C  C148  1  0.90544115  0.59598650  0.28732577  1  1.584439  0  0.214207  0.595184  0  4.17216  0
C  C149  1  0.39156997  0.29179746  0.20015386  1  1.585646  0  0.216793  0.60063  0  4.169599  0
C  C150  1  0.45843990  0.32451945  0.16946871  1  -0.036567  0  -0.015105  -0.024455  0  3.973913  0
C  C151  1  0.45890920  0.38912215  0.10712893  1  -0.038954  0  -0.070505  -0.133318  0  3.896084  0
C  C152  1  0.52259374  0.41834272  0.07646299  1  0.280615  0  0.080055  0.157906  0  4.074452  0
C  C153  1  0.58590749  0.38161330  0.10793368  1  0.03405  0  -0.071272  -0.141147  0  3.916537  0
C  C154  1  0.58527240  0.31728169  0.17086582  1  -0.022703  0  -0.019265  -0.032086  0  3.988424  0
C  C155  1  0.52109620  0.28909168  0.20203412  1  0.027489  0  -0.066663  -0.089655  0  3.895364  0
C  C156  1  0.65452540  0.27979040  0.20269940  1  1.587112  0  0.215376  0.599019  0  4.17253  0
C  C157  1  0.17860100  0.16515941  0.27395360  1  1.573945  0  0.212718  0.592781  0  4.178465  0
C  C158  1  0.11078852  0.13334772  0.30765635  1  0.020973  0  -0.016753  -0.023059  0  3.977532  0
C  C159  1  0.10465893  0.07882181  0.37619230  1  -0.03528  0  -0.074389  -0.150058  0  3.928017  0
C  C160  1  0.03797432  0.05421823  0.41189468  1  0.365277  0  0.080603  0.159658  0  4.095439  0
C  C161  1  0.97765370  0.08262980  0.37882517  1  -0.061923  0  -0.074149  -0.140704  0  3.911662  0
C  C162  1  0.98375830  0.13648969  0.31043411  1  -0.001568  0  -0.016031  -0.023693  0  3.974728  0
C  C163  1  0.05074304  0.16151853  0.27438963  1  -0.008967  0  -0.065141  -0.087914  0  3.886651  0
C  C164  1  0.91479320  0.17012044  0.27916762  1  1.579484  0  0.216341  0.599437  0  4.167674  0
C  C165  1  0.65350430  0.83269211  0.20888681  1  1.583515  0  0.213575  0.600073  0  4.170763  0
C  C166  1  0.58649418  0.90134317  0.17707156  1  -0.079713  0  -0.020299  -0.033863  0  3.984716  0
C  C167  1  0.58532310  0.90634736  0.11106502  1  -0.002875  0  -0.070788  -0.142388  0  3.906609  0
C  C168  1  0.52674291  0.96145087  0.21143432  1  0.049651  0  -0.069674  -0.093774  0  3.903801  0
C  C169  1  0.87209758  0.76463926  0.03629498  1  1.344916  0  0.18194  0.291531  0  4.070341  0
C  C170  1  0.69615506  0.11514553  0.47409377  1  1.372249  0  0.184304  0.293668  0  4.074757  0
C  C171  1  0.89711540  0.85706369  0.91676184  1  0.210114  0  -0.124744  -0.28242  0  3.892617  0
C  C172  1  0.92247294  0.71307541  0.93390527  1  0.21988  0  -0.129079  -0.283284  0  3.854506  0
C  C173  1  0.57921209  0.07800739  0.55910163  1  0.27391  0  -0.128663  -0.27804  0  3.861689  0
C  C174  1  0.52485112  0.97124076  0.07945306  1  0.370989  0  0.081573  0.158992  0  4.074445  0
C  C175  1  0.68023639  0.07592187  0.60134196  1  0.303296  0  -0.125396  -0.283709  0  3.888372  0
C  C176  1  0.62402367  0.71932602  0.47189738  1  1.360238  0  0.185283  0.299336  0  4.070358  0
C  C177  1  0.52477368  0.69633698  0.58809320  1  0.255219  0  -0.124029  -0.279973  0  3.899765  0
C  C178  1  0.62578151  0.75150709  0.56814950  1  0.262062  0  -0.12618  -0.271161  0  3.878358  0
C  C179  1  0.46604869  0.03230184  0.11318740  1  -0.091324  0  -0.069626  -0.135292  0  3.887977  0
C  C180  1  0.46703550  0.02728991  0.17897834  1  -0.027988  0  -0.017442  -0.025464  0  3.981473  0
C  C181  1  0.40401393  0.09456042  0.21267578  1  1.58446  0  0.214232  0.595151  0  4.172116  0
C  C182  1  0.70820362  0.60843001  0.29984639  1  1.585531  0  0.216812  0.600621  0  4.169567  0
C  C183  1  0.67548238  0.54155968  0.33053469  1  -0.036797  0  -0.015095  -0.024512  0  3.974146  0
C  C184  1  0.61087968  0.54109376  0.39287028  1  -0.039025  0  -0.070381  -0.133127  0  3.896203  0
C  C185  1  0.58165802  0.47740386  0.42354110  1  0.280848  0  0.080013  0.157844  0  4.074381  0
C  C186  1  0.61838623  0.41408961  0.39206983  1  0.034008  0  -0.071292  -0.141257  0  3.916514  0
C  C187  1  0.68271523  0.41472858  0.32913681  1  -0.02274  0  -0.019263  -0.031986  0  3.98837  0
C  C188  1  0.71090891  0.47890119  0.29796982  1  0.027794  0  -0.06669  -0.089736  0  3.895323  0
C  C189  1  0.72020739  0.34548082  0.29730192  1  1.586963  0  0.21537  0.598985  0  4.172375  0
C  C190  1  0.83484513  0.82139768  0.22604800  1  1.57667  0  0.212703  0.592771  0  4.178365  0
C  C191  1  0.86665493  0.88921421  0.19234298  1  0.021223  0  -0.01678  -0.023258  0  3.977763  0
C  C192  1  0.92117706  0.89534517  0.12380942  1  -0.034975  0  -0.074415  -0.14996  0  3.927877  0
C  C193  1  0.94577562  0.96203458  0.08810060  1  0.364331  0  0.08055  0.159556  0  4.09549  0
C  C194  1  0.91736671  0.02234928  0.12117167  1  -0.061852  0  -0.07406  -0.140544  0  3.911607  0
C  C195  1  0.86351444  0.01624019  0.18956699  1  -0.001292  0  -0.016094  -0.023768  0  3.974911  0
C  C196  1  0.83848411  0.94925950  0.22560919  1  -0.009358  0  -0.065066  -0.087636  0  3.886636  0
C  C197  1  0.82988858  0.08520473  0.22083026  1  1.580028  0  0.216312  0.599239  0  4.167705  0
C  C198  1  0.83268935  0.65351058  0.70888135  1  1.583213  0  0.213572  0.600011  0  4.170991  0
C  C199  1  0.90133816  0.58649814  0.67706761  1  -0.079472  0  -0.020294  -0.033895  0  3.984722  0
C  C200  1  0.90634337  0.58532328  0.61106308  1  -0.003175  0  -0.070818  -0.142473  0  3.906792  0
C  C201  1  0.96144811  0.52674956  0.71142953  1  0.048919  0  -0.069667  -0.093601  0  3.903611  0
C  C202  1  0.76463714  0.87209898  0.53629358  1  1.344977  0  0.18196  0.29154  0  4.070298  0
C  C203  1  0.11515400  0.69614986  0.97409340  1  1.372245  0  0.184266  0.293575  0  4.074852  0
C  C204  1  0.85706376  0.89710583  0.41675689  1  0.209953  0  -0.124806  -0.282609  0  3.892928  0
C  C205  1  0.71306968  0.92247400  0.43390421  1  0.220085  0  -0.129099  -0.283221  0  3.854381  0
C  C206  1  0.07800848  0.57921130  0.05910146  1  0.273958  0  -0.128641  -0.278053  0  3.861784  0
C  C207  1  0.97123650  0.52485217  0.57944967  1  0.370369  0  0.08155  0.15889  0  4.0745  0
C  C208  1  0.07592162  0.68023775  0.10134088  1  0.303268  0  -0.125351  -0.283677  0  3.888147  0
C  C209  1  0.71933367  0.62402362  0.97189575  1  1.359855  0  0.185319  0.299395  0  4.070471  0
C  C210  1  0.69634003  0.52477396  0.08809275  1  0.255225  0  -0.124019  -0.279949  0  3.899704  0
C  C211  1  0.75151042  0.62578116  0.06815144  1  0.261666  0  -0.126252  -0.27124  0  3.878244  0
C  C212  1  0.03229506  0.46605301  0.61318531  1  -0.090805  0  -0.06965  -0.13526  0  3.887913  0
C  C213  1  0.02728407  0.46703693  0.67897839  1  -0.027577  0  -0.017419  -0.025471  0  3.981294  0
C  C214  1  0.09455446  0.40401676  0.71267365  1  1.584345  0  0.214244  0.59509  0  4.172201  0
C  C215  1  0.60843114  0.70820036  0.79984739  1  1.585648  0  0.216852  0.600619  0  4.16946  0
C  C216  1  0.54155876  0.67547984  0.83053662  1  -0.036763  0  -0.015044  -0.02431  0  3.973794  0
C  C217  1  0.54109130  0.61087759  0.89287366  1  -0.038647  0  -0.070486  -0.133265  0  3.896092  0
C  C218  1  0.47740308  0.58166122  0.92354170  1  0.280296  0  0.080087  0.157915  0  4.074309  0
C  C219  1  0.41408689  0.61838928  0.89207204  1  0.034332  0  -0.071349  -0.141203  0  3.916577  0
C  C220  1  0.41472687  0.68271680  0.82913773  1  -0.022825  0  -0.019255  -0.032038  0  3.988406  0
C  C221  1  0.47890123  0.71090919  0.79797200  1  0.028129  0  -0.066766  -0.08978  0  3.895317  0
C  C222  1  0.34547815  0.72021162  0.79730296  1  1.586963  0  0.215347  0.599032  0  4.172462  0
C  C223  1  0.82140012  0.83484409  0.72603803  1  1.573435  0  0.212746  0.592859  0  4.178182  0
C  C224  1  0.88922177  0.86664443  0.69233521  1  0.021004  0  -0.01682  -0.02331  0  3.977576  0
C  C225  1  0.89535013  0.92117420  0.62380101  1  -0.035395  0  -0.074456  -0.149946  0  3.92779  0
C  C226  1  0.96204086  0.94576870  0.58809470  1  0.364508  0  0.080585  0.159643  0  4.095469  0
C  C227  1  0.02235781  0.91735509  0.62116829  1  -0.062214  0  -0.074164  -0.140654  0  3.911947  0
C  C228  1  0.01624954  0.86350280  0.68955735  1  -0.000849  0  -0.016102  -0.023774  0  3.974884  0
C  C229  1  0.94926296  0.83847691  0.72560463  1  -0.009515  0  -0.065077  -0.087625  0  3.886443  0
C  C230  1  0.08521097  0.82987965  0.72082877  1  1.580016  0  0.216308  0.599241  0  4.167708  0
C  C231  1  0.34649131  0.16731342  0.79111635  1  1.582722  0  0.213624  0.600008  0  4.170966  0
C  C232  1  0.41350264  0.09865623  0.82293398  1  -0.079402  0  -0.020297  -0.033887  0  3.98493  0
C  C233  1  0.41467617  0.09365227  0.88893901  1  -0.003  0  -0.070771  -0.142406  0  3.906746  0
C  C234  1  0.47324903  0.03854750  0.78857399  1  0.049004  0  -0.069694  -0.093722  0  3.903825  0
C  C235  1  0.12790353  0.23535572  0.96370692  1  1.345057  0  0.181899  0.291407  0  4.070141  0
C  C236  1  0.30384483  0.88485217  0.52590754  1  1.372162  0  0.184293  0.293658  0  4.074856  0
C  C237  1  0.10289364  0.14293344  0.08324304  1  0.210071  0  -0.124749  -0.282563  0  3.89292  0
C  C238  1  0.07752878  0.28692729  0.06609476  1  0.22016  0  -0.1291  -0.283254  0  3.854477  0
C  C239  1  0.42078718  0.92198884  0.44090050  1  0.2738  0  -0.128631  -0.278037  0  3.86183  0
C  C240  1  0.47514815  0.02876341  0.92055059  1  0.370327  0  0.081595  0.159006  0  4.074335  0
C  C241  1  0.31976289  0.92407606  0.39865858  1  0.303325  0  -0.125344  -0.283593  0  3.888421  0
C  C242  1  0.37597500  0.28067100  0.52810375  1  1.360072  0  0.18531  0.29936  0  4.070474  0
C  C243  1  0.47522804  0.30365437  0.41190618  1  0.255273  0  -0.12397  -0.279865  0  3.899724  0
C  C244  1  0.37421838  0.24849005  0.43185018  1  0.26209  0  -0.126269  -0.271332  0  3.878394  0
C  C245  1  0.53395059  0.96770461  0.88681258  1  -0.090649  0  -0.069638  -0.135271  0  3.887886  0
C  C246  1  0.53296011  0.97270938  0.82102680  1  -0.02785  0  -0.017488  -0.025453  0  3.981478  0
C  C247  1  0.59598412  0.90544080  0.78732903  1  1.584283  0  0.214219  0.595041  0  4.172308  0
C  C248  1  0.29180054  0.39156838  0.70015252  1  1.585674  0  0.216886  0.600773  0  4.169422  0
C  C249  1  0.32451934  0.45844132  0.66946416  1  -0.036902  0  -0.01512  -0.024474  0  3.97384  0
C  C250  1  0.38912571  0.45890758  0.60712699  1  -0.038668  0  -0.070414  -0.133142  0  3.895974  0
C  C251  1  0.41834248  0.52259645  0.57645987  1  0.280551  0  0.080042  0.157808  0  4.074378  0
C  C252  1  0.38161304  0.58591059  0.60793213  1  0.034185  0  -0.071324  -0.14129  0  3.916616  0
C  C253  1  0.31728649  0.58527298  0.67086320  1  -0.022629  0  -0.019268  -0.031999  0  3.988458  0
C  C254  1  0.28909403  0.52109879  0.70202802  1  0.027996  0  -0.066659  -0.089657  0  3.895286  0
C  C255  1  0.27979738  0.65452074  0.70269829  1  1.586717  0  0.215415  0.598946  0  4.172568  0
C  C256  1  0.16515781  0.17859718  0.77395692  1  1.574035  0  0.212733  0.592717  0  4.178443  0
C  C257  1  0.13334556  0.11078440  0.80766283  1  0.020703  0  -0.016796  -0.023175  0  3.9776  0
C  C258  1  0.07881915  0.10465559  0.87619722  1  -0.035479  0  -0.074426  -0.149837  0  3.927692  0
C  C259  1  0.05421449  0.03797017  0.91189947  1  0.365203  0  0.080592  0.15949  0  4.095471  0
C  C260  1  0.08262524  0.97765251  0.87882884  1  -0.062041  0  -0.074  -0.140544  0  3.911685  0
C  C261  1  0.13647994  0.98376182  0.81043664  1  -0.001297  0  -0.016196  -0.023786  0  3.974723  0
C  C262  1  0.16151455  0.05074092  0.77439570  1  -0.008955  0  -0.065061  -0.087694  0  3.886484  0
C  C263  1  0.17011191  0.91479388  0.77917184  1  1.580171  0  0.216326  0.599259  0  4.167609  0
N  N264  1  0.22293490  0.10271941  0.53422268  1  -1.184219  0  -0.27208  0.045312  0  3.715841  0
N  N265  1  0.90879538  0.34635526  0.95841711  1  -1.215594  0  -0.271252  0.04244  0  3.722265  0
N  N266  1  0.02876000  0.47110134  0.48730327  1  -0.495308  0  -0.151381  -0.135513  0  3.289776  0
N  N267  1  0.27740978  0.40717009  0.96054217  1  -1.19292  0  -0.274006  0.031227  0  3.725903  0
N  N268  1  0.52919962  0.48346971  0.01363265  1  -0.448767  0  -0.154379  -0.139443  0  3.294895  0
N  N269  1  0.03457472  0.00282454  0.48218056  1  -0.475687  0  -0.154254  -0.137629  0  3.302954  0
N  N270  1  0.89728370  0.77706209  0.96577858  1  -1.184126  0  -0.272177  0.045158  0  3.716022  0
N  N271  1  0.65364655  0.09120206  0.54158137  1  -1.21553  0  -0.271245  0.042332  0  3.722178  0
N  N272  1  0.52889868  0.97124221  0.01269857  1  -0.495733  0  -0.151363  -0.135517  0  3.289754  0
N  N273  1  0.59283657  0.72258505  0.53945727  1  -1.193055  0  -0.274087  0.031173  0  3.726099  0
N  N274  1  0.51653022  0.47079964  0.48636919  1  -0.448925  0  -0.154427  -0.139465  0  3.294995  0
N  N275  1  0.99716005  0.96543729  0.01781348  1  -0.510708  0  -0.154141  -0.137674  0  3.303072  0
N  N276  1  0.77706193  0.89728171  0.46577526  1  -1.184932  0  -0.272087  0.045236  0  3.71588  0
N  N277  1  0.09120329  0.65364460  0.04158245  1  -1.215574  0  -0.271265  0.042405  0  3.722105  0
N  N278  1  0.97123683  0.52890148  0.51269354  1  -0.461707  0  -0.151305  -0.135411  0  3.289656  0
N  N279  1  0.72258704  0.59283783  0.03945727  1  -1.192993  0  -0.273975  0.03135  0  3.725856  0
N  N280  1  0.47079843  0.51653208  0.98637148  1  -0.489711  0  -0.154451  -0.139493  0  3.294785  0
N  N281  1  0.96544230  0.99715831  0.51780692  1  -0.511146  0  -0.154141  -0.13787  0  3.303186  0
N  N282  1  0.10272108  0.22293437  0.03422362  1  -1.184683  0  -0.272092  0.045361  0  3.715787  0
N  N283  1  0.34635151  0.90879803  0.45841741  1  -1.21529  0  -0.271233  0.042325  0  3.722164  0
N  N284  1  0.47110059  0.02876309  0.98730510  1  -0.461753  0  -0.151324  -0.135455  0  3.289773  0
N  N285  1  0.40715965  0.27741458  0.46054287  1  -1.193073  0  -0.274054  0.031312  0  3.725962  0
N  N286  1  0.48347089  0.52920102  0.51362956  1  -0.489665  0  -0.154346  -0.139349  0  3.294872  0
N  N287  1  0.00282700  0.03456972  0.98218690  1  -0.476121  0  -0.154241  -0.137787  0  3.303189  0
O  O288  1  0.21321139  0.28985546  0.33038338  1  -1.185108  0  -0.321766  -0.569205  0  2.345006  0
O  O289  1  0.17360076  0.35102672  0.22848822  1  -1.167871  0  -0.320037  -0.558459  0  2.306881  0
O  O290  1  0.91750760  0.60602255  0.22156016  1  -1.160107  0  -0.318589  -0.551607  0  2.293286  0
O  O291  1  0.84087456  0.63491338  0.32771373  1  -1.195621  0  -0.315676  -0.564846  0  2.362675  0
O  O292  1  0.38776406  0.24024736  0.26185176  1  -1.16874  0  -0.313925  -0.548953  0  2.317426  0
O  O293  1  0.34509647  0.31794726  0.16148515  1  -1.17555  0  -0.31938  -0.567382  0  2.333271  0
O  O294  1  0.21879063  0.14851861  0.31519837  1  -1.183214  0  -0.319677  -0.586725  0  2.374252  0
O  O295  1  0.18931465  0.20710698  0.20870388  1  -1.16149  0  -0.313731  -0.536759  0  2.276993  0
O  O296  1  0.25806806  0.31780589  0.07254074  1  -1.152951  0  -0.294407  -0.43196  0  2.358761  0
O  O297  1  0.30274025  0.13021288  0.41851127  1  -1.163084  0  -0.296537  -0.440018  0  2.357173  0
O  O298  1  0.71311776  0.30554083  0.16521671  1  -1.168449  0  -0.321073  -0.565579  0  2.360253  0
O  O299  1  0.64949616  0.22662719  0.26336795  1  -1.176355  0  -0.313754  -0.547193  0  2.30137  0
O  O300  1  0.92530661  0.21158620  0.21340681  1  -1.168881  0  -0.314174  -0.550688  0  2.327726  0
O  O301  1  0.85050364  0.15582827  0.32112084  1  -1.183923  0  -0.31808  -0.576128  0  2.338087  0
O  O302  1  0.87313082  0.32274890  0.07945253  1  -1.157563  0  -0.297406  -0.439538  0  2.37037  0
O  O303  1  0.71014428  0.78678513  0.16961851  1  -1.185213  0  -0.321757  -0.569221  0  2.344871  0
O  O304  1  0.64897883  0.82640010  0.27150957  1  -1.167757  0  -0.320085  -0.558469  0  2.3067  0
O  O305  1  0.39397629  0.08249454  0.27844133  1  -1.160166  0  -0.318627  -0.551624  0  2.293271  0
O  O306  1  0.36508733  0.15912235  0.17228569  1  -1.195541  0  -0.315689  -0.564836  0  2.362665  0
O  O307  1  0.75975474  0.61223588  0.23814910  1  -1.168643  0  -0.313949  -0.548917  0  2.317425  0
O  O308  1  0.68205315  0.65490555  0.33851447  1  -1.175568  0  -0.319384  -0.567365  0  2.333169  0
O  O309  1  0.85147626  0.78121331  0.18480365  1  -1.185772  0  -0.319643  -0.586702  0  2.37423  0
O  O310  1  0.79289916  0.81068111  0.29129912  1  -1.161671  0  -0.313732  -0.53673  0  2.276899  0
O  O311  1  0.68220150  0.74192626  0.42745812  1  -1.153018  0  -0.294361  -0.43188  0  2.358608  0
O  O312  1  0.86978445  0.69726030  0.08148985  1  -1.163154  0  -0.296476  -0.439934  0  2.357429  0
O  O313  1  0.69445621  0.28688488  0.33478403  1  -1.16834  0  -0.321056  -0.565507  0  2.360094  0
O  O314  1  0.77337184  0.35050357  0.23662994  1  -1.17628  0  -0.313769  -0.547243  0  2.301276  0
O  O315  1  0.78841976  0.07469517  0.28659118  1  -1.169299  0  -0.314147  -0.550571  0  2.327571  0
O  O316  1  0.84417856  0.14949774  0.17887834  1  -1.184187  0  -0.318072  -0.576084  0  2.338083  0
O  O317  1  0.67725824  0.12686027  0.42054620  1  -1.157594  0  -0.29746  -0.439627  0  2.370409  0
O  O318  1  0.78679217  0.71015564  0.66960756  1  -1.18478  0  -0.321755  -0.569198  0  2.345046  0
O  O319  1  0.82639424  0.64897734  0.77150928  1  -1.167579  0  -0.320089  -0.558469  0  2.306706  0
O  O320  1  0.08248984  0.39398117  0.77843929  1  -1.160097  0  -0.318606  -0.551625  0  2.293309  0
O  O321  1  0.15912044  0.36508217  0.67228571  1  -1.195459  0  -0.315736  -0.564808  0  2.362549  0
O  O322  1  0.61223766  0.75974853  0.73814955  1  -1.168659  0  -0.314003  -0.549015  0  2.31743  0
O  O323  1  0.65490464  0.68205340  0.83851592  1  -1.175634  0  -0.319377  -0.567357  0  2.333102  0
O  O324  1  0.78120988  0.85148682  0.68479552  1  -1.182641  0  -0.319703  -0.586747  0  2.374118  0
O  O325  1  0.81068280  0.79289732  0.79129026  1  -1.161614  0  -0.313719  -0.536777  0  2.276977  0
O  O326  1  0.74193793  0.68219806  0.92745666  1  -1.152773  0  -0.294435  -0.431947  0  2.358734  0
O  O327  1  0.69725780  0.86979061  0.58148664  1  -1.163149  0  -0.296519  -0.439969  0  2.35741  0
O  O328  1  0.28687845  0.69446674  0.83478726  1  -1.168278  0  -0.321002  -0.565561  0  2.360127  0
O  O329  1  0.35050678  0.77337165  0.73663219  1  -1.176361  0  -0.313734  -0.547177  0  2.301413  0
O  O330  1  0.07469695  0.78841412  0.78659019  1  -1.16932  0  -0.314097  -0.550519  0  2.327679  0
O  O331  1  0.14949870  0.84417478  0.67887558  1  -1.184113  0  -0.318071  -0.576083  0  2.338152  0
O  O332  1  0.12687396  0.67724926  0.92054531  1  -1.157623  0  -0.29739  -0.439521  0  2.370492  0
O  O333  1  0.28984398  0.21320780  0.83039383  1  -1.184678  0  -0.321823  -0.569238  0  2.344906  0
O  O334  1  0.35102411  0.17360384  0.72849134  1  -1.167568  0  -0.320058  -0.558413  0  2.306874  0
O  O335  1  0.60602175  0.91750214  0.72156758  1  -1.159917  0  -0.318524  -0.551484  0  2.293425  0
O  O336  1  0.63491561  0.84087364  0.82772018  1  -1.195661  0  -0.315727  -0.564836  0  2.362612  0
O  O337  1  0.24024698  0.38776511  0.76184929  1  -1.168688  0  -0.313986  -0.549051  0  2.317384  0
O  O338  1  0.31794552  0.34509885  0.66148146  1  -1.175599  0  -0.319373  -0.567416  0  2.333178  0
O  O339  1  0.14851567  0.21878904  0.81520080  1  -1.183175  0  -0.319647  -0.586656  0  2.374125  0
O  O340  1  0.20711111  0.18931103  0.70870817  1  -1.161541  0  -0.313756  -0.536749  0  2.277033  0
O  O341  1  0.31779900  0.25807179  0.57254282  1  -1.152929  0  -0.294389  -0.431926  0  2.358749  0
O  O342  1  0.13021238  0.30273571  0.91850962  1  -1.162951  0  -0.296463  -0.439881  0  2.357286  0
O  O343  1  0.30554612  0.71311589  0.66521513  1  -1.168247  0  -0.321082  -0.565511  0  2.360185  0
O  O344  1  0.22663294  0.64949800  0.76336749  1  -1.17614  0  -0.313774  -0.547169  0  2.301473  0
O  O345  1  0.21158195  0.92530412  0.71341203  1  -1.169329  0  -0.314113  -0.550545  0  2.327592  0
O  O346  1  0.15581643  0.85050462  0.82112353  1  -1.18407  0  -0.318129  -0.576153  0  2.338148  0
O  O347  1  0.32274409  0.87313313  0.57945307  1  -1.157586  0  -0.297439  -0.43957  0  2.370638  0
