# generated using pymatgen
data_MnH14C14(N3O)4
_symmetry_space_group_name_H-M   'P 1'
_cell_length_a   7.90443195
_cell_length_b   7.85338089
_cell_length_c   7.86298567
_cell_angle_alpha   106.82210115
_cell_angle_beta   104.80489436
_cell_angle_gamma   93.41456114
_symmetry_Int_Tables_number   1
_chemical_formula_structural   MnH14C14(N3O)4
_chemical_formula_sum   'Mn1 H14 C14 N12 O4'
_cell_volume   446.98318736
_cell_formula_units_Z   1
loop_
 _symmetry_equiv_pos_site_id
 _symmetry_equiv_pos_as_xyz
  1  'x, y, z'
loop_
 _atom_site_type_symbol
 _atom_site_label
 _atom_site_symmetry_multiplicity
 _atom_site_fract_x
 _atom_site_fract_y
 _atom_site_fract_z
 _atom_site_occupancy
 _atom_site_hle17_bader_charge
 _atom_site_hle17_bader_spin_density
 _atom_site_hle17_ddec_charge
 _atom_site_hle17_ddec_spin_density
 _atom_site_hle17_ddec_sum_bond_order
 _atom_site_hle17_magmom
 _atom_site_hse06_10hf_ddec_charge
 _atom_site_hse06_10hf_ddec_spin_density
 _atom_site_hse06_10hf_ddec_sum_bond_order
 _atom_site_hse06_10hf_magmom
 _atom_site_hse06_ddec_charge
 _atom_site_hse06_ddec_spin_density
 _atom_site_hse06_ddec_sum_bond_order
 _atom_site_hse06_magmom
 _atom_site_pbe_cm5_charge
 _atom_site_pbe_ddec_charge
 _atom_site_pbe_ddec_spin_density
 _atom_site_pbe_ddec_sum_bond_order
 _atom_site_pbe_magmom
Mn  Mn0  1  0.00000000  0.00000000  0.00000000  1  1.35976  1.062601  0.702757  1.102793  2.776287  1.067  0.598354  1.075212  3.322202  1.033  0.645323  1.046377  3.259261  1.001  0.63882  0.570136  1.097386  3.358787  1.055
H  H1  1  0.18348672  0.62583995  0.59042625  1  -0.008854  0.000105  0.114204  9.6e-05  0.965221  0.0  0.119681  5.2e-05  1.041667  0.0  0.122476  4.4e-05  1.039697  0.0  0.102744  0.117675  6.3e-05  1.04308  0.0
H  H2  1  0.81651240  0.37415845  0.40957351  1  -0.008842  0.000105  0.114214  9.6e-05  0.965192  0.0  0.119716  5.2e-05  1.04162  0.0  0.12251  4.4e-05  1.039649  0.0  0.102764  0.11771  6.3e-05  1.043034  0.0
H  H3  1  0.41457893  0.68778874  0.67521010  1  0.014316  -0.000129  0.12099  -8e-05  0.951475  0.0  0.133871  -0.000295  1.01305  0.0  0.136125  -0.000144  1.012784  0.0  0.104854  0.132214  -0.000436  1.013405  0.0
H  H4  1  0.58542169  0.31221100  0.32479043  1  0.014315  -0.000129  0.120983  -8e-05  0.951465  0.0  0.133869  -0.000296  1.013048  0.0  0.136123  -0.000144  1.012782  0.0  0.104853  0.132212  -0.000436  1.013404  0.0
H  H5  1  0.45686328  0.43318898  0.79640890  1  0.131949  -2e-05  0.096001  1e-06  0.902924  0.0  0.101028  -6.5e-05  0.970668  0.0  0.10366  -1.8e-05  0.967157  0.0  0.14445  0.098967  -9.4e-05  0.973416  0.0
H  H6  1  0.54313604  0.56681076  0.20359131  1  0.131948  -2e-05  0.09598  1e-06  0.902934  0.0  0.101007  -6.5e-05  0.970682  0.0  0.103639  -1.7e-05  0.967171  0.0  0.144443  0.098946  -9.4e-05  0.97343  0.0
H  H7  1  0.39419888  0.95642506  0.26424943  1  0.204763  -0.000138  0.106919  -0.000131  0.987911  0.0  0.104579  -0.000112  1.065086  0.0  0.108755  -0.00012  1.059738  0.0  0.131242  0.101487  -0.000107  1.069093  0.0
H  H8  1  0.60580026  0.04357332  0.73575287  1  0.204771  -0.000138  0.106891  -0.000131  0.987965  0.0  0.104586  -0.000112  1.065106  0.0  0.108762  -0.00012  1.059758  0.0  0.131225  0.101492  -0.000107  1.069118  0.0
H  H9  1  0.08529091  0.37689837  0.34139352  1  0.179683  4.5e-05  0.105526  -8.4e-05  1.000626  0.0  0.103943  -0.0003  1.083393  0.0  0.108274  -0.000177  1.076612  0.0  0.137457  0.100569  -0.000399  1.08873  0.0
H  H10  1  0.91471119  0.62310274  0.65860525  1  0.179681  4.5e-05  0.105518  -8.4e-05  1.000635  0.0  0.103939  -0.0003  1.083405  0.0  0.108271  -0.000177  1.076622  0.0  0.137456  0.100566  -0.000399  1.088743  0.0
H  H11  1  0.80589429  0.28501084  0.79528160  1  0.139228  0.000234  0.10661  0.00011  0.957781  0.0  0.110118  -7.1e-05  1.027033  0.0  0.113598  -1.3e-05  1.022437  0.0  0.136471  0.107513  -0.000116  1.030487  0.0
H  H12  1  0.19410483  0.71498756  0.20471815  1  0.139222  0.000234  0.106621  0.00011  0.957774  0.0  0.110131  -7.1e-05  1.027024  0.0  0.11361  -1.2e-05  1.022428  0.0  0.136482  0.107525  -0.000116  1.03048  0.0
H  H13  1  0.33907649  0.19428090  0.91442114  1  0.183707  0.000201  0.125825  -0.000111  0.945031  0.0  0.130953  -0.000354  1.011203  0.0  0.135033  -0.000193  1.005225  0.0  0.145262  0.127713  -0.000489  1.016024  0.0
H  H14  1  0.66092302  0.80572017  0.08558079  1  0.1837  0.000201  0.125818  -0.000111  0.945057  0.0  0.13093  -0.000353  1.011242  0.0  0.135009  -0.000193  1.005266  0.0  0.145261  0.127688  -0.000489  1.016062  0.0
C  C15  1  0.28101562  0.74600633  0.88845144  1  1.573859  -0.006466  0.695206  -0.008908  3.852581  -0.004  0.649029  -0.004689  4.157452  -0.002  0.685134  -0.003768  4.150771  -0.002  0.208693  0.623495  -0.00589  4.161347  -0.003
C  C16  1  0.71898257  0.25399478  0.11154762  1  1.573826  -0.006465  0.695288  -0.008907  3.852502  -0.004  0.649073  -0.004688  4.157439  -0.002  0.685178  -0.003767  4.150758  -0.002  0.208709  0.623541  -0.005889  4.161331  -0.003
C  C17  1  0.29949710  0.62787709  0.70306112  1  0.163691  -0.000556  -0.339757  -0.001062  3.656466  0.0  -0.38627  -0.00146  3.910592  -0.001  -0.393307  -0.001052  3.916076  0.0  -0.163907  -0.381015  -0.001912  3.906728  -0.001
C  C18  1  0.70050221  0.37212267  0.29693782  1  0.1636  -0.000556  -0.339819  -0.001062  3.656428  0.0  -0.386379  -0.00146  3.910636  -0.001  -0.393416  -0.001054  3.916121  0.0  -0.163956  -0.381127  -0.001912  3.906776  -0.001
C  C19  1  0.32784698  0.43810753  0.70505861  1  0.681523  -0.000818  0.226147  -0.000944  3.580798  -0.001  0.168105  -0.001001  3.844237  -0.001  0.178053  -0.000872  3.85363  -0.001  0.138272  0.161413  -0.001202  3.837998  -0.001
C  C20  1  0.67215232  0.56189223  0.29494033  1  0.681627  -0.000818  0.226224  -0.000944  3.580763  -0.001  0.168186  -0.001  3.844206  -0.001  0.178135  -0.000872  3.8536  -0.001  0.138295  0.161495  -0.001201  3.83797  -0.001
C  C21  1  0.34484035  0.07768239  0.32893206  1  0.899085  0.001672  0.18291  0.000914  3.655637  0.001  0.133106  -0.000853  3.94356  0.0  0.145493  -0.000204  3.95363  0.0  0.14466  0.124876  -0.000814  3.937047  0.0
C  C22  1  0.65516027  0.92231735  0.67106848  1  0.899082  0.001672  0.182894  0.000914  3.655724  0.001  0.133066  -0.000854  3.943642  0.0  0.145451  -0.000204  3.953714  0.0  0.14465  0.124836  -0.000814  3.937128  0.0
C  C23  1  0.18438900  0.28939393  0.36261076  1  1.014979  -0.001774  0.189152  -0.002744  3.567588  -0.001  0.116062  -0.00968  3.843402  -0.005  0.13743  -0.006329  3.847572  -0.003  0.159618  0.101221  -0.012374  3.841209  -0.006
C  C24  1  0.81561181  0.71060717  0.63738895  1  1.015234  -0.001774  0.189183  -0.002743  3.567664  -0.001  0.116073  -0.009679  3.843498  -0.005  0.137441  -0.006329  3.847668  -0.003  0.159646  0.101232  -0.012373  3.841305  -0.006
C  C25  1  0.94467731  0.28884206  0.79992027  1  0.995538  -0.003831  0.199107  -0.004914  3.64625  -0.003  0.146569  -0.001738  3.93059  -0.001  0.159934  -0.000156  3.940926  0.0  0.150488  0.137733  -0.00234  3.92383  -0.001
C  C26  1  0.05532200  0.71115769  0.20007994  1  0.995561  -0.003831  0.199057  -0.004914  3.646282  -0.003  0.146539  -0.001738  3.930632  -0.001  0.159895  -0.000157  3.940965  0.0  0.150458  0.137701  -0.00234  3.923877  -0.001
C  C27  1  0.21390448  0.23944927  0.86573495  1  0.997864  -0.007587  0.190908  -0.0089  3.555789  -0.005  0.119643  -0.006973  3.832207  -0.004  0.140945  -0.002646  3.834881  -0.001  0.168258  0.105022  -0.010007  3.831013  -0.005
C  C28  1  0.78609503  0.76055182  0.13426571  1  0.997861  -0.007588  0.190938  -0.008901  3.555883  -0.005  0.119719  -0.006972  3.832297  -0.004  0.141015  -0.002646  3.834972  -0.001  0.168307  0.105098  -0.010007  3.8311  -0.005
N  N29  1  0.41943335  0.18409438  0.50098162  1  -0.66207  0.000175  -0.260146  -8.3e-05  2.864837  0.0  -0.251931  0.000939  3.143467  0.001  -0.260857  0.001039  3.157123  0.001  -0.220403  -0.245788  0.00071  3.134369  0.001
N  N30  1  0.58056727  0.81590536  0.49901891  1  -0.662046  0.000175  -0.260096  -8.4e-05  2.864878  0.0  -0.251885  0.00094  3.143504  0.001  -0.260811  0.001039  3.157162  0.001  -0.220378  -0.245743  0.00071  3.134406  0.001
N  N31  1  0.31770312  0.31930028  0.51997490  1  -0.855015  -0.001139  -0.030425  -0.001321  3.515651  -0.001  0.052913  -0.00253  3.754947  -0.002  0.039329  -0.001572  3.778025  -0.001  -0.139985  0.061679  -0.003517  3.739561  -0.002
N  N32  1  0.68229750  0.68069946  0.48002563  1  -0.855265  -0.001139  -0.030493  -0.001321  3.51576  -0.001  0.052865  -0.002532  3.755051  -0.002  0.03928  -0.001574  3.778129  -0.001  -0.139998  0.061629  -0.003517  3.739667  -0.002
N  N33  1  0.19703264  0.13597464  0.23882735  1  -1.193676  -0.006946  -0.332084  -0.011713  3.243396  -0.014  -0.271308  -0.006732  3.544891  -0.009  -0.295164  -0.005253  3.555754  -0.007  -0.343153  -0.255569  -0.008104  3.535977  -0.01
N  N34  1  0.80296798  0.86402511  0.76117319  1  -1.193694  -0.006946  -0.33207  -0.011713  3.243388  -0.014  -0.271294  -0.006732  3.5449  -0.009  -0.295146  -0.005252  3.555762  -0.007  -0.343163  -0.255552  -0.008104  3.535984  -0.01
N  N35  1  0.02494843  0.39121019  0.72779519  1  -0.715562  0.001211  -0.269198  0.000943  2.916574  0.001  -0.248611  0.000444  3.18911  0.001  -0.259271  0.00028  3.203767  0.001  -0.215671  -0.241473  0.000351  3.179532  0.001
N  N36  1  0.97505219  0.60878955  0.27220534  1  -0.715586  0.001212  -0.269234  0.000943  2.916606  0.001  -0.248645  0.000443  3.189139  0.001  -0.259304  0.00028  3.203797  0.001  -0.215695  -0.241507  0.000351  3.179561  0.001
N  N37  1  0.19550033  0.35962793  0.77213330  1  -0.85033  -0.000608  -0.014379  -0.000525  3.537114  0.0  0.069292  -0.001551  3.768783  -0.001  0.056295  -0.000624  3.792584  0.0  -0.132926  0.077647  -0.002433  3.752999  -0.002
N  N38  1  0.80450030  0.64037181  0.22786723  1  -0.850319  -0.000608  -0.014373  -0.000525  3.537118  0.0  0.069292  -0.001552  3.768779  -0.001  0.056294  -0.000623  3.792581  0.0  -0.132928  0.077648  -0.002433  3.752993  -0.002
N  N39  1  0.05618036  0.19158712  0.88606423  1  -1.156495  -0.012321  -0.32784  -0.015476  3.275875  -0.01  -0.272621  -0.008989  3.582503  -0.008  -0.294675  -0.007604  3.589595  -0.008  -0.34397  -0.25836  -0.010604  3.57627  -0.01
N  N40  1  0.94381896  0.80841262  0.11393598  1  -1.156486  -0.012321  -0.327784  -0.015475  3.275953  -0.01  -0.27263  -0.008989  3.582628  -0.008  -0.294663  -0.007604  3.589706  -0.008  -0.343972  -0.258369  -0.010603  3.576396  -0.01
O  O41  1  0.16584336  0.85300198  0.87289566  1  -1.198184  0.011406  -0.594948  0.007908  2.119107  0.004  -0.5323  0.009863  2.389761  0.006  -0.569912  0.00771  2.382936  0.004  -0.305208  -0.504865  0.012322  2.392582  0.008
O  O42  1  0.83415464  0.14699778  0.12710295  1  -1.198155  0.011406  -0.594966  0.007909  2.119092  0.004  -0.532275  0.009863  2.389734  0.006  -0.569887  0.007711  2.382911  0.004  -0.305178  -0.504839  0.012323  2.392553  0.008
O  O43  1  0.37765031  0.72999168  0.03598078  1  -1.219888  -0.004018  -0.642111  -0.004374  1.942212  -0.003  -0.595025  -0.00151  2.173396  -0.001  -0.620009  -0.001517  2.163811  -0.001  -0.326654  -0.577216  -0.001303  2.179537  -0.001
O  O44  1  0.62234751  0.27000671  0.96401993  1  -1.219911  -0.004018  -0.642148  -0.004374  1.942161  -0.003  -0.595064  -0.001509  2.173389  -0.001  -0.620048  -0.001517  2.163804  -0.001  -0.326694  -0.577259  -0.001303  2.179533  -0.001
