# generated using pymatgen
data_MgH8(C4O3)2
_symmetry_space_group_name_H-M   'P 1'
_cell_length_a   6.51832110
_cell_length_b   7.37574093
_cell_length_c   9.63700778
_cell_angle_alpha   98.07031746
_cell_angle_beta   109.80369551
_cell_angle_gamma   90.00316207
_symmetry_Int_Tables_number   1
_chemical_formula_structural   MgH8(C4O3)2
_chemical_formula_sum   'Mg2 H16 C16 O12'
_cell_volume   431.03992045
_cell_formula_units_Z   2
loop_
 _symmetry_equiv_pos_site_id
 _symmetry_equiv_pos_as_xyz
  1  'x, y, z'
loop_
 _atom_site_type_symbol
 _atom_site_label
 _atom_site_symmetry_multiplicity
 _atom_site_fract_x
 _atom_site_fract_y
 _atom_site_fract_z
 _atom_site_occupancy
 _atom_site_hle17_bader_spin_density
 _atom_site_hle17_ddec_charge
 _atom_site_hle17_ddec_spin_density
 _atom_site_hle17_ddec_sum_bond_order
 _atom_site_hle17_magmom
 _atom_site_hse06_10hf_bader_spin_density
 _atom_site_hse06_10hf_ddec_charge
 _atom_site_hse06_10hf_ddec_spin_density
 _atom_site_hse06_10hf_ddec_sum_bond_order
 _atom_site_hse06_10hf_magmom
 _atom_site_hse06_bader_spin_density
 _atom_site_hse06_ddec_charge
 _atom_site_hse06_ddec_spin_density
 _atom_site_hse06_ddec_sum_bond_order
 _atom_site_hse06_magmom
 _atom_site_pbe_bader_spin_density
 _atom_site_pbe_cm5_charge
 _atom_site_pbe_ddec_charge
 _atom_site_pbe_ddec_spin_density
 _atom_site_pbe_ddec_sum_bond_order
 _atom_site_pbe_magmom
Mg  Mg0  1  0.49999409  0.99998759  0.50001211  1  0  1.529481  0  1.097593  0  0  1.422108  0  1.349914  0  0  1.444416  0  1.314851  0  0  0.81414  1.406231  0  1.374518  0
Mg  Mg1  1  0.99998314  0.49999963  0.49999412  1  0  1.530052  0  1.096355  0  0  1.421913  0  1.349577  0  0  1.444297  0  1.314402  0  0  0.813874  1.405815  0  1.374735  0
H  H2  1  0.39910272  0.05784984  0.13703053  1  0  0.103575  0  0.950017  0  0  0.112477  0  1.013085  0  0  0.116016  0  1.010507  0  0  0.107573  0.109834  0  1.015232  0
H  H3  1  0.73760072  0.55731178  0.13660931  1  0  0.103233  0  0.950163  0  0  0.112412  0  1.012988  0  0  0.115915  0  1.010479  0  0  0.107577  0.109769  0  1.015127  0
H  H4  1  0.60096440  0.94215331  0.86298698  1  0  0.103454  0  0.950239  0  0  0.11237  0  1.013317  0  0  0.115908  0  1.010743  0  0  0.107586  0.109784  0  1.015406  0
H  H5  1  0.26235740  0.44269427  0.86339121  1  0  0.103235  0  0.95047  0  0  0.112477  0  1.013179  0  0  0.115993  0  1.010641  0  0  0.107583  0.109833  0  1.015321  0
H  H6  1  0.73741363  0.11948113  0.12223256  1  0  0.103153  0  0.950583  0  0  0.113775  0  1.009087  0  0  0.117179  0  1.006981  0  0  0.106224  0.111202  0  1.010922  0
H  H7  1  0.38475870  0.62008706  0.12258042  1  0  0.102653  0  0.951328  0  0  0.11382  0  1.009188  0  0  0.11733  0  1.006929  0  0  0.106117  0.111172  0  1.011142  0
H  H8  1  0.26265048  0.88055370  0.87777332  1  0  0.103085  0  0.95074  0  0  0.113772  0  1.009165  0  0  0.117174  0  1.007059  0  0  0.106238  0.11121  0  1.010989  0
H  H9  1  0.61518894  0.37990950  0.87740629  1  0  0.1027  0  0.950983  0  0  0.113782  0  1.008967  0  0  0.117229  0  1.006788  0  0  0.106015  0.111132  0  1.010916  0
H  H10  1  0.83986886  0.09686707  0.43937386  1  0  0.427478  0  0.8604  0  0  0.392851  0  0.940155  0  0  0.403552  0  0.924122  0  0  0.307642  0.385422  0  0.951288  0
H  H11  1  0.59964856  0.59693793  0.43978426  1  0  0.427687  0  0.860045  0  0  0.392973  0  0.940167  0  0  0.403668  0  0.924143  0  0  0.307354  0.385333  0  0.951628  0
H  H12  1  0.16008403  0.90313203  0.56063612  1  0  0.427501  0  0.86028  0  0  0.392831  0  0.940201  0  0  0.403536  0  0.92416  0  0  0.307548  0.385405  0  0.951324  0
H  H13  1  0.40029183  0.40305355  0.56015666  1  0  0.4278  0  0.85999  0  0  0.393044  0  0.940129  0  0  0.403743  0  0.924097  0  0  0.307393  0.385404  0  0.951588  0
H  H14  1  0.82264097  0.88459836  0.37763202  1  0  0.44525  0  0.842887  0  0  0.416188  0  0.901386  0  0  0.425757  0  0.887433  0  0  0.308199  0.409518  0  0.911121  0
H  H15  1  0.55470294  0.38472126  0.37774467  1  0  0.446721  0  0.840886  0  0  0.4174  0  0.89996  0  0  0.427026  0  0.885926  0  0  0.308581  0.410633  0  0.909824  0
H  H16  1  0.17733479  0.11540357  0.62236786  1  0  0.445163  0  0.843008  0  0  0.416129  0  0.901451  0  0  0.425698  0  0.887499  0  0  0.308102  0.409462  0  0.911188  0
H  H17  1  0.44527793  0.61526019  0.62224264  1  0  0.446881  0  0.840677  0  0  0.417561  0  0.899763  0  0  0.427187  0  0.885729  0  0  0.308579  0.410787  0  0.909642  0
C  C18  1  0.07533068  0.09995406  0.14354791  1  0  -0.066788  0  3.736196  0  0  -0.045861  0  3.973761  0  0  -0.052931  0  3.997248  0  0  -0.014034  -0.040922  0  3.957554  0
C  C19  1  0.06802704  0.59993781  0.14351915  1  0  -0.067085  0  3.736452  0  0  -0.046864  0  3.974406  0  0  -0.054114  0  3.998204  0  0  -0.01392  -0.042119  0  3.958455  0
C  C20  1  0.92472216  0.90005602  0.85646196  1  0  -0.066942  0  3.736489  0  0  -0.045923  0  3.974008  0  0  -0.053071  0  3.997589  0  0  -0.014147  -0.040929  0  3.957735  0
C  C21  1  0.93199096  0.40006420  0.85647262  1  0  -0.067395  0  3.736603  0  0  -0.047181  0  3.97446  0  0  -0.054433  0  3.998249  0  0  -0.013993  -0.04243  0  3.9585  0
C  C22  1  0.22492698  0.03362264  0.07549746  1  0  -0.057192  0  3.71167  0  0  -0.08357  0  3.966469  0  0  -0.084379  0  3.986911  0  0  -0.07756  -0.083175  0  3.952637  0
C  C23  1  0.85041389  0.53331116  0.07527092  1  0  -0.05677  0  3.710695  0  0  -0.083508  0  3.966115  0  0  -0.084257  0  3.986654  0  0  -0.077753  -0.082792  0  3.952157  0
C  C24  1  0.77513263  0.96639155  0.92451337  1  0  -0.056843  0  3.712191  0  0  -0.083279  0  3.966991  0  0  -0.084065  0  3.987458  0  0  -0.077536  -0.08294  0  3.953122  0
C  C25  1  0.14959833  0.46670033  0.92473514  1  0  -0.056482  0  3.711133  0  0  -0.083283  0  3.966497  0  0  -0.084034  0  3.987053  0  0  -0.077716  -0.082568  0  3.952542  0
C  C26  1  0.85036722  0.06560745  0.06734944  1  0  -0.063882  0  3.714173  0  0  -0.086192  0  3.96308  0  0  -0.087634  0  3.984223  0  0  -0.079652  -0.084722  0  3.948634  0
C  C27  1  0.21699831  0.56596356  0.06754078  1  0  -0.062632  0  3.713668  0  0  -0.085013  0  3.962576  0  0  -0.086523  0  3.983727  0  0  -0.079438  -0.083956  0  3.948333  0
C  C28  1  0.14967945  0.93440959  0.93264945  1  0  -0.06362  0  3.71401  0  0  -0.086026  0  3.962892  0  0  -0.087442  0  3.984057  0  0  -0.079607  -0.084575  0  3.94839  0
C  C29  1  0.78300314  0.43403435  0.93244888  1  0  -0.062346  0  3.712903  0  0  -0.084663  0  3.961753  0  0  -0.086125  0  3.982933  0  0  -0.079176  -0.083607  0  3.947504  0
C  C30  1  0.15201958  0.20994339  0.29580994  1  0  0.702463  0  3.855395  0  0  0.64242  0  4.158846  0  0  0.676795  0  4.14819  0  0  0.233128  0.619384  0  4.164804  0
C  C31  1  0.14339924  0.70997368  0.29578533  1  0  0.702408  0  3.854352  0  0  0.643298  0  4.156524  0  0  0.677633  0  4.145952  0  0  0.233025  0.619803  0  4.163481  0
C  C32  1  0.84801262  0.79007347  0.70420954  1  0  0.702455  0  3.855723  0  0  0.642309  0  4.15923  0  0  0.676706  0  4.148585  0  0  0.233335  0.619255  0  4.165173  0
C  C33  1  0.85656756  0.29001595  0.70420908  1  0  0.702285  0  3.854847  0  0  0.643355  0  4.156693  0  0  0.677691  0  4.146122  0  0  0.233111  0.619859  0  4.163642  0
O  O34  1  0.35586751  0.21234560  0.37707919  1  0  -0.773507  0  2.062587  0  0  -0.69943  0  2.2941  0  0  -0.723655  0  2.280742  0  0  -0.350209  -0.682171  0  2.302405  0
O  O35  1  0.02069764  0.71219190  0.37685961  1  0  -0.772474  0  2.060695  0  0  -0.698658  0  2.291834  0  0  -0.722887  0  2.278487  0  0  -0.35021  -0.68197  0  2.301012  0
O  O36  1  0.64416852  0.78765188  0.62295765  1  0  -0.773451  0  2.06264  0  0  -0.699373  0  2.294184  0  0  -0.723592  0  2.280812  0  0  -0.3503  -0.682121  0  2.302523  0
O  O37  1  0.97925875  0.28781425  0.62312912  1  0  -0.772324  0  2.060659  0  0  -0.698571  0  2.291673  0  0  -0.722805  0  2.27834  0  0  -0.350218  -0.68188  0  2.300838  0
O  O38  1  0.01159123  0.29617613  0.33870755  1  0  -0.708311  0  2.062229  0  0  -0.646485  0  2.307938  0  0  -0.670115  0  2.29732  0  0  -0.345884  -0.63007  0  2.31461  0
O  O39  1  0.32678327  0.79626003  0.33885314  1  0  -0.708638  0  2.062253  0  0  -0.647165  0  2.307528  0  0  -0.670779  0  2.296782  0  0  -0.346547  -0.630864  0  2.314698  0
O  O40  1  0.98842359  0.70382579  0.66129388  1  0  -0.708448  0  2.062264  0  0  -0.646485  0  2.307905  0  0  -0.670112  0  2.297273  0  0  -0.345976  -0.630073  0  2.314582  0
O  O41  1  0.67320665  0.20370609  0.66116042  1  0  -0.708611  0  2.062684  0  0  -0.647224  0  2.307882  0  0  -0.670833  0  2.297127  0  0  -0.346648  -0.630919  0  2.315042  0
O  O42  1  0.73675955  0.98961926  0.39677347  1  0  -0.877843  0  1.839449  0  0  -0.827887  0  2.033472  0  0  -0.843416  0  2.000711  0  0  -0.60204  -0.817246  0  2.056271  0
O  O43  1  0.65984685  0.48969292  0.39695008  1  0  -0.879556  0  1.836604  0  0  -0.829272  0  2.030587  0  0  -0.844815  0  1.997685  0  0  -0.602245  -0.818378  0  2.053983  0
O  O44  1  0.26320902  0.01037022  0.60323688  1  0  -0.877719  0  1.839277  0  0  -0.82779  0  2.033395  0  0  -0.843316  0  2.000622  0  0  -0.601824  -0.817156  0  2.056194  0
O  O45  1  0.34012283  0.51029417  0.60302081  1  0  -0.879853  0  1.836351  0  0  -0.829566  0  2.030255  0  0  -0.845112  0  1.997343  0  0  -0.602295  -0.818665  0  2.053655  0
