# generated using pymatgen
data_ZnH12C21NO6
_symmetry_space_group_name_H-M   'P 1'
_cell_length_a   10.95677462
_cell_length_b   14.80298308
_cell_length_c   16.16752155
_cell_angle_alpha   90.50501016
_cell_angle_beta   91.65119382
_cell_angle_gamma   89.90069018
_symmetry_Int_Tables_number   1
_chemical_formula_structural   ZnH12C21NO6
_chemical_formula_sum   'Zn2 H24 C42 N2 O12'
_cell_volume   2621.06447223
_cell_formula_units_Z   2
loop_
 _symmetry_equiv_pos_site_id
 _symmetry_equiv_pos_as_xyz
  1  'x, y, z'
loop_
 _atom_site_type_symbol
 _atom_site_label
 _atom_site_symmetry_multiplicity
 _atom_site_fract_x
 _atom_site_fract_y
 _atom_site_fract_z
 _atom_site_occupancy
 _atom_site_pbe_bader_charge
 _atom_site_pbe_bader_spin_density
 _atom_site_pbe_cm5_charge
 _atom_site_pbe_ddec_charge
 _atom_site_pbe_ddec_spin_density
 _atom_site_pbe_ddec_sum_bond_order
 _atom_site_pbe_magmom
Zn  Zn0  1  0.50491346  0.40404761  0.49855177  1  1.312103  0  0.683548  0.8857  0  2.420266  0
Zn  Zn1  1  0.50290549  0.59286563  0.50145017  1  1.317797  0  0.68778  0.889003  0  2.418593  0
H  H2  1  0.70024606  0.76062861  0.21497547  1  0.029027  0  0.088296  0.0793  0  1.014136  0
H  H3  1  0.30088978  0.27631124  0.81218976  1  0.034629  0  0.089646  0.078845  0  1.018732  0
H  H4  1  0.68685077  0.59272717  0.20457176  1  0.048769  0  0.092816  0.086505  0  1.030702  0
H  H5  1  0.19877271  0.42384885  0.83902522  1  0.043552  0  0.096497  0.090791  0  1.004675  0
H  H6  1  0.79831399  0.49712321  0.30671584  1  0.028527  0  0.101685  0.104919  0  0.989628  0
H  H7  1  0.08951543  0.50374902  0.72425249  1  0.067938  0  0.104013  0.106633  0  0.985757  0
H  H8  1  0.94286931  0.73494440  0.42852042  1  0.091662  0  0.100852  0.102845  0  0.991132  0
H  H9  1  0.18646918  0.29146876  0.55526077  1  0.068368  0  0.09708  0.099037  0  1.003038  0
H  H10  1  0.82944818  0.83160433  0.32739439  1  0.031815  0  0.087806  0.077877  0  1.015493  0
H  H11  1  0.29443945  0.21014121  0.66986637  1  0.035826  0  0.084076  0.075103  0  1.037727  0
H  H12  1  0.43894348  0.35825610  0.91510910  1  0.093454  0  0.106194  0.108223  0  1.000145  0
H  H13  1  0.51270862  0.63711833  0.08315419  1  0.058249  0  0.107428  0.110719  0  0.98893  0
H  H14  1  0.41918515  0.35467947  0.06825158  1  0.070672  0  0.106935  0.109774  0  0.98797  0
H  H15  1  0.53322218  0.64033380  0.93020523  1  0.087334  0  0.108299  0.110966  0  0.986246  0
H  H16  1  0.49045720  0.90537711  0.62556708  1  0.115739  0  0.131475  0.15116  0  0.962361  0
H  H17  1  0.51735245  0.09017364  0.37020424  1  0.113759  0  0.12995  0.149789  0  0.964096  0
H  H18  1  0.48445474  0.04610995  0.69511719  1  0.619003  0  0.359606  0.384787  0  0.8397  0
H  H19  1  0.52341412  0.94911870  0.30070860  1  0.617511  0  0.357998  0.383285  0  0.841273  0
H  H20  1  0.07195236  0.55598733  0.27451947  1  0.029221  0  0.087912  0.081746  0  1.018641  0
H  H21  1  0.19718952  0.49274917  0.31977305  1  0.020997  0  0.09173  0.092702  0  0.999473  0
H  H22  1  0.22323586  0.60352377  0.28068859  1  0.065025  0  0.102623  0.112583  0  0.980309  0
H  H23  1  0.93741700  0.28478848  0.62384129  1  0.045944  0  0.084146  0.076116  0  1.034906  0
H  H24  1  0.80659327  0.30421077  0.55535775  1  0.057187  0  0.087085  0.088074  0  1.026351  0
H  H25  1  0.78926655  0.30614443  0.66523975  1  0.065777  0  0.102512  0.110268  0  0.974923  0
C  C26  1  0.51908894  0.50320485  0.66157484  1  1.712984  0  0.219215  0.66894  0  4.236647  0
C  C27  1  0.47891590  0.48571138  0.33833275  1  1.708033  0  0.215723  0.658941  0  4.259192  0
C  C28  1  0.13175370  0.50078596  0.50485362  1  0.016635  0  -0.015886  -0.146367  0  3.943792  0
C  C29  1  0.87643372  0.50308445  0.49551951  1  -0.026951  0  -0.017607  -0.15082  0  3.948528  0
C  C30  1  0.06652434  0.45212141  0.56351715  1  0.016619  0  -0.008392  -0.0411  0  3.975376  0
C  C31  1  0.94172116  0.55363758  0.43827030  1  0.021995  0  -0.00833  -0.041317  0  3.986251  0
C  C32  1  0.44392872  0.41702140  0.03759350  1  -0.074744  0  -0.08198  -0.123891  0  3.969416  0
C  C33  1  0.50811530  0.57805812  0.96082637  1  -0.030244  0  -0.079618  -0.119651  0  3.963585  0
C  C34  1  0.46603896  0.49537601  0.08613638  1  0.08017  0  0.000973  0.132843  0  4.114847  0
C  C35  1  0.48845292  0.49928395  0.91241027  1  0.155361  0  0.004416  0.137298  0  4.104423  0
C  C36  1  0.49673780  0.57625871  0.04599659  1  -0.02452  0  -0.081016  -0.123879  0  3.968416  0
C  C37  1  0.45494058  0.41896956  0.95240903  1  -0.05952  0  -0.079507  -0.119151  0  3.960451  0
C  C38  1  0.46277312  0.49228472  0.17353146  1  -0.366514  0  -0.038468  -0.07171  0  4.108682  0
C  C39  1  0.50217791  0.50060049  0.82565774  1  -0.570379  0  -0.03855  -0.072311  0  4.110211  0
C  C40  1  0.51339143  0.50110981  0.75089767  1  0.233723  0  -0.037538  -0.159658  0  3.947875  0
C  C41  1  0.46638515  0.48929399  0.24892007  1  0.035818  0  -0.040816  -0.174673  0  3.97037  0
C  C42  1  0.49589634  0.04077725  0.57640449  1  0.429587  0  0.099475  0.27608  0  4.099674  0
C  C43  1  0.51213315  0.95479174  0.41940170  1  0.475508  0  0.100261  0.276597  0  4.098975  0
C  C44  1  0.50380280  0.09147096  0.50298154  1  0.242907  0  0.012678  -0.015839  0  4.06598  0
C  C45  1  0.50435484  0.90417180  0.49288496  1  0.204792  0  0.016114  -0.009633  0  4.057643  0
C  C46  1  0.51165990  0.04870169  0.42537884  1  0.086967  0  -0.077822  -0.235585  0  3.950959  0
C  C47  1  0.49639249  0.94690447  0.57043332  1  0.091265  0  -0.076013  -0.233779  0  3.950037  0
C  C48  1  0.73929102  0.50280319  0.49299881  1  1.619597  0  0.221754  0.622875  0  4.160833  0
C  C49  1  0.26904152  0.50131779  0.50695138  1  1.58059  0  0.220585  0.625481  0  4.156143  0
C  C50  1  0.50416532  0.18712998  0.50693965  1  0.757928  0  0.242661  0.312924  0  3.914165  0
C  C51  1  0.50368672  0.80851830  0.48913383  1  0.774781  0  0.246692  0.317676  0  3.907032  0
C  C52  1  0.74310371  0.62450021  0.25330798  1  -0.074982  0  -0.096539  -0.073863  0  4.031441  0
C  C53  1  0.19502702  0.39393292  0.77706278  1  -0.030597  0  -0.096977  -0.084306  0  4.045644  0
C  C54  1  0.80591825  0.57055430  0.31079057  1  0.013587  0  -0.091694  -0.129815  0  3.957657  0
C  C55  1  0.13411466  0.43913576  0.71259831  1  -0.018445  0  -0.086919  -0.120679  0  3.953286  0
C  C56  1  0.87784249  0.60980894  0.37451999  1  0.003132  0  -0.003889  0.099083  0  3.987889  0
C  C57  1  0.13034531  0.40261804  0.63224305  1  0.021676  0  -0.00591  0.091926  0  3.976175  0
C  C58  1  0.88687993  0.70424166  0.37904322  1  -0.00519  0  -0.089811  -0.120912  0  3.967348  0
C  C59  1  0.18781557  0.31940715  0.61787450  1  -0.084097  0  -0.093226  -0.123793  0  3.982169  0
C  C60  1  0.82305800  0.75815361  0.32220833  1  -0.069028  0  -0.105878  -0.096754  0  4.076335  0
C  C61  1  0.24838022  0.27406989  0.68229306  1  -0.043382  0  -0.103929  -0.08863  0  4.059414  0
C  C62  1  0.75080316  0.71845285  0.25920038  1  -0.054991  0  -0.105962  -0.101471  0  4.061653  0
C  C63  1  0.25229331  0.31131304  0.76199533  1  -0.059584  0  -0.103029  -0.097513  0  4.05993  0
C  C64  1  0.06987023  0.55187985  0.44393573  1  0.451067  0  0.080425  0.171703  0  4.033213  0
C  C65  1  0.93825338  0.45492508  0.55853053  1  0.541925  0  0.081089  0.173976  0  4.030107  0
C  C66  1  0.15758050  0.56068426  0.31177092  1  0.423364  0  -0.142182  -0.163157  0  3.919571  0
C  C67  1  0.85089785  0.32203113  0.61517218  1  0.3788  0  -0.145992  -0.164152  0  3.928273  0
N  N68  1  0.50190158  0.73021549  0.48963191  1  -1.073109  0  -0.254089  -0.256421  0  3.076661  0
N  N69  1  0.50521038  0.26551187  0.50740902  1  -1.070104  0  -0.256417  -0.263272  0  3.075666  0
O  O70  1  0.51334194  0.42689193  0.62439250  1  -1.136941  0  -0.312944  -0.547462  0  2.259669  0
O  O71  1  0.47412402  0.56112671  0.37660682  1  -1.147367  0  -0.308149  -0.546465  0  2.262302  0
O  O72  1  0.52745502  0.58078023  0.62910213  1  -1.136115  0  -0.317974  -0.545883  0  2.234146  0
O  O73  1  0.49413071  0.40770282  0.36949545  1  -1.125648  0  -0.323602  -0.55171  0  2.235228  0
O  O74  1  0.68758667  0.42584552  0.48969646  1  -1.150787  0  -0.312293  -0.552572  0  2.348393  0
O  O75  1  0.32154321  0.57639007  0.52102924  1  -1.143411  0  -0.312803  -0.53889  0  2.30995  0
O  O76  1  0.68630406  0.57913463  0.49388323  1  -1.149605  0  -0.30852  -0.536338  0  2.327566  0
O  O77  1  0.32090712  0.42578866  0.49327532  1  -1.155737  0  -0.311591  -0.553897  0  2.338965  0
O  O78  1  0.48808049  0.08747696  0.64872055  1  -1.107203  0  -0.324029  -0.418212  0  2.270201  0
O  O79  1  0.51945150  0.90796505  0.34723512  1  -1.102962  0  -0.322799  -0.415409  0  2.265043  0
O  O80  1  0.13720612  0.60279218  0.39053975  1  -1.074747  0  -0.211906  -0.193615  0  2.55075  0
O  O81  1  0.87040100  0.41780486  0.62037584  1  -1.081794  0  -0.20945  -0.18854  0  2.53922  0
