# generated using pymatgen
data_CoH10C17NO4
_symmetry_space_group_name_H-M   'P 1'
_cell_length_a   13.13663463
_cell_length_b   13.19613135
_cell_length_c   13.61679861
_cell_angle_alpha   84.91130967
_cell_angle_beta   70.14869487
_cell_angle_gamma   83.15340951
_symmetry_Int_Tables_number   1
_chemical_formula_structural   CoH10C17NO4
_chemical_formula_sum   'Co4 H40 C68 N4 O16'
_cell_volume   2201.46833200
_cell_formula_units_Z   4
loop_
 _symmetry_equiv_pos_site_id
 _symmetry_equiv_pos_as_xyz
  1  'x, y, z'
loop_
 _atom_site_type_symbol
 _atom_site_label
 _atom_site_symmetry_multiplicity
 _atom_site_fract_x
 _atom_site_fract_y
 _atom_site_fract_z
 _atom_site_occupancy
 _atom_site_pbe_bader_charge
 _atom_site_pbe_bader_spin_density
 _atom_site_pbe_cm5_charge
 _atom_site_pbe_ddec_charge
 _atom_site_pbe_ddec_spin_density
 _atom_site_pbe_ddec_sum_bond_order
 _atom_site_pbe_magmom
Co  Co0  1  0.18576507  0.81723143  0.18704002  1  1.202069  2.605214  0.616391  0.765781  2.826441  2.755772  2.589
Co  Co1  1  0.13571719  0.82277281  0.36573134  1  1.195005  2.604608  0.621191  0.762079  2.824747  2.766201  2.588
Co  Co2  1  0.81422656  0.18276969  0.81296849  1  1.201861  2.605192  0.616138  0.7655  2.826418  2.755754  2.589
Co  Co3  1  0.86426855  0.17722895  0.63430546  1  1.195202  2.604641  0.621094  0.761955  2.824661  2.765866  2.588
H  H4  1  0.87738349  0.80328345  0.15396872  1  0.095022  0.000276  0.10546  0.115674  0.000156  1.001801  0.0
H  H5  1  0.74375777  0.78485479  0.06674817  1  0.073531  0.000176  0.098663  0.096691  6.4e-05  1.042562  0.0
H  H6  1  0.55071401  0.78377032  0.07449850  1  0.095306  0.000539  0.107371  0.11465  0.000285  0.995093  0.0
H  H7  1  0.43993827  0.83540719  0.40292808  1  0.098421  0.000332  0.10743  0.1179  0.000196  0.999785  0.0
H  H8  1  0.57523045  0.85587179  0.49173054  1  0.07226  0.000172  0.105461  0.107721  7.7e-05  0.988688  0.0
H  H9  1  0.76757304  0.85805768  0.48192068  1  0.111913  0.000371  0.106027  0.112375  0.000184  1.010771  0.0
H  H10  1  0.11636439  0.14980938  0.41460738  1  0.106466  0.000403  0.107131  0.116592  0.000192  1.032225  0.0
H  H11  1  0.09341416  0.31585010  0.49367513  1  0.105208  0.00029  0.103554  0.117537  9.2e-05  1.01783  0.0
H  H12  1  0.10397283  0.50460038  0.47204307  1  0.079055  0.000417  0.102768  0.106879  0.000248  1.018385  0.0
H  H13  1  0.20094228  0.49168061  0.13820613  1  0.075143  0.000426  0.103508  0.109162  0.000249  1.006718  0.0
H  H14  1  0.22429993  0.32410653  0.05858074  1  0.100775  0.000245  0.098832  0.097676  0.000115  1.013897  0.0
H  H15  1  0.21683292  0.13427080  0.08079268  1  0.094522  0.000474  0.100908  0.104462  0.000291  1.027416  0.0
H  H16  1  0.11213942  0.96636615  0.03676318  1  0.127279  0.001027  0.119105  0.091374  0.000295  1.008084  0.001
H  H17  1  0.08482041  0.97073832  0.86486665  1  0.083816  0.000376  0.109232  0.116388  0.000159  1.024079  0.0
H  H18  1  0.24869896  0.66421108  0.82820931  1  0.09591  0.000578  0.111051  0.11517  0.000248  1.003223  0.0
H  H19  1  0.26361492  0.67282828  0.00418137  1  0.128566  0.001116  0.125013  0.099222  0.000369  0.980967  0.001
H  H20  1  0.10084038  0.97827275  0.71433872  1  0.07802  0.000427  0.105574  0.108216  5e-05  1.049459  0.0
H  H21  1  0.08448585  0.97362087  0.53974551  1  0.145962  0.001213  0.122888  0.103149  0.000387  1.007843  0.001
H  H22  1  0.17876939  0.66338253  0.52613366  1  0.127157  0.001025  0.122827  0.09879  0.000303  0.997197  0.001
H  H23  1  0.19760661  0.65306966  0.70215451  1  0.090909  0.000462  0.110679  0.114539  0.000204  1.001361  0.0
H  H24  1  0.12261755  0.19671310  0.84602832  1  0.095067  0.000276  0.105471  0.115673  0.000156  1.001785  0.0
H  H25  1  0.25623819  0.21514407  0.93324884  1  0.073538  0.000176  0.098651  0.096726  6.4e-05  1.042525  0.0
H  H26  1  0.44928009  0.21623082  0.92550187  1  0.095346  0.000539  0.107396  0.114732  0.000285  0.995098  0.0
H  H27  1  0.56006126  0.16459622  0.59707330  1  0.098428  0.000332  0.107446  0.11791  0.000196  0.999765  0.0
H  H28  1  0.42477094  0.14412934  0.50826675  1  0.072263  0.000172  0.105466  0.10773  7.7e-05  0.98872  0.0
H  H29  1  0.23242990  0.14194420  0.51807605  1  0.111896  0.000371  0.106002  0.112377  0.000184  1.010735  0.0
H  H30  1  0.88363230  0.85019023  0.58539229  1  0.106099  0.000402  0.107081  0.116573  0.000192  1.032223  0.0
H  H31  1  0.90658643  0.68415102  0.50632315  1  0.105193  0.00029  0.103548  0.11752  9.2e-05  1.017825  0.0
H  H32  1  0.89602840  0.49540227  0.52795635  1  0.079118  0.000416  0.102784  0.106901  0.000248  1.018427  0.0
H  H33  1  0.79906161  0.50831973  0.86179189  1  0.075577  0.000426  0.103519  0.109168  0.000249  1.006729  0.0
H  H34  1  0.77570572  0.67589228  0.94141756  1  0.100789  0.000245  0.098836  0.09768  0.000115  1.01389  0.0
H  H35  1  0.78316538  0.86572880  0.91920720  1  0.094531  0.000473  0.100919  0.104501  0.000291  1.027372  0.0
H  H36  1  0.88786136  0.03363267  0.96323816  1  0.12735  0.001027  0.119111  0.091352  0.000295  1.008101  0.001
H  H37  1  0.91518186  0.02926204  0.13513042  1  0.08378  0.000377  0.109277  0.116442  0.000159  1.024176  0.0
H  H38  1  0.75130532  0.33578546  0.17178595  1  0.096005  0.000578  0.111084  0.115218  0.000248  1.003239  0.0
H  H39  1  0.73638684  0.32716901  0.99581758  1  0.128577  0.001116  0.125004  0.099188  0.000369  0.981045  0.001
H  H40  1  0.89915978  0.02172457  0.28565780  1  0.077927  0.000426  0.105602  0.108217  5e-05  1.049413  0.0
H  H41  1  0.91551167  0.02637876  0.46024948  1  0.145905  0.001211  0.122875  0.103125  0.000386  1.007822  0.001
H  H42  1  0.82123704  0.33661708  0.47385699  1  0.127367  0.001024  0.122804  0.098734  0.000303  0.997184  0.001
H  H43  1  0.80240540  0.34693068  0.29783575  1  0.091001  0.000462  0.110711  0.114509  0.000204  1.00143  0.0
C  C44  1  0.94961093  0.83213299  0.30755033  1  1.536056  -0.009467  0.208778  0.55407  -0.012714  4.188007  -0.009
C  C45  1  0.83353442  0.83069529  0.31617962  1  -0.000132  0.008482  -0.023278  -0.039272  0.004543  4.006525  0.007
C  C46  1  0.81028305  0.81469505  0.22711893  1  -0.097574  -0.003047  -0.080824  -0.138662  -0.003566  3.93474  -0.002
C  C47  1  0.70209749  0.81241142  0.23025060  1  -0.064086  -0.000805  -0.007932  0.075128  -0.000981  4.016294  0.0
C  C48  1  0.67664033  0.79618218  0.13980637  1  -0.020377  0.000515  -0.091977  -0.139853  0.000181  4.000884  0.0
C  C49  1  0.57065242  0.79502437  0.14398231  1  -0.070235  0.000273  -0.085309  -0.094789  -0.000148  3.985136  0.0
C  C50  1  0.48490406  0.80888700  0.24048289  1  -0.042823  0.009458  -0.014546  -0.020317  0.005055  3.974306  0.008
C  C51  1  0.50749511  0.82473839  0.33000120  1  0.042805  -0.003552  -0.07806  -0.13759  -0.004092  3.919749  -0.002
C  C52  1  0.61548869  0.82748028  0.32763690  1  -0.005476  -0.00057  -0.00496  0.076367  -0.000753  4.008522  0.0
C  C53  1  0.64144694  0.84409675  0.41790162  1  -0.093237  0.000131  -0.087081  -0.128693  -6.3e-05  3.985617  0.0
C  C54  1  0.74782157  0.84538765  0.41272664  1  -0.006869  0.000368  -0.088448  -0.103967  -3.3e-05  3.994918  0.0
C  C55  1  0.36914550  0.80759068  0.24775422  1  1.514341  -0.010636  0.213909  0.57108  -0.01422  4.160524  -0.01
C  C56  1  0.16108176  0.01916906  0.26002857  1  1.49635  -0.014043  0.213323  0.563282  -0.018301  4.164831  -0.012
C  C57  1  0.16575411  0.13163111  0.24919740  1  -0.009897  0.007369  -0.021542  -0.032669  0.003805  3.997747  0.007
C  C58  1  0.14046703  0.18793969  0.33697032  1  -0.052214  -0.005391  -0.076862  -0.133768  -0.006128  3.914971  -0.003
C  C59  1  0.14416899  0.29507571  0.32734879  1  0.010113  -0.001352  -0.003963  0.076846  -0.001582  3.993024  0.0
C  C60  1  0.11851658  0.35449625  0.41622726  1  -0.019519  0.000205  -0.085861  -0.123513  -0.000129  3.960772  0.0
C  C61  1  0.12383843  0.45854309  0.40435153  1  -0.018975  -0.0001  -0.089289  -0.102615  -0.000404  3.992963  0.0
C  C62  1  0.15394406  0.50851938  0.30316058  1  -0.022462  0.007535  -0.019984  -0.029917  0.003836  3.998816  0.007
C  C63  1  0.17843173  0.45231702  0.21537894  1  -0.044245  -0.005058  -0.080612  -0.139893  -0.005771  3.93587  -0.003
C  C64  1  0.17464413  0.34525535  0.22487813  1  -0.013254  -0.00119  -0.007165  0.074691  -0.001391  4.013533  0.0
C  C65  1  0.20040061  0.28544215  0.13622327  1  -0.157174  0.000111  -0.092949  -0.138301  -0.000145  4.003565  0.0
C  C66  1  0.19619385  0.18130228  0.14792193  1  -0.02375  0.000227  -0.092168  -0.104099  -0.000127  3.999701  0.0
C  C67  1  0.15845833  0.62110150  0.29184851  1  1.518076  -0.014489  0.213858  0.56854  -0.018663  4.154373  -0.012
C  C68  1  0.14010427  0.90092953  0.98759665  1  0.482104  -0.002356  0.053431  0.10358  -0.003029  3.929271  -0.001
C  C69  1  0.12571670  0.90241748  0.89106680  1  -0.051135  0.002725  -0.079542  -0.173064  0.001232  3.927753  0.002
C  C70  1  0.16386962  0.81676950  0.82948885  1  -0.018773  -0.003134  0.014001  0.107315  -0.003582  3.972938  -0.002
C  C71  1  0.21534247  0.73299481  0.87135679  1  -0.007304  0.002398  -0.080983  -0.17811  0.000979  3.953543  0.002
C  C72  1  0.22557624  0.73735697  0.96920267  1  0.47179  -0.000856  0.056459  0.098571  -0.001491  3.942224  0.0
C  C73  1  0.15151712  0.81599141  0.72557375  1  -0.019106  -0.002756  0.012083  0.101159  -0.003251  3.977233  -0.002
C  C74  1  0.11862781  0.90590401  0.67687115  1  0.026969  0.002228  -0.079771  -0.163524  0.000847  3.927409  0.002
C  C75  1  0.10938809  0.90412735  0.57846542  1  0.452448  -0.000966  0.055978  0.104585  -0.001669  3.911228  0.0
C  C76  1  0.16207664  0.73102929  0.57167642  1  0.460882  -0.001733  0.054955  0.102802  -0.002373  3.930397  -0.001
C  C77  1  0.17290013  0.72663810  0.66998650  1  -0.006754  0.00291  -0.080935  -0.176107  0.001356  3.947875  0.002
C  C78  1  0.05039958  0.16786580  0.69244715  1  1.536268  -0.009454  0.208726  0.554019  -0.012698  4.188099  -0.009
C  C79  1  0.16647373  0.16930274  0.68381941  1  -0.000247  0.008481  -0.023233  -0.039037  0.004542  4.006314  0.007
C  C80  1  0.18971951  0.18530224  0.77288123  1  -0.097688  -0.003041  -0.080759  -0.138622  -0.003559  3.934591  -0.002
C  C81  1  0.29790412  0.18758741  0.76974827  1  -0.06415  -0.000805  -0.007976  0.075032  -0.000981  4.016305  0.0
C  C82  1  0.32335643  0.20381667  0.86019260  1  -0.020244  0.000516  -0.091865  -0.139757  0.000182  4.000948  0.0
C  C83  1  0.42933998  0.20497753  0.85602149  1  -0.070181  0.000273  -0.085366  -0.094965  -0.000149  3.985259  0.0
C  C84  1  0.51508510  0.19111491  0.75952122  1  -0.043107  0.009459  -0.014561  -0.020265  0.005056  3.974408  0.008
C  C85  1  0.49250383  0.17526273  0.67000055  1  0.042973  -0.00355  -0.078061  -0.137544  -0.004089  3.919772  -0.002
C  C86  1  0.38451278  0.17252008  0.67236116  1  -0.005413  -0.000568  -0.004958  0.076378  -0.000751  4.008479  0.0
C  C87  1  0.35855526  0.15590437  0.58209541  1  -0.093438  0.000131  -0.087121  -0.12875  -6.4e-05  3.985716  0.0
C  C88  1  0.25218078  0.15461194  0.58727120  1  -0.006829  0.000368  -0.088451  -0.104059  -3.1e-05  3.994978  0.0
C  C89  1  0.63083997  0.19241583  0.75225144  1  1.514158  -0.010632  0.21402  0.571144  -0.014218  4.160823  -0.01
C  C90  1  0.83891250  0.98082215  0.73997329  1  1.495957  -0.014028  0.213331  0.563374  -0.018286  4.164996  -0.012
C  C91  1  0.83424323  0.86836161  0.75080481  1  -0.009508  0.007368  -0.021562  -0.03273  0.003806  3.997809  0.007
C  C92  1  0.85953053  0.81205915  0.66302985  1  -0.052015  -0.005382  -0.076767  -0.133692  -0.006118  3.914973  -0.003
C  C93  1  0.85583255  0.70492388  0.67264931  1  0.009909  -0.00135  -0.003991  0.076777  -0.00158  3.993129  0.0
C  C94  1  0.88148401  0.64550488  0.58377029  1  -0.019454  0.000207  -0.085843  -0.12347  -0.000127  3.960722  0.0
C  C95  1  0.87616221  0.54145726  0.59564826  1  -0.019072  -9.8e-05  -0.08935  -0.102787  -0.000403  3.992959  0.0
C  C96  1  0.84605576  0.49148938  0.69683954  1  -0.022286  0.007538  -0.019997  -0.029768  0.003838  3.998708  0.007
C  C97  1  0.82157081  0.54768867  0.78462202  1  -0.044783  -0.005051  -0.080599  -0.139909  -0.005764  3.935823  -0.003
C  C98  1  0.82535792  0.65474730  0.77511956  1  -0.013227  -0.001188  -0.007137  0.074774  -0.001389  4.01378  0.0
C  C99  1  0.79960374  0.71455361  0.86377423  1  -0.157214  0.000112  -0.093014  -0.138402  -0.000144  4.003673  0.0
C  C100  1  0.80380488  0.81869272  0.85208112  1  -0.023747  0.000227  -0.092171  -0.104099  -0.000127  3.999587  0.0
C  C101  1  0.84154135  0.37890879  0.70815080  1  1.517687  -0.014477  0.213865  0.568655  -0.018648  4.154531  -0.012
C  C102  1  0.85989917  0.09906699  0.01240475  1  0.482093  -0.002351  0.053466  0.103709  -0.003023  3.929269  -0.001
C  C103  1  0.87428644  0.09758208  0.10893520  1  -0.051294  0.002725  -0.079596  -0.173179  0.001233  3.927939  0.002
C  C104  1  0.83613516  0.18323008  0.17050895  1  -0.018744  -0.003124  0.013995  0.107366  -0.003571  3.973105  -0.002
C  C105  1  0.78466156  0.26700400  0.12864204  1  -0.007381  0.0024  -0.080979  -0.178101  0.000981  3.953659  0.002
C  C106  1  0.77442351  0.26264414  0.03079956  1  0.471769  -0.000851  0.056459  0.098579  -0.001485  3.942382  0.0
C  C107  1  0.84848546  0.18400590  0.27442199  1  -0.018827  -0.002747  0.012109  0.101114  -0.003241  3.977483  -0.002
C  C108  1  0.88137391  0.09409409  0.32312114  1  0.027098  0.002229  -0.079772  -0.163418  0.000848  3.927543  0.002
C  C109  1  0.89061120  0.09587075  0.42152838  1  0.452463  -0.000962  0.05596  0.104528  -0.001664  3.9113  0.0
C  C110  1  0.83792743  0.26896956  0.42831578  1  0.461317  -0.00173  0.054857  0.102707  -0.002369  3.930217  -0.001
C  C111  1  0.82710726  0.27335998  0.33000323  1  -0.007416  0.002911  -0.080938  -0.176055  0.001357  3.94791  0.002
N  N112  1  0.18885103  0.81990306  0.02693841  1  -1.238724  0.048588  -0.311745  -0.192919  0.027546  3.468343  0.038
N  N113  1  0.13064168  0.81814638  0.52615600  1  -1.223209  0.051207  -0.313359  -0.198629  0.028839  3.47845  0.041
N  N114  1  0.81114993  0.18009342  0.97307115  1  -1.238701  0.048593  -0.311732  -0.192952  0.027547  3.468505  0.038
N  N115  1  0.86935768  0.18185095  0.47383931  1  -1.223594  0.051187  -0.313302  -0.198569  0.028828  3.478114  0.041
O  O116  1  0.01990996  0.83050976  0.21597198  1  -1.157188  0.074191  -0.306771  -0.545833  0.037895  2.401962  0.07
O  O117  1  0.97317519  0.83548069  0.39103246  1  -1.134343  0.087177  -0.301308  -0.51353  0.045824  2.355327  0.075
O  O118  1  0.29835734  0.80962865  0.33911061  1  -1.133161  0.08656  -0.305616  -0.533403  0.044277  2.396013  0.081
O  O119  1  0.34615344  0.80554712  0.16393396  1  -1.115533  0.101009  -0.306788  -0.505147  0.052495  2.296688  0.087
O  O120  1  0.18227134  0.97077227  0.17692678  1  -1.135353  0.089891  -0.302635  -0.520717  0.046531  2.379553  0.081
O  O121  1  0.13595501  0.97524037  0.35158579  1  -1.133714  0.093482  -0.301677  -0.519642  0.048559  2.397919  0.083
O  O122  1  0.13450550  0.66994353  0.37507541  1  -1.125311  0.089983  -0.299275  -0.521148  0.046606  2.401187  0.081
O  O123  1  0.18527281  0.66469171  0.20015637  1  -1.132349  0.094318  -0.304614  -0.520343  0.048875  2.3711  0.084
O  O124  1  0.98010575  0.16948517  0.78402854  1  -1.157095  0.074171  -0.306727  -0.545861  0.037881  2.401706  0.07
O  O125  1  0.02683662  0.16452113  0.60896803  1  -1.134417  0.087147  -0.301261  -0.513455  0.045809  2.355338  0.075
O  O126  1  0.70162768  0.19038244  0.66089556  1  -1.132942  0.086572  -0.305691  -0.533424  0.044285  2.396145  0.081
O  O127  1  0.65382378  0.19445252  0.83607784  1  -1.115447  0.101  -0.306748  -0.505152  0.05249  2.296665  0.087
O  O128  1  0.81772513  0.02921280  0.82307706  1  -1.135281  0.089867  -0.302596  -0.520703  0.04652  2.379479  0.081
O  O129  1  0.86403654  0.02474550  0.64841590  1  -1.133621  0.093467  -0.301708  -0.519655  0.048552  2.3979  0.083
O  O130  1  0.86549387  0.33006981  0.62492522  1  -1.125062  0.089977  -0.299215  -0.521133  0.0466  2.401046  0.081
O  O131  1  0.81472699  0.33532544  0.79984528  1  -1.132081  0.094289  -0.304572  -0.520386  0.048861  2.371041  0.084
