# generated using pymatgen
data_KZnP2H9(C2O3)2
_symmetry_space_group_name_H-M   'P 1'
_cell_length_a   4.82665347
_cell_length_b   14.21359016
_cell_length_c   14.29750187
_cell_angle_alpha   91.24297632
_cell_angle_beta   89.99960586
_cell_angle_gamma   89.99979290
_symmetry_Int_Tables_number   1
_chemical_formula_structural   KZnP2H9(C2O3)2
_chemical_formula_sum   'K4 Zn4 P8 H36 C16 O24'
_cell_volume   980.63607510
_cell_formula_units_Z   4
loop_
 _symmetry_equiv_pos_site_id
 _symmetry_equiv_pos_as_xyz
  1  'x, y, z'
loop_
 _atom_site_type_symbol
 _atom_site_label
 _atom_site_symmetry_multiplicity
 _atom_site_fract_x
 _atom_site_fract_y
 _atom_site_fract_z
 _atom_site_occupancy
 _atom_site_hle17_bader_spin_density
 _atom_site_hle17_ddec_charge
 _atom_site_hle17_ddec_spin_density
 _atom_site_hle17_ddec_sum_bond_order
 _atom_site_hle17_magmom
 _atom_site_hse06_10hf_bader_spin_density
 _atom_site_hse06_10hf_ddec_charge
 _atom_site_hse06_10hf_ddec_spin_density
 _atom_site_hse06_10hf_ddec_sum_bond_order
 _atom_site_hse06_10hf_magmom
 _atom_site_hse06_bader_spin_density
 _atom_site_hse06_ddec_charge
 _atom_site_hse06_ddec_spin_density
 _atom_site_hse06_ddec_sum_bond_order
 _atom_site_hse06_magmom
 _atom_site_pbe_bader_spin_density
 _atom_site_pbe_cm5_charge
 _atom_site_pbe_ddec_charge
 _atom_site_pbe_ddec_spin_density
 _atom_site_pbe_ddec_sum_bond_order
 _atom_site_pbe_magmom
K  K0  1  0.78184253  0.82381985  0.11932119  1  0  0.95195  0  0.446719  0  0  0.911198  0  0.620486  0  0  0.92415  0  0.598822  0  0  0.825543  0.90125  0  0.636187  0
K  K1  1  0.28184411  0.67617962  0.38068884  1  0  0.951958  0  0.446719  0  0  0.911192  0  0.620503  0  0  0.924143  0  0.598839  0  0  0.825557  0.901236  0  0.636204  0
K  K2  1  0.21815985  0.17618136  0.88068178  1  0  0.951959  0  0.446712  0  0  0.911182  0  0.620501  0  0  0.924142  0  0.59883  0  0  0.825552  0.90122  0  0.636201  0
K  K3  1  0.71816241  0.32381738  0.61932034  1  0  0.951946  0  0.446719  0  0  0.911173  0  0.620531  0  0  0.924132  0  0.598854  0  0  0.825546  0.901215  0  0.636231  0
Zn  Zn4  1  0.79775104  0.50757420  0.38772358  1  0  1.200465  0  1.867567  0  0  1.045099  0  2.352271  0  0  1.08852  0  2.287627  0  0  0.708507  1.014252  0  2.397073  0
Zn  Zn5  1  0.29775682  0.99242453  0.11227660  1  0  1.200467  0  1.867499  0  0  1.045105  0  2.352218  0  0  1.088518  0  2.287566  0  0  0.708502  1.014251  0  2.39703  0
Zn  Zn6  1  0.20224098  0.49242279  0.61227510  1  0  1.200515  0  1.867403  0  0  1.045175  0  2.352117  0  0  1.088586  0  2.287467  0  0  0.708528  1.014317  0  2.396922  0
Zn  Zn7  1  0.70224142  0.00757598  0.88772496  1  0  1.200519  0  1.867401  0  0  1.04516  0  2.352129  0  0  1.088575  0  2.287474  0  0  0.708524  1.014298  0  2.396927  0
P  P8  1  0.81379483  0.59537844  0.18386164  1  0  1.506945  0  4.808098  0  0  1.357302  0  5.31327  0  0  1.40602  0  5.274699  0  0  0.314512  1.323294  0  5.339412  0
P  P9  1  0.31381187  0.90462098  0.31613992  1  0  1.507248  0  4.807728  0  0  1.35767  0  5.312871  0  0  1.406389  0  5.274295  0  0  0.314567  1.323675  0  5.338991  0
P  P10  1  0.18619719  0.40462136  0.81613990  1  0  1.507017  0  4.807934  0  0  1.357418  0  5.313109  0  0  1.406137  0  5.274536  0  0  0.314503  1.323419  0  5.339238  0
P  P11  1  0.68619672  0.09537883  0.68385953  1  0  1.506986  0  4.807974  0  0  1.35738  0  5.313146  0  0  1.406101  0  5.274578  0  0  0.314471  1.323374  0  5.339289  0
P  P12  1  0.80494555  0.11346792  0.07780163  1  0  1.484455  0  4.89457  0  0  1.339283  0  5.384598  0  0  1.387387  0  5.348708  0  0  0.297787  1.305652  0  5.408815  0
P  P13  1  0.30493990  0.38653335  0.42219462  1  0  1.48441  0  4.894676  0  0  1.339225  0  5.384707  0  0  1.387339  0  5.348811  0  0  0.297749  1.305588  0  5.40893  0
P  P14  1  0.19505268  0.88653611  0.92219231  1  0  1.484521  0  4.894634  0  0  1.33934  0  5.384666  0  0  1.387451  0  5.348769  0  0  0.297804  1.305701  0  5.408896  0
P  P15  1  0.69505212  0.61346505  0.57780619  1  0  1.484464  0  4.894564  0  0  1.339282  0  5.384599  0  0  1.387394  0  5.348707  0  0  0.297782  1.305646  0  5.408823  0
H  H16  1  0.37694571  0.64018393  0.14664664  1  0  0.451423  0  0.842247  0  0  0.419075  0  0.908147  0  0  0.430908  0  0.891123  0  0  0.31122  0.410761  0  0.920075  0
H  H17  1  0.87695968  0.85981682  0.35335759  1  0  0.451595  0  0.842028  0  0  0.419256  0  0.907914  0  0  0.431068  0  0.890914  0  0  0.311298  0.410939  0  0.919848  0
H  H18  1  0.62304631  0.35981658  0.85335631  1  0  0.451527  0  0.842104  0  0  0.419172  0  0.908015  0  0  0.431006  0  0.890989  0  0  0.311277  0.410856  0  0.919947  0
H  H19  1  0.12304891  0.14018299  0.64664465  1  0  0.4515  0  0.842141  0  0  0.419148  0  0.908045  0  0  0.430983  0  0.891018  0  0  0.311255  0.410833  0  0.919974  0
H  H20  1  0.95446139  0.49311715  0.05990884  1  0  0.118467  0  0.972261  0  0  0.136453  0  1.022657  0  0  0.138685  0  1.022483  0  0  0.103343  0.134792  0  1.022986  0
H  H21  1  0.45447391  0.00688605  0.44008990  1  0  0.118327  0  0.972278  0  0  0.136378  0  1.022661  0  0  0.138609  0  1.022485  0  0  0.103282  0.134715  0  1.022995  0
H  H22  1  0.04553063  0.50688618  0.94009207  1  0  0.118331  0  0.972285  0  0  0.136385  0  1.02266  0  0  0.138617  0  1.022483  0  0  0.103281  0.134724  0  1.022989  0
H  H23  1  0.54553261  0.99311657  0.55990681  1  0  0.118438  0  0.972284  0  0  0.136462  0  1.022672  0  0  0.138696  0  1.022498  0  0  0.103313  0.134799  0  1.023007  0
H  H24  1  0.12141119  0.46917412  0.16670019  1  0  0.125922  0  0.949935  0  0  0.141128  0  1.007185  0  0  0.143344  0  1.007096  0  0  0.108323  0.139512  0  1.007344  0
H  H25  1  0.62142492  0.03082598  0.33329856  1  0  0.126007  0  0.950051  0  0  0.141212  0  1.007339  0  0  0.143433  0  1.007246  0  0  0.108351  0.139596  0  1.007495  0
H  H26  1  0.87857669  0.53082709  0.83330138  1  0  0.125944  0  0.95004  0  0  0.141161  0  1.00732  0  0  0.143377  0  1.007233  0  0  0.108322  0.139542  0  1.007482  0
H  H27  1  0.37857953  0.96917383  0.66669879  1  0  0.125923  0  0.950012  0  0  0.141132  0  1.007305  0  0  0.14335  0  1.007219  0  0  0.10832  0.139516  0  1.00746  0
H  H28  1  0.70275377  0.38781621  0.22548088  1  0  0.062802  0  0.943696  0  0  0.083971  0  1.004735  0  0  0.084476  0  1.005239  0  0  0.090086  0.083422  0  1.004648  0
H  H29  1  0.20276234  0.11218378  0.27451837  1  0  0.062904  0  0.943693  0  0  0.084054  0  1.004685  0  0  0.084563  0  1.00519  0  0  0.090107  0.08351  0  1.004594  0
H  H30  1  0.29724654  0.61218219  0.77451853  1  0  0.062833  0  0.943739  0  0  0.083976  0  1.004758  0  0  0.084481  0  1.005264  0  0  0.090086  0.083431  0  1.004668  0
H  H31  1  0.79724211  0.88781743  0.72547970  1  0  0.062783  0  0.943679  0  0  0.083955  0  1.004715  0  0  0.08446  0  1.005219  0  0  0.090074  0.08341  0  1.004622  0
H  H32  1  0.51675002  0.41450758  0.12311239  1  0  0.060803  0  0.940705  0  0  0.082121  0  0.997743  0  0  0.082662  0  0.998342  0  0  0.091032  0.081671  0  0.997375  0
H  H33  1  0.01676093  0.08549124  0.37688797  1  0  0.060774  0  0.940689  0  0  0.082082  0  0.99769  0  0  0.082625  0  0.998293  0  0  0.090996  0.081636  0  0.997321  0
H  H34  1  0.48324200  0.58548941  0.87688839  1  0  0.060778  0  0.940706  0  0  0.082091  0  0.997704  0  0  0.082633  0  0.998303  0  0  0.091014  0.081645  0  0.997335  0
H  H35  1  0.98324559  0.91450997  0.62311011  1  0  0.060805  0  0.94071  0  0  0.082172  0  0.997689  0  0  0.082715  0  0.998284  0  0  0.091072  0.081724  0  0.997323  0
H  H36  1  0.81161216  0.31503951  0.02554112  1  0  0.070989  0  0.930768  0  0  0.091223  0  0.987576  0  0  0.092291  0  0.98786  0  0  0.099671  0.090338  0  0.987558  0
H  H37  1  0.31161173  0.18496105  0.47445859  1  0  0.071012  0  0.930768  0  0  0.091241  0  0.987585  0  0  0.092308  0  0.987871  0  0  0.09968  0.090358  0  0.987566  0
H  H38  1  0.18838607  0.68496170  0.97445905  1  0  0.070981  0  0.930776  0  0  0.091189  0  0.987623  0  0  0.092258  0  0.987907  0  0  0.099674  0.090306  0  0.987607  0
H  H39  1  0.68839272  0.81503946  0.52553947  1  0  0.071029  0  0.930775  0  0  0.09127  0  0.987572  0  0  0.092337  0  0.987858  0  0  0.099688  0.090383  0  0.987562  0
H  H40  1  0.06011547  0.30366259  0.11511080  1  0  0.057752  0  0.944037  0  0  0.076955  0  1.006161  0  0  0.077511  0  1.006585  0  0  0.091064  0.076518  0  1.005885  0
H  H41  1  0.56012017  0.19633759  0.38488949  1  0  0.057749  0  0.944051  0  0  0.076987  0  1.006131  0  0  0.077544  0  1.006555  0  0  0.0911  0.076555  0  1.005857  0
H  H42  1  0.93988277  0.69633863  0.88488937  1  0  0.057702  0  0.944073  0  0  0.076944  0  1.006161  0  0  0.077501  0  1.006586  0  0  0.091071  0.07651  0  1.005889  0
H  H43  1  0.43988635  0.80366362  0.61510929  1  0  0.057802  0  0.944044  0  0  0.077014  0  1.00615  0  0  0.077571  0  1.006576  0  0  0.091086  0.076579  0  1.005874  0
H  H44  1  0.72968448  0.21224165  0.21142602  1  0  0.120549  0  0.936199  0  0  0.13934  0  0.988697  0  0  0.140249  0  0.990611  0  0  0.103962  0.138605  0  0.987524  0
H  H45  1  0.22968468  0.28775620  0.28857383  1  0  0.12055  0  0.936242  0  0  0.139335  0  0.988738  0  0  0.140244  0  0.990651  0  0  0.103962  0.138598  0  0.987563  0
H  H46  1  0.27032204  0.78775746  0.78857411  1  0  0.120536  0  0.936238  0  0  0.139335  0  0.988713  0  0  0.140243  0  0.990626  0  0  0.10394  0.138598  0  0.987537  0
H  H47  1  0.77031562  0.71224360  0.71142492  1  0  0.120491  0  0.936212  0  0  0.139298  0  0.9887  0  0  0.140208  0  0.990612  0  0  0.10395  0.138563  0  0.987521  0
H  H48  1  0.46586481  0.22422831  0.12621854  1  0  0.132678  0  0.958456  0  0  0.146456  0  1.016902  0  0  0.148948  0  1.016426  0  0  0.106193  0.144631  0  1.017326  0
H  H49  1  0.96586683  0.27577065  0.37378218  1  0  0.132674  0  0.958426  0  0  0.146425  0  1.016903  0  0  0.148915  0  1.016427  0  0  0.106188  0.144604  0  1.017322  0
H  H50  1  0.53413757  0.77577080  0.87378159  1  0  0.132702  0  0.958413  0  0  0.146451  0  1.016893  0  0  0.148941  0  1.016417  0  0  0.106209  0.14463  0  1.017312  0
H  H51  1  0.03413555  0.72422775  0.62621723  1  0  0.132683  0  0.958381  0  0  0.146442  0  1.016846  0  0  0.148933  0  1.01637  0  0  0.106201  0.144618  0  1.017268  0
C  C52  1  0.91800478  0.48271071  0.13483242  1  0  -0.450562  0  3.703914  0  0  -0.46984  0  3.957079  0  0  -0.479672  0  3.966047  0  0  -0.167565  -0.462992  0  3.950994  0
C  C53  1  0.41802080  0.01729041  0.36516636  1  0  -0.450466  0  3.703815  0  0  -0.469923  0  3.957099  0  0  -0.479758  0  3.966077  0  0  -0.167585  -0.463068  0  3.951005  0
C  C54  1  0.08198517  0.51729120  0.86516707  1  0  -0.450474  0  3.703908  0  0  -0.469928  0  3.957183  0  0  -0.479761  0  3.966155  0  0  -0.167593  -0.463079  0  3.9511  0
C  C55  1  0.58198780  0.98271009  0.63483240  1  0  -0.450527  0  3.703868  0  0  -0.469918  0  3.957161  0  0  -0.479769  0  3.966155  0  0  -0.167574  -0.46307  0  3.951081  0
C  C56  1  0.72522968  0.39923481  0.14990348  1  0  -0.046382  0  3.678714  0  0  -0.089184  0  3.939398  0  0  -0.088991  0  3.954532  0  0  -0.160012  -0.089089  0  3.928852  0
C  C57  1  0.22523890  0.10076586  0.35009574  1  0  -0.046565  0  3.678761  0  0  -0.089209  0  3.939306  0  0  -0.089038  0  3.95447  0  0  -0.159932  -0.089121  0  3.928768  0
C  C58  1  0.27476234  0.60076570  0.85009668  1  0  -0.046421  0  3.678892  0  0  -0.089078  0  3.939442  0  0  -0.08889  0  3.954585  0  0  -0.159932  -0.088991  0  3.928904  0
C  C59  1  0.77476555  0.89923465  0.64990162  1  0  -0.046368  0  3.678731  0  0  -0.089164  0  3.93944  0  0  -0.088969  0  3.95458  0  0  -0.160023  -0.089073  0  3.928898  0
C  C60  1  0.83604034  0.30945865  0.10182416  1  0  -0.055165  0  3.675283  0  0  -0.095795  0  3.935719  0  0  -0.095671  0  3.950127  0  0  -0.156391  -0.095736  0  3.925707  0
C  C61  1  0.33604556  0.19054047  0.39817547  1  0  -0.055186  0  3.675475  0  0  -0.095882  0  3.935897  0  0  -0.095754  0  3.950313  0  0  -0.156461  -0.095824  0  3.92589  0
C  C62  1  0.16395996  0.69054116  0.89817528  1  0  -0.055069  0  3.67538  0  0  -0.095753  0  3.935807  0  0  -0.095629  0  3.950217  0  0  -0.156402  -0.095697  0  3.925808  0
C  C63  1  0.66396097  0.80945933  0.60182328  1  0  -0.055275  0  3.675505  0  0  -0.095943  0  3.935966  0  0  -0.095819  0  3.950374  0  0  -0.156426  -0.095884  0  3.92596  0
C  C64  1  0.69150140  0.22081049  0.13614600  1  0  -0.434711  0  3.667153  0  0  -0.452006  0  3.914485  0  0  -0.461885  0  3.924871  0  0  -0.167106  -0.445054  0  3.907315  0
C  C65  1  0.19150015  0.27918882  0.36385327  1  0  -0.434666  0  3.667131  0  0  -0.451928  0  3.914462  0  0  -0.461801  0  3.924844  0  0  -0.167083  -0.444976  0  3.90729  0
C  C66  1  0.30850305  0.77919002  0.86385416  1  0  -0.434705  0  3.667033  0  0  -0.451979  0  3.914401  0  0  -0.461851  0  3.924783  0  0  -0.167088  -0.445029  0  3.907232  0
C  C67  1  0.80850016  0.72081099  0.63614478  1  0  -0.434633  0  3.66702  0  0  -0.451909  0  3.91436  0  0  -0.461785  0  3.924744  0  0  -0.167096  -0.444955  0  3.907187  0
O  O68  1  0.06245821  0.66114725  0.17987497  1  0  -0.909287  0  1.889456  0  0  -0.840851  0  2.136902  0  0  -0.865608  0  2.116495  0  0  -0.439853  -0.823205  0  2.150519  0
O  O69  1  0.56247723  0.83885250  0.32012997  1  0  -0.909402  0  1.889444  0  0  -0.840977  0  2.136882  0  0  -0.865726  0  2.116471  0  0  -0.439811  -0.823336  0  2.1505  0
O  O70  1  0.93753588  0.33885186  0.82012725  1  0  -0.909342  0  1.889456  0  0  -0.840895  0  2.136888  0  0  -0.865656  0  2.116481  0  0  -0.439862  -0.823252  0  2.150501  0
O  O71  1  0.43753965  0.16114802  0.67987439  1  0  -0.909322  0  1.889487  0  0  -0.840871  0  2.136913  0  0  -0.86563  0  2.116506  0  0  -0.439866  -0.823228  0  2.150534  0
O  O72  1  0.57303011  0.63683747  0.11944745  1  0  -0.789011  0  1.958665  0  0  -0.717753  0  2.174688  0  0  -0.739396  0  2.149215  0  0  -0.435207  -0.702464  0  2.192069  0
O  O73  1  0.07304213  0.86316296  0.38055609  1  0  -0.789253  0  1.958475  0  0  -0.71802  0  2.174502  0  0  -0.739643  0  2.149058  0  0  -0.435301  -0.702728  0  2.19188  0
O  O74  1  0.42696398  0.36316515  0.88055555  1  0  -0.789131  0  1.958573  0  0  -0.717869  0  2.174601  0  0  -0.739515  0  2.149122  0  0  -0.435256  -0.702583  0  2.191983  0
O  O75  1  0.92696854  0.13683544  0.61944473  1  0  -0.789116  0  1.958566  0  0  -0.717867  0  2.174616  0  0  -0.739505  0  2.149126  0  0  -0.43524  -0.702579  0  2.191997  0
O  O76  1  0.68636607  0.58216495  0.28085306  1  0  -0.914123  0  2.073456  0  0  -0.823552  0  2.377937  0  0  -0.850986  0  2.351504  0  0  -0.443173  -0.804118  0  2.395744  0
O  O77  1  0.18638910  0.91783041  0.21914871  1  0  -0.914222  0  2.073298  0  0  -0.823684  0  2.377841  0  0  -0.851104  0  2.351371  0  0  -0.443229  -0.804253  0  2.395643  0
O  O78  1  0.31362802  0.41783556  0.71914780  1  0  -0.914138  0  2.073422  0  0  -0.823598  0  2.377967  0  0  -0.851022  0  2.351505  0  0  -0.443139  -0.804165  0  2.395771  0
O  O79  1  0.81362778  0.08216306  0.78085131  1  0  -0.9141  0  2.073379  0  0  -0.823552  0  2.377906  0  0  -0.850983  0  2.35146  0  0  -0.443094  -0.804115  0  2.395704  0
O  O80  1  0.12536493  0.11129049  0.08275301  1  0  -0.898132  0  2.042683  0  0  -0.807644  0  2.341974  0  0  -0.835729  0  2.316865  0  0  -0.400274  -0.787604  0  2.35849  0
O  O81  1  0.62535449  0.38870891  0.41724781  1  0  -0.898171  0  2.042892  0  0  -0.807645  0  2.342175  0  0  -0.83575  0  2.317075  0  0  -0.400265  -0.787616  0  2.35871  0
O  O82  1  0.87464160  0.88870861  0.91724502  1  0  -0.898229  0  2.042811  0  0  -0.807736  0  2.342108  0  0  -0.835834  0  2.317005  0  0  -0.400293  -0.787695  0  2.358627  0
O  O83  1  0.37463753  0.61129020  0.58275512  1  0  -0.89815  0  2.042783  0  0  -0.80767  0  2.342076  0  0  -0.835766  0  2.316973  0  0  -0.400273  -0.787624  0  2.358588  0
O  O84  1  0.70836426  0.11822088  0.97478709  1  0  -0.941788  0  2.052484  0  0  -0.854252  0  2.349505  0  0  -0.881472  0  2.324448  0  0  -0.462684  -0.8349  0  2.366263  0
O  O85  1  0.20834192  0.38178140  0.52521164  1  0  -0.941772  0  2.05232  0  0  -0.854256  0  2.349401  0  0  -0.881468  0  2.324316  0  0  -0.462715  -0.834899  0  2.366157  0
O  O86  1  0.29164019  0.88178245  0.02521383  1  0  -0.941823  0  2.052374  0  0  -0.854294  0  2.349416  0  0  -0.881517  0  2.324361  0  0  -0.462697  -0.834941  0  2.366181  0
O  O87  1  0.79163974  0.61821700  0.47478638  1  0  -0.941812  0  2.052462  0  0  -0.854283  0  2.349513  0  0  -0.881496  0  2.324441  0  0  -0.462721  -0.834933  0  2.366277  0
O  O88  1  0.68873454  0.02692805  0.12846533  1  0  -0.906038  0  2.019002  0  0  -0.818698  0  2.318964  0  0  -0.845715  0  2.292851  0  0  -0.418998  -0.799499  0  2.336498  0
O  O89  1  0.18873315  0.47307126  0.37153185  1  0  -0.905989  0  2.019111  0  0  -0.81868  0  2.319104  0  0  -0.845698  0  2.292992  0  0  -0.418942  -0.799473  0  2.336632  0
O  O90  1  0.31126162  0.97307246  0.87153413  1  0  -0.906025  0  2.019205  0  0  -0.818684  0  2.319168  0  0  -0.845697  0  2.293049  0  0  -0.418983  -0.799475  0  2.336693  0
O  O91  1  0.81126094  0.52692784  0.62846689  1  0  -0.906041  0  2.019089  0  0  -0.818701  0  2.319048  0  0  -0.845719  0  2.292933  0  0  -0.418975  -0.799493  0  2.336573  0
