# generated using pymatgen
data_ZnH22C16(NO)4
_symmetry_space_group_name_H-M   'P 1'
_cell_length_a   9.10782981
_cell_length_b   11.18405869
_cell_length_c   12.91843171
_cell_angle_alpha   67.25463419
_cell_angle_beta   78.79496002
_cell_angle_gamma   82.73422502
_symmetry_Int_Tables_number   1
_chemical_formula_structural   ZnH22C16(NO)4
_chemical_formula_sum   'Zn2 H44 C32 N8 O8'
_cell_volume   1188.51733504
_cell_formula_units_Z   2
loop_
 _symmetry_equiv_pos_site_id
 _symmetry_equiv_pos_as_xyz
  1  'x, y, z'
loop_
 _atom_site_type_symbol
 _atom_site_label
 _atom_site_symmetry_multiplicity
 _atom_site_fract_x
 _atom_site_fract_y
 _atom_site_fract_z
 _atom_site_occupancy
 _atom_site_hle17_bader_spin_density
 _atom_site_hle17_ddec_charge
 _atom_site_hle17_ddec_spin_density
 _atom_site_hle17_ddec_sum_bond_order
 _atom_site_hle17_magmom
 _atom_site_hse06_10hf_bader_spin_density
 _atom_site_hse06_10hf_ddec_charge
 _atom_site_hse06_10hf_ddec_spin_density
 _atom_site_hse06_10hf_ddec_sum_bond_order
 _atom_site_hse06_10hf_magmom
 _atom_site_hse06_bader_spin_density
 _atom_site_hse06_ddec_charge
 _atom_site_hse06_ddec_spin_density
 _atom_site_hse06_ddec_sum_bond_order
 _atom_site_hse06_magmom
 _atom_site_pbe_bader_spin_density
 _atom_site_pbe_cm5_charge
 _atom_site_pbe_ddec_charge
 _atom_site_pbe_ddec_spin_density
 _atom_site_pbe_ddec_sum_bond_order
 _atom_site_pbe_magmom
Zn  Zn0  1  0.00524864  0.21242334  0.79512978  1  0  0.991159  0  1.913647  0  0  0.799316  0  2.401045  0  0  0.846166  0  2.345027  0  0  0.686152  0.766561  0  2.439592  0
Zn  Zn1  1  0.99475334  0.78757872  0.20486838  1  0  0.991281  0  1.91361  0  0  0.799428  0  2.400994  0  0  0.846276  0  2.34498  0  0  0.686193  0.766676  0  2.439545  0
H  H2  1  0.84339493  0.31489317  0.56962238  1  0  0.094704  0  0.928994  0  0  0.105713  0  0.990534  0  0  0.108284  0  0.987138  0  0  0.139991  0.103793  0  0.993  0
H  H3  1  0.15660601  0.68510787  0.43037394  1  0  0.094696  0  0.928983  0  0  0.105678  0  0.99055  0  0  0.108248  0  0.987155  0  0  0.139976  0.103754  0  0.993017  0
H  H4  1  0.28653111  0.33718380  0.60860090  1  0  0.115296  0  0.946269  0  0  0.12729  0  0.998514  0  0  0.129764  0  0.99784  0  0  0.122109  0.125459  0  0.999143  0
H  H5  1  0.71346983  0.66281725  0.39139620  1  0  0.1153  0  0.946291  0  0  0.127255  0  0.998578  0  0  0.129728  0  0.997906  0  0  0.12212  0.125424  0  0.99921  0
H  H6  1  0.26657348  0.43312081  0.37543446  1  0  0.137594  0  0.958887  0  0  0.147703  0  1.016031  0  0  0.151373  0  1.013251  0  0  0.126962  0.144986  0  1.018194  0
H  H7  1  0.73342711  0.56688414  0.62456212  1  0  0.137682  0  0.958852  0  0  0.147694  0  1.016098  0  0  0.151361  0  1.013321  0  0  0.126962  0.144978  0  1.018265  0
H  H8  1  0.98311459  0.51576113  0.28897774  1  0  0.084562  0  0.95559  0  0  0.093703  0  1.030571  0  0  0.094974  0  1.029161  0  0  0.110232  0.09262  0  1.03176  0
H  H9  1  0.01688179  0.48424082  0.71101967  1  0  0.084587  0  0.955559  0  0  0.093768  0  1.030506  0  0  0.095038  0  1.029097  0  0  0.110264  0.092685  0  1.031692  0
H  H10  1  0.85774406  0.39151259  0.36325530  1  0  0.079803  0  0.898144  0  0  0.100831  0  0.947998  0  0  0.101344  0  0.948121  0  0  0.117311  0.100344  0  0.948044  0
H  H11  1  0.14225576  0.60848847  0.63674427  1  0  0.079794  0  0.898146  0  0  0.100823  0  0.94801  0  0  0.101337  0  0.948133  0  0  0.11729  0.100336  0  0.948052  0
H  H12  1  0.06201787  0.22896075  0.32402324  1  0  0.06569  0  0.935427  0  0  0.081718  0  0.995587  0  0  0.082835  0  0.995845  0  0  0.089719  0.080898  0  0.995426  0
H  H13  1  0.93797860  0.77104026  0.67597681  1  0  0.065763  0  0.935422  0  0  0.081768  0  0.995609  0  0  0.082886  0  0.995865  0  0  0.089757  0.080952  0  0.995449  0
H  H14  1  0.17887135  0.35974395  0.24481367  1  0  0.066325  0  0.943049  0  0  0.084729  0  1.006841  0  0  0.084903  0  1.007763  0  0  0.093064  0.084469  0  1.006354  0
H  H15  1  0.82112864  0.64025516  0.75518578  1  0  0.06632  0  0.943112  0  0  0.084735  0  1.006884  0  0  0.084904  0  1.007812  0  0  0.093069  0.084474  0  1.006403  0
H  H16  1  0.88122491  0.31909926  0.18790183  1  0  0.073219  0  0.919043  0  0  0.094011  0  0.972644  0  0  0.094747  0  0.972952  0  0  0.096417  0.0934  0  0.972534  0
H  H17  1  0.11877370  0.68090275  0.81209681  1  0  0.073243  0  0.919029  0  0  0.094027  0  0.972638  0  0  0.094762  0  0.972947  0  0  0.096418  0.093418  0  0.97252  0
H  H18  1  0.97715969  0.46322920  0.11774607  1  0  0.08738  0  0.927413  0  0  0.110401  0  0.981028  0  0  0.110444  0  0.982734  0  0  0.102537  0.110283  0  0.97991  0
H  H19  1  0.02283901  0.53677183  0.88225212  1  0  0.087345  0  0.927459  0  0  0.110388  0  0.981042  0  0  0.110431  0  0.982747  0  0  0.102538  0.110271  0  0.979921  0
H  H20  1  0.03813928  0.31812511  0.00796279  1  0  0.097437  0  0.957844  0  0  0.10708  0  1.028806  0  0  0.108778  0  1.027974  0  0  0.114241  0.10571  0  1.029573  0
H  H21  1  0.96185727  0.68187493  0.99203758  1  0  0.097467  0  0.957817  0  0  0.107126  0  1.028761  0  0  0.108823  0  1.02793  0  0  0.114269  0.105759  0  1.029529  0
H  H22  1  0.20085718  0.34385637  0.05141403  1  0  0.078043  0  0.92029  0  0  0.094984  0  0.98325  0  0  0.094981  0  0.983978  0  0  0.112146  0.094796  0  0.983009  0
H  H23  1  0.79914032  0.65614561  0.94858399  1  0  0.078082  0  0.920264  0  0  0.095023  0  0.983222  0  0  0.095019  0  0.983949  0  0  0.112187  0.09484  0  0.982982  0
H  H24  1  0.94435734  0.09339126  0.08330352  1  0  0.119946  0  0.929929  0  0  0.127444  0  0.993415  0  0  0.131172  0  0.988713  0  0  0.14423  0.124597  0  0.996974  0
H  H25  1  0.05564248  0.90660981  0.91669605  1  0  0.11992  0  0.929826  0  0  0.127412  0  0.993336  0  0  0.131141  0  0.988635  0  0  0.144211  0.124563  0  0.996896  0
H  H26  1  0.27485408  0.88230633  0.28419000  1  0  0.100811  0  0.945646  0  0  0.115615  0  0.997283  0  0  0.117656  0  0.996612  0  0  0.121343  0.114073  0  0.997936  0
H  H27  1  0.72514359  0.11769373  0.71581098  1  0  0.100803  0  0.945632  0  0  0.115604  0  0.997277  0  0  0.117646  0  0.996603  0  0  0.12133  0.114064  0  0.997931  0
H  H28  1  0.31108295  0.14644458  0.21546598  1  0  0.111896  0  0.942752  0  0  0.125195  0  0.996536  0  0  0.127931  0  0.9952  0  0  0.127238  0.123103  0  0.997805  0
H  H29  1  0.68891334  0.85355841  0.78453651  1  0  0.111904  0  0.942771  0  0  0.125232  0  0.996524  0  0  0.127973  0  0.99518  0  0  0.127256  0.123137  0  0.997806  0
H  H30  1  0.63194987  0.29251771  0.04577090  1  0  0.093364  0  0.919683  0  0  0.111492  0  0.975725  0  0  0.113728  0  0.974706  0  0  0.097786  0.109968  0  0.976517  0
H  H31  1  0.36804840  0.70747554  0.95423080  1  0  0.093362  0  0.919694  0  0  0.11148  0  0.975757  0  0  0.113726  0  0.974723  0  0  0.097778  0.109953  0  0.976564  0
H  H32  1  0.74935689  0.41760632  0.01602754  1  0  0.088178  0  0.939908  0  0  0.106385  0  0.999643  0  0  0.108246  0  0.999508  0  0  0.09499  0.105074  0  0.999831  0
H  H33  1  0.25064283  0.58238310  0.98397758  1  0  0.088138  0  0.939962  0  0  0.106387  0  0.999673  0  0  0.108251  0  0.999536  0  0  0.094959  0.10508  0  0.999863  0
H  H34  1  0.46138219  0.44723643  0.91450684  1  0  0.07165  0  0.935293  0  0  0.088965  0  0.997998  0  0  0.090677  0  0.997069  0  0  0.088597  0.087636  0  0.998772  0
H  H35  1  0.53861900  0.55276176  0.08549508  1  0  0.071685  0  0.935267  0  0  0.089007  0  0.997938  0  0  0.090721  0  0.99701  0  0  0.088604  0.08767  0  0.99873  0
H  H36  1  0.58094071  0.57296199  0.87898076  1  0  0.047785  0  0.94002  0  0  0.066062  0  1.004154  0  0  0.067304  0  1.003463  0  0  0.079553  0.065063  0  1.004785  0
H  H37  1  0.41906521  0.42703338  0.12102225  1  0  0.047787  0  0.940004  0  0  0.066041  0  1.004156  0  0  0.06729  0  1.003456  0  0  0.07952  0.065043  0  1.004784  0
H  H38  1  0.51056121  0.21093834  0.84649977  1  0  0.098948  0  0.933032  0  0  0.11683  0  0.98962  0  0  0.118586  0  0.98954  0  0  0.095168  0.115616  0  0.989666  0
H  H39  1  0.48944119  0.78905892  0.15350385  1  0  0.099009  0  0.93302  0  0  0.11686  0  0.98965  0  0  0.118642  0  0.98955  0  0  0.095177  0.115647  0  0.989699  0
H  H40  1  0.40742727  0.21244243  0.97442286  1  0  0.082965  0  0.943646  0  0  0.099023  0  1.008639  0  0  0.100135  0  1.009287  0  0  0.091148  0.098211  0  1.008286  0
H  H41  1  0.59257143  0.78755865  0.02557918  1  0  0.082926  0  0.943736  0  0  0.099007  0  1.008711  0  0  0.100121  0  1.009361  0  0  0.09115  0.098197  0  1.00836  0
H  H42  1  0.45623577  0.97908113  0.89934154  1  0  0.04677  0  0.942619  0  0  0.065486  0  1.005007  0  0  0.066233  0  1.004992  0  0  0.077462  0.064831  0  1.005188  0
H  H43  1  0.54375983  0.02091699  0.10066272  1  0  0.046881  0  0.942731  0  0  0.065612  0  1.005077  0  0  0.066343  0  1.005071  0  0  0.077512  0.064958  0  1.005252  0
H  H44  1  0.33100709  0.98074380  0.02028013  1  0  0.064441  0  0.954319  0  0  0.080492  0  1.018793  0  0  0.08094  0  1.020384  0  0  0.082248  0.080064  0  1.0178  0
H  H45  1  0.66898920  0.01925919  0.97972236  1  0  0.064442  0  0.954306  0  0  0.080505  0  1.018761  0  0  0.080948  0  1.020349  0  0  0.082246  0.080079  0  1.017772  0
C  C46  1  0.96241595  0.32971584  0.55038507  1  0  0.160614  0  3.674842  0  0  0.093659  0  3.947857  0  0  0.107847  0  3.960402  0  0  0.143966  0.084527  0  3.939036  0
C  C47  1  0.03758826  0.67028625  0.44961201  1  0  0.160717  0  3.674928  0  0  0.093778  0  3.947927  0  0  0.107968  0  3.960474  0  0  0.143996  0.084655  0  3.939094  0
C  C48  1  0.19342680  0.34364790  0.56523497  1  0  -0.004639  0  3.752192  0  0  -0.039159  0  4.016235  0  0  -0.037984  0  4.03734  0  0  -0.003824  -0.039992  0  4.002054  0
C  C49  1  0.80657405  0.65635412  0.43476104  1  0  -0.004454  0  3.752049  0  0  -0.03893  0  4.016053  0  0  -0.037752  0  4.037154  0  0  -0.003766  -0.039763  0  4.001879  0
C  C50  1  0.18575624  0.38932262  0.45113231  1  0  -0.071655  0  3.662064  0  0  -0.112726  0  3.919207  0  0  -0.11228  0  3.938984  0  0  -0.000181  -0.112982  0  3.906069  0
C  C51  1  0.81424556  0.61068139  0.54886598  1  0  -0.071839  0  3.662078  0  0  -0.112846  0  3.919261  0  0  -0.112398  0  3.939034  0  0  -0.000251  -0.113108  0  3.906133  0
C  C52  1  0.97718625  0.41139882  0.33884829  1  0  0.004458  0  3.617903  0  0  -0.057438  0  3.874931  0  0  -0.053325  0  3.886849  0  0  -0.050256  -0.059974  0  3.866723  0
C  C53  1  0.02281228  0.58860415  0.66115003  1  0  0.004471  0  3.617862  0  0  -0.057483  0  3.874937  0  0  -0.05337  0  3.88685  0  0  -0.050293  -0.060015  0  3.866722  0
C  C54  1  0.06120164  0.33295592  0.26993777  1  0  -0.12601  0  3.704128  0  0  -0.1688  0  3.970359  0  0  -0.170114  0  3.984404  0  0  -0.164863  -0.167693  0  3.960484  0
C  C55  1  0.93879474  0.66704602  0.73005964  1  0  -0.126108  0  3.704211  0  0  -0.168903  0  3.970481  0  0  -0.170208  0  3.984517  0  0  -0.164938  -0.167803  0  3.96062  0
C  C56  1  0.99341731  0.35790676  0.16386059  1  0  -0.123164  0  3.677694  0  0  -0.16465  0  3.940868  0  0  -0.166174  0  3.955238  0  0  -0.159515  -0.163426  0  3.930804  0
C  C57  1  0.00658139  0.64209426  0.83613760  1  0  -0.123164  0  3.677662  0  0  -0.164636  0  3.940804  0  0  -0.166162  0  3.95517  0  0  -0.159504  -0.163403  0  3.930731  0
C  C58  1  0.09128691  0.30056236  0.08221870  1  0  -0.013507  0  3.619078  0  0  -0.080688  0  3.887364  0  0  -0.076875  0  3.898941  0  0  -0.053638  -0.083053  0  3.879501  0
C  C59  1  0.90870956  0.69943864  0.91778058  1  0  -0.013525  0  3.61902  0  0  -0.080739  0  3.887344  0  0  -0.076924  0  3.898918  0  0  -0.053669  -0.083112  0  3.879491  0
C  C60  1  0.03703756  0.06941880  0.13088947  1  0  0.185969  0  3.602113  0  0  0.124278  0  3.860407  0  0  0.138691  0  3.871468  0  0  0.155093  0.11502  0  3.852759  0
C  C61  1  0.96296106  0.93058321  0.86910917  1  0  0.185948  0  3.601973  0  0  0.124271  0  3.860272  0  0  0.138683  0  3.871337  0  0  0.155069  0.115028  0  3.852613  0
C  C62  1  0.20914412  0.96499285  0.23456884  1  0  -0.004128  0  3.779133  0  0  -0.041301  0  4.049227  0  0  -0.039559  0  4.070119  0  0  -0.002144  -0.042405  0  4.035036  0
C  C63  1  0.79085337  0.03500915  0.76543072  1  0  -0.004149  0  3.779187  0  0  -0.041312  0  4.049294  0  0  -0.039569  0  4.070187  0  0  -0.002135  -0.042407  0  4.0351  0
C  C64  1  0.22917691  0.09508345  0.20060279  1  0  -0.06832  0  3.70238  0  0  -0.108484  0  3.963457  0  0  -0.107596  0  3.983523  0  0  0.004094  -0.109027  0  3.950117  0
C  C65  1  0.77082059  0.90491853  0.79939524  1  0  -0.068268  0  3.702463  0  0  -0.108452  0  3.963514  0  0  -0.107568  0  3.983578  0  0  0.004152  -0.108995  0  3.950186  0
C  C66  1  0.76294334  0.34869743  0.88133031  1  0  0.686392  0  3.865292  0  0  0.643442  0  4.16357  0  0  0.675887  0  4.157943  0  0  0.199481  0.621347  0  4.166647  0
C  C67  1  0.23706274  0.65129601  0.11867489  1  0  0.686174  0  3.865466  0  0  0.643284  0  4.163647  0  0  0.675728  0  4.158029  0  0  0.199432  0.621211  0  4.1667  0
C  C68  1  0.67142431  0.38432929  0.97862907  1  0  -0.255898  0  3.698071  0  0  -0.294398  0  3.951773  0  0  -0.300486  0  3.962023  0  0  -0.166298  -0.290212  0  3.944628  0
C  C69  1  0.32857619  0.61566403  0.02137461  1  0  -0.255763  0  3.698126  0  0  -0.294319  0  3.951785  0  0  -0.300416  0  3.962042  0  0  -0.16629  -0.290157  0  3.944674  0
C  C70  1  0.54021815  0.48351819  0.94891882  1  0  -0.092132  0  3.722275  0  0  -0.134504  0  3.98859  0  0  -0.135129  0  4.003114  0  0  -0.171026  -0.133829  0  3.978476  0
C  C71  1  0.45978561  0.51647616  0.05108483  1  0  -0.092235  0  3.722201  0  0  -0.13455  0  3.988491  0  0  -0.135174  0  4.003006  0  0  -0.170949  -0.133869  0  3.978382  0
C  C72  1  0.27335612  0.21856268  0.85537374  1  0  0.678556  0  3.875309  0  0  0.636452  0  4.172161  0  0  0.669318  0  4.165457  0  0  0.189933  0.614143  0  4.175936  0
C  C73  1  0.72664619  0.78143550  0.14462570  1  0  0.678458  0  3.875486  0  0  0.636344  0  4.172379  0  0  0.669211  0  4.165682  0  0  0.189886  0.614032  0  4.176157  0
C  C74  1  0.41333018  0.16826981  0.91069041  1  0  -0.257707  0  3.690258  0  0  -0.29431  0  3.938914  0  0  -0.300457  0  3.949557  0  0  -0.170283  -0.290033  0  3.931431  0
C  C75  1  0.58666998  0.83172740  0.08931275  1  0  -0.257675  0  3.690308  0  0  -0.294271  0  3.938951  0  0  -0.300452  0  3.949594  0  0  -0.17025  -0.289995  0  3.931466  0
C  C76  1  0.43554749  0.02101418  0.96569180  1  0  -0.091771  0  3.728475  0  0  -0.132775  0  3.991823  0  0  -0.133213  0  4.006915  0  0  -0.177397  -0.132244  0  3.981351  0
C  C77  1  0.56445026  0.97898495  0.03431259  1  0  -0.092005  0  3.728583  0  0  -0.133003  0  3.991921  0  0  -0.133408  0  4.007011  0  0  -0.177467  -0.13247  0  3.981445  0
N  N78  1  0.05307713  0.30694305  0.62622347  1  0  -0.385595  0  3.350975  0  0  -0.306126  0  3.65899  0  0  -0.325589  0  3.670127  0  0  -0.362581  -0.292878  0  3.651111  0
N  N79  1  0.94692605  0.69305803  0.37377254  1  0  -0.385756  0  3.351074  0  0  -0.306269  0  3.659061  0  0  -0.325736  0  3.6702  0  0  -0.362611  -0.293025  0  3.651187  0
N  N80  1  0.03840886  0.37965841  0.44350692  1  0  -0.053649  0  3.572946  0  0  0.041768  0  3.790399  0  0  0.026967  0  3.818365  0  0  -0.240141  0.051501  0  3.771372  0
N  N81  1  0.96159294  0.62034558  0.55648982  1  0  -0.053701  0  3.573003  0  0  0.04175  0  3.790422  0  0  0.026946  0  3.818391  0  0  -0.240098  0.051477  0  3.771398  0
N  N82  1  0.08889009  0.95044127  0.19065044  1  0  -0.380593  0  3.305614  0  0  -0.302039  0  3.606179  0  0  -0.321854  0  3.61851  0  0  -0.357247  -0.288612  0  3.597487  0
N  N83  1  0.91110853  0.04956073  0.80934742  1  0  -0.380453  0  3.305504  0  0  -0.301941  0  3.606097  0  0  -0.321756  0  3.61843  0  0  -0.357183  -0.288518  0  3.597404  0
N  N84  1  0.11947018  0.15976576  0.13489254  1  0  -0.056028  0  3.553696  0  0  0.041476  0  3.768772  0  0  0.02641  0  3.796213  0  0  -0.239684  0.051335  0  3.750092  0
N  N85  1  0.88052620  0.84023619  0.86510488  1  0  -0.056122  0  3.553757  0  0  0.041389  0  3.768831  0  0  0.026323  0  3.796274  0  0  -0.239761  0.05125  0  3.75015  0
O  O86  1  0.88355537  0.27565896  0.90896534  1  0  -0.67766  0  2.060041  0  0  -0.602399  0  2.340349  0  0  -0.631536  0  2.324305  0  0  -0.343823  -0.581921  0  2.350679  0
O  O87  1  0.11644641  0.72433244  0.09103959  1  0  -0.677728  0  2.060102  0  0  -0.602471  0  2.340389  0  0  -0.631606  0  2.324346  0  0  -0.343855  -0.582001  0  2.350716  0
O  O88  1  0.72405106  0.38644314  0.78575767  1  0  -0.630313  0  1.880168  0  0  -0.585956  0  2.098172  0  0  -0.607836  0  2.088834  0  0  -0.334429  -0.570703  0  2.104169  0
O  O89  1  0.27596156  0.61355233  0.21424362  1  0  -0.630154  0  1.880141  0  0  -0.585848  0  2.098132  0  0  -0.607727  0  2.088798  0  0  -0.334382  -0.570602  0  2.10412  0
O  O90  1  0.19247073  0.13082664  0.85503877  1  0  -0.665207  0  2.006951  0  0  -0.589782  0  2.271697  0  0  -0.618573  0  2.257361  0  0  -0.350806  -0.569696  0  2.280837  0
O  O91  1  0.80753150  0.86917249  0.14495882  1  0  -0.665268  0  2.006934  0  0  -0.589837  0  2.271695  0  0  -0.618628  0  2.257356  0  0  -0.350873  -0.569749  0  2.280838  0
O  O92  1  0.24077254  0.33827686  0.81429855  1  0  -0.655972  0  1.863112  0  0  -0.615999  0  2.086035  0  0  -0.637742  0  2.07597  0  0  -0.355097  -0.600749  0  2.092436  0
O  O93  1  0.75922959  0.66172332  0.18570488  1  0  -0.655826  0  1.863236  0  0  -0.615874  0  2.086192  0  0  -0.637618  0  2.076127  0  0  -0.355021  -0.600619  0  2.092591  0
