# generated using pymatgen
data_ZnH18C28SNO7
_symmetry_space_group_name_H-M   'P 1'
_cell_length_a   10.98243652
_cell_length_b   18.30283019
_cell_length_c   19.45202447
_cell_angle_alpha   89.61590656
_cell_angle_beta   88.46578458
_cell_angle_gamma   90.80829292
_symmetry_Int_Tables_number   1
_chemical_formula_structural   ZnH18C28SNO7
_chemical_formula_sum   'Zn2 H36 C56 S2 N2 O14'
_cell_volume   3908.15631875
_cell_formula_units_Z   2
loop_
 _symmetry_equiv_pos_site_id
 _symmetry_equiv_pos_as_xyz
  1  'x, y, z'
loop_
 _atom_site_type_symbol
 _atom_site_label
 _atom_site_symmetry_multiplicity
 _atom_site_fract_x
 _atom_site_fract_y
 _atom_site_fract_z
 _atom_site_occupancy
 _atom_site_pbe_bader_charge
 _atom_site_pbe_bader_spin_density
 _atom_site_pbe_cm5_charge
 _atom_site_pbe_ddec_charge
 _atom_site_pbe_ddec_spin_density
 _atom_site_pbe_ddec_sum_bond_order
 _atom_site_pbe_magmom
Zn  Zn0  1  0.51082721  0.42215448  0.49985358  1  1.289051  0  0.682295  0.825806  0  2.413183  0
Zn  Zn1  1  0.51562253  0.58007620  0.49792985  1  1.286102  0  0.679011  0.828903  0  2.381907  0
H  H2  1  0.26753440  0.80827416  0.63627970  1  0.046798  0  0.095916  0.090997  0  1.002686  0
H  H3  1  0.36152679  0.83034001  0.42619776  1  0.066554  0  0.116763  0.12424  0  0.983146  0
H  H4  1  0.38395211  0.17054097  0.41475136  1  0.078037  0  0.113268  0.119527  0  0.989975  0
H  H5  1  0.63431231  0.83164248  0.58273365  1  0.044957  0  0.111464  0.117137  0  0.996335  0
H  H6  1  0.39591284  0.30729210  0.41606157  1  0.146307  0  0.127523  0.105105  0  0.975789  0
H  H7  1  0.63601375  0.69568110  0.57479580  1  0.118502  0  0.126883  0.099903  0  0.974363  0
H  H8  1  0.30411943  0.06694587  0.48259291  1  0.053346  0  0.10773  0.107812  0  0.991271  0
H  H9  1  0.68775992  0.93601252  0.52648068  1  0.072134  0  0.10625  0.104866  0  0.998448  0
H  H10  1  0.30460654  0.93204956  0.48344700  1  0.101469  0  0.106486  0.104415  0  1.001212  0
H  H11  1  0.68633500  0.07085700  0.52717630  1  0.07307  0  0.105604  0.103973  0  1.001984  0
H  H12  1  0.32564525  0.68467661  0.67864366  1  0.045968  0  0.102035  0.100419  0  0.99082  0
H  H13  1  0.76733102  0.18217321  0.38564214  1  0.073172  0  0.094508  0.089087  0  1.005944  0
H  H14  1  0.76395240  0.29405902  0.31212802  1  0.069563  0  0.097635  0.091369  0  1.003171  0
H  H15  1  0.23460115  0.57388855  0.62895824  1  0.074689  0  0.101189  0.109752  0  1.010504  0
H  H16  1  0.84487206  0.41201203  0.35559726  1  0.070916  0  0.10372  0.103872  0  0.991505  0
H  H17  1  0.03074600  0.70677407  0.49032952  1  0.058372  0  0.101315  0.10318  0  0.997869  0
H  H18  1  0.93981799  0.30655480  0.54462892  1  0.053274  0  0.102006  0.104789  0  0.992855  0
H  H19  1  0.11904931  0.81865686  0.54203916  1  0.061519  0  0.092657  0.08528  0  1.007972  0
H  H20  1  0.85738622  0.18868615  0.50193964  1  0.053536  0  0.091943  0.083157  0  1.013443  0
H  H21  1  0.88931938  0.60935117  0.53357447  1  0.104713  0  0.10392  0.109929  0  1.020376  0
H  H22  1  0.12981724  0.39190991  0.47451591  1  0.090155  0  0.105458  0.111316  0  0.998998  0
H  H23  1  0.65645368  0.59121357  0.70545200  1  0.080448  0  0.10749  0.109693  0  0.987164  0
H  H24  1  0.57820007  0.37914827  0.93581811  1  0.070048  0  0.105415  0.106281  0  0.993135  0
H  H25  1  0.63953763  0.40677281  0.29229523  1  0.088583  0  0.105514  0.106864  0  1.014295  0
H  H26  1  0.69029273  0.58743239  0.83129535  1  0.055896  0  0.106916  0.106272  0  0.994732  0
H  H27  1  0.67784512  0.40881390  0.16549128  1  0.052536  0  0.105922  0.105287  0  0.994885  0
H  H28  1  0.42943941  0.40975175  0.85145999  1  0.111443  0  0.112488  0.123388  0  1.002445  0
H  H29  1  0.41386477  0.57950960  0.14700232  1  0.102244  0  0.113045  0.122848  0  0.99871  0
H  H30  1  0.30520252  0.42691642  0.61567337  1  0.667727  0  0.311123  0.384226  0  0.942558  0
H  H31  1  0.29756873  0.56634263  0.38911895  1  0.679327  0  0.313407  0.381979  0  0.935721  0
H  H32  1  0.57234331  0.61425515  0.06182505  1  0.058303  0  0.105315  0.106517  0  0.992876  0
H  H33  1  0.57160075  0.37888271  0.06291652  1  0.049436  0  0.102319  0.100094  0  1.002799  0
H  H34  1  0.57755940  0.61452878  0.93476773  1  0.054544  0  0.102219  0.10006  0  1.002846  0
H  H35  1  0.60578273  0.30746253  0.58966027  1  0.113222  0  0.132686  0.11372  0  0.962013  0
H  H36  1  0.37261660  0.69558690  0.42613344  1  0.164314  0  0.124321  0.105336  0  1.006686  0
H  H37  1  0.60707559  0.17100057  0.59463092  1  0.097002  0  0.116374  0.122889  0  0.98132  0
C  C38  1  0.50423982  0.49528085  0.36814836  1  1.560867  0  0.213317  0.586236  0  4.21181  0
C  C39  1  0.61278747  0.44634302  0.18887886  1  -0.037306  0  -0.083072  -0.122614  0  3.97934  0
C  C40  1  0.56457310  0.49722574  0.85055643  1  -0.018903  0  -0.001136  0.077972  0  3.999548  0
C  C41  1  0.55190323  0.49608594  0.14715618  1  -0.006169  0  -0.000673  0.08123  0  3.995894  0
C  C42  1  0.48413927  0.44768695  0.81973222  1  -0.04159  0  -0.077585  -0.132374  0  3.940429  0
C  C43  1  0.46828751  0.54371596  0.17850238  1  0.006801  0  -0.076474  -0.131646  0  3.937649  0
C  C44  1  0.46756038  0.44891921  0.74894946  1  -0.125639  0  -0.01139  -0.097698  0  3.924024  0
C  C45  1  0.44918395  0.54323601  0.24965844  1  -0.153962  0  -0.010332  -0.096692  0  3.929686  0
C  C46  1  0.53001290  0.50078007  0.70709741  1  -0.015902  0  -0.007664  -0.02283  0  3.950392  0
C  C47  1  0.51244478  0.49455477  0.29126274  1  0.02222  0  -0.006277  -0.018283  0  3.94814  0
C  C48  1  0.57657740  0.43084268  0.96338446  1  -0.00303  0  -0.088506  -0.124747  0  3.991956  0
C  C49  1  0.52052275  0.50263901  0.63051929  1  1.61206  0  0.213234  0.58403  0  4.210395  0
C  C50  1  0.57319949  0.56253039  0.03427993  1  -0.027611  0  -0.089006  -0.124405  0  3.993352  0
C  C51  1  0.57414637  0.43075873  0.03492363  1  -0.060164  0  -0.089711  -0.125693  0  3.998394  0
C  C52  1  0.57751683  0.56264814  0.96273838  1  -0.032332  0  -0.089202  -0.126592  0  3.996373  0
C  C53  1  0.27234496  0.50190933  0.50680985  1  1.492112  0  0.229461  0.60736  0  4.129229  0
C  C54  1  0.74696606  0.50342949  0.49381004  1  1.550491  0  0.217853  0.598467  0  4.158111  0
C  C55  1  0.56861293  0.49653442  0.07161895  1  -0.027798  0  -0.007228  0.062878  0  4.012812  0
C  C56  1  0.57550049  0.49678992  0.92602023  1  -0.011602  0  -0.008412  0.065533  0  4.009036  0
C  C57  1  0.55988844  0.27459057  0.55146592  1  0.587331  0  0.0689  0.132399  0  3.893683  0
C  C58  1  0.42809876  0.72758476  0.46063081  1  0.494504  0  0.066335  0.130077  0  3.886335  0
C  C59  1  0.55968299  0.19879172  0.55373940  1  -0.104689  0  -0.073052  -0.168104  0  3.929008  0
C  C60  1  0.88344788  0.50037606  0.49552451  1  0.047058  0  -0.008221  -0.062563  0  3.914924  0
C  C61  1  0.42244535  0.80327107  0.46121095  1  0.003192  0  -0.073309  -0.168112  0  3.927365  0
C  C62  1  0.49576699  0.15898852  0.50467389  1  0.023232  0  0.017004  0.112448  0  3.997876  0
C  C63  1  0.49761929  0.84353991  0.50457986  1  -0.01692  0  0.016645  0.11102  0  3.997286  0
C  C64  1  0.43375918  0.19860334  0.45471822  1  0.082654  0  -0.080737  -0.182195  0  3.960113  0
C  C65  1  0.57551691  0.80385230  0.54670660  1  -0.007841  0  -0.082607  -0.185096  0  3.964545  0
C  C66  1  0.43969195  0.27433824  0.45498249  1  0.382937  0  0.056379  0.101586  0  3.935054  0
C  C67  1  0.57649797  0.72825064  0.54315928  1  0.504972  0  0.055709  0.101091  0  3.943823  0
C  C68  1  0.38863202  0.03823868  0.49165292  1  0.035313  0  -0.083439  -0.119422  0  3.98181  0
C  C69  1  0.60274859  0.96446638  0.51830955  1  -0.019618  0  -0.084081  -0.118092  0  3.985184  0
C  C70  1  0.38903387  0.96227495  0.49210514  1  -0.100126  0  -0.082936  -0.11766  0  3.979315  0
C  C71  1  0.13657687  0.50272724  0.50938272  1  0.017885  0  -0.010626  -0.064391  0  3.939859  0
C  C72  1  0.60215380  0.04037229  0.51848373  1  -0.073411  0  -0.084595  -0.121325  0  3.989057  0
C  C73  1  0.49616826  0.92403382  0.50529527  1  -0.055918  0  -0.005159  0.062334  0  3.997998  0
C  C74  1  0.49514492  0.07847716  0.50503499  1  -0.044965  0  -0.003607  0.062988  0  4.004877  0
C  C75  1  0.26057073  0.69014837  0.63764570  1  -0.061024  0  -0.09314  -0.07476  0  4.02297  0
C  C76  1  0.80177913  0.29674387  0.36338291  1  -0.120499  0  -0.098476  -0.089281  0  4.04774  0
C  C77  1  0.21007418  0.62739887  0.60902596  1  -0.026437  0  -0.088438  -0.114518  0  3.937806  0
C  C78  1  0.84761636  0.36287436  0.38752608  1  -0.042114  0  -0.087135  -0.112602  0  3.965262  0
C  C79  1  0.12688193  0.63249672  0.55566051  1  0.003187  0  -0.008747  0.070987  0  4.000943  0
C  C80  1  0.89659686  0.36735688  0.45331543  1  0.032434  0  -0.003106  0.085832  0  3.989105  0
C  C81  1  0.09433907  0.70217170  0.53223628  1  -0.138179  0  -0.095843  -0.139559  0  3.989527  0
C  C82  1  0.94985511  0.43689335  0.47920715  1  -0.06775  0  0.008035  0.064367  0  3.94252  0
C  C83  1  0.90109602  0.30368551  0.49360420  1  -0.026876  0  -0.095095  -0.141536  0  3.983922  0
C  C84  1  0.14460265  0.76492337  0.56112543  1  -0.014691  0  -0.104031  -0.097982  0  4.082564  0
C  C85  1  0.85431003  0.23748659  0.46952503  1  -0.042344  0  -0.104084  -0.095285  0  4.082325  0
C  C86  1  0.22801478  0.75917529  0.61388366  1  -0.014994  0  -0.102057  -0.10252  0  4.055169  0
C  C87  1  0.80401179  0.23377065  0.40448987  1  -0.059881  0  -0.104681  -0.102721  0  4.05981  0
C  C88  1  0.94448808  0.56267367  0.51900823  1  -0.071744  0  -0.07964  -0.130859  0  3.946842  0
C  C89  1  0.07596865  0.43962298  0.48770894  1  0.005757  0  -0.079179  -0.135151  0  3.939689  0
C  C90  1  0.07046125  0.56597682  0.52655570  1  0.044028  0  0.0024  0.057661  0  3.969633  0
C  C91  1  0.60831361  0.55098734  0.73806308  1  -0.004493  0  -0.082649  -0.090818  0  3.986786  0
C  C92  1  0.59228949  0.44529349  0.25975253  1  -0.00917  0  -0.083285  -0.09294  0  3.979007  0
C  C93  1  0.62662483  0.54893920  0.80853065  1  -0.023545  0  -0.083199  -0.122629  0  3.982169  0
S  S94  1  0.35739122  0.38429973  0.71738259  1  3.108732  0  0.532121  1.173851  0  6.00604  0
S  S95  1  0.33536401  0.60428305  0.28274936  1  3.07727  0  0.534737  1.171372  0  6.000288  0
N  N96  1  0.50163933  0.31165308  0.50258929  1  -1.244623  0  -0.326242  -0.211839  0  3.533545  0
N  N97  1  0.50452427  0.69055686  0.50051419  1  -1.257199  0  -0.324145  -0.209483  0  3.527945  0
O  O98  1  0.47201807  0.43615906  0.39880132  1  -1.167838  0  -0.316372  -0.544435  0  2.325777  0
O  O99  1  0.27617790  0.36669450  0.77445334  1  -1.294501  0  -0.327031  -0.535818  0  2.096371  0
O  O100  1  0.28140292  0.43236499  0.66585961  1  -1.266931  0  -0.366331  -0.547546  0  2.224718  0
O  O101  1  0.39234927  0.66767593  0.31270178  1  -1.301521  0  -0.326183  -0.557411  0  2.149856  0
O  O102  1  0.24875333  0.61351475  0.22943203  1  -1.280471  0  -0.324204  -0.531396  0  2.091921  0
O  O103  1  0.26733056  0.55710972  0.34167370  1  -1.269701  0  -0.365726  -0.5388  0  2.203241  0
O  O104  1  0.49159282  0.56263413  0.60236668  1  -1.160004  0  -0.309597  -0.544111  0  2.334306  0
O  O105  1  0.53433924  0.55520097  0.39583327  1  -1.15162  0  -0.309623  -0.532048  0  2.346691  0
O  O106  1  0.54479182  0.44318727  0.60018741  1  -1.164554  0  -0.309705  -0.539107  0  2.382436  0
O  O107  1  0.32570478  0.44576095  0.53060187  1  -1.179813  0  -0.30115  -0.55492  0  2.349855  0
O  O108  1  0.69821331  0.56433023  0.50906192  1  -1.171785  0  -0.320737  -0.549299  0  2.32221  0
O  O109  1  0.32822722  0.55611959  0.47805057  1  -1.180821  0  -0.297462  -0.556437  0  2.375121  0
O  O110  1  0.68977710  0.44523639  0.47854461  1  -1.167089  0  -0.306104  -0.534248  0  2.390122  0
O  O111  1  0.41753696  0.32636107  0.68040824  1  -1.304604  0  -0.329829  -0.561409  0  2.149943  0
