# generated using pymatgen
data_CuH11C9SN4O5F3
_symmetry_space_group_name_H-M   'P 1'
_cell_length_a   5.51333491
_cell_length_b   10.15995105
_cell_length_c   13.14728083
_cell_angle_alpha   93.09905875
_cell_angle_beta   88.83065275
_cell_angle_gamma   109.35130569
_symmetry_Int_Tables_number   1
_chemical_formula_structural   CuH11C9SN4O5F3
_chemical_formula_sum   'Cu2 H22 C18 S2 N8 O10 F6'
_cell_volume   693.82323935
_cell_formula_units_Z   2
loop_
 _symmetry_equiv_pos_site_id
 _symmetry_equiv_pos_as_xyz
  1  'x, y, z'
loop_
 _atom_site_type_symbol
 _atom_site_label
 _atom_site_symmetry_multiplicity
 _atom_site_fract_x
 _atom_site_fract_y
 _atom_site_fract_z
 _atom_site_occupancy
 _atom_site_hle17_ddec_charge
 _atom_site_hle17_ddec_spin_density
 _atom_site_hle17_ddec_sum_bond_order
 _atom_site_hle17_magmom
 _atom_site_hse06_10hf_ddec_charge
 _atom_site_hse06_10hf_ddec_spin_density
 _atom_site_hse06_10hf_ddec_sum_bond_order
 _atom_site_hse06_10hf_magmom
 _atom_site_hse06_ddec_charge
 _atom_site_hse06_ddec_spin_density
 _atom_site_hse06_ddec_sum_bond_order
 _atom_site_hse06_magmom
 _atom_site_pbe_cm5_charge
 _atom_site_pbe_ddec_charge
 _atom_site_pbe_ddec_spin_density
 _atom_site_pbe_ddec_sum_bond_order
 _atom_site_pbe_magmom
Cu  Cu0  1  0.70915519  0.90567875  0.93404517  1  0.738594  0.650046  1.985227  0.452  0.699913  0.757577  2.416044  0.577  0.783111  0.852431  2.347286  0.671  0.785101  0.647546  0.631227  2.46612  0.473
Cu  Cu1  1  0.29083528  0.09431182  0.06595363  1  0.738586  -0.650038  1.985512  -0.452  0.699921  -0.757593  2.416417  -0.577  0.783153  -0.852443  2.347616  -0.671  0.785236  0.647512  -0.631227  2.46653  -0.473
H  H2  1  0.40427009  0.56305581  0.25620200  1  0.124416  -0.000185  0.965963  0.0  0.143508  -0.00014  1.026073  0.0  0.145042  -0.000103  1.025764  0.0  0.092963  0.142379  -0.000157  1.026371  0.0
H  H3  1  0.59571300  0.43693773  0.74379468  1  0.124411  0.000186  0.965892  0.0  0.143489  0.000141  1.026009  0.0  0.14502  0.000103  1.025709  0.0  0.092934  0.142361  0.000156  1.026307  0.0
H  H4  1  0.13373491  0.60095818  0.30203547  1  0.117001  -0.000204  0.959257  0.0  0.133266  -5.4e-05  1.026393  0.0  0.134516  -4.7e-05  1.025901  0.0  0.090304  0.13238  -5.7e-05  1.026814  0.0
H  H5  1  0.86627021  0.39904377  0.69797236  1  0.11699  0.000204  0.959237  0.0  0.133226  5.5e-05  1.026407  0.0  0.134474  4.7e-05  1.025921  0.0  0.090279  0.132341  5.7e-05  1.026826  0.0
H  H6  1  0.44018682  0.69992492  0.35008418  1  0.113712  -0.000398  0.950211  -0.001  0.129883  -0.000167  1.018017  0.0  0.130763  -0.00014  1.018229  0.0  0.087762  0.129104  -0.000163  1.018054  0.0
H  H7  1  0.55983208  0.30007071  0.64990883  1  0.113714  0.000397  0.95022  0.001  0.129906  0.000167  1.017989  0.0  0.130782  0.00014  1.018207  0.0  0.087784  0.129128  0.000163  1.018028  0.0
H  H8  1  0.88462617  0.54014319  0.07149108  1  0.146345  -0.0003  0.944791  0.0  0.161736  -0.000158  1.007748  0.0  0.1656  -0.000124  1.005236  0.0  0.104531  0.1589  -0.000171  1.009572  0.0
H  H9  1  0.11534344  0.45985607  0.92850896  1  0.146294  0.000301  0.944792  0.0  0.161765  0.000158  1.007648  0.0  0.165628  0.000124  1.005143  0.0  0.104545  0.158927  0.00017  1.009473  0.0
H  H10  1  0.56101026  0.47653849  0.11569801  1  0.142314  -0.000615  0.947653  -0.001  0.160938  -0.000311  1.008224  0.0  0.163392  -0.00034  1.007513  -0.001  0.104276  0.158914  -0.000271  1.009005  0.0
H  H11  1  0.43898563  0.52345928  0.88430501  1  0.142331  0.000616  0.947577  0.001  0.160956  0.00031  1.008161  0.0  0.163407  0.00034  1.007458  0.001  0.1043  0.158931  0.000271  1.00894  0.0
H  H12  1  0.79604963  0.60053788  0.19145782  1  0.122416  -8.1e-05  0.954054  0.0  0.144101  7.9e-05  1.015207  0.0  0.145117  -2e-06  1.015809  0.0  0.098595  0.142922  0.000141  1.015217  0.0
H  H13  1  0.20393511  0.39946196  0.80853693  1  0.122412  8.3e-05  0.954021  0.0  0.144108  -7.9e-05  1.01515  0.0  0.145129  2e-06  1.015751  0.0  0.098569  0.142923  -0.000141  1.015168  0.0
H  H14  1  0.95866739  0.74374637  0.37365082  1  0.135523  -0.000357  0.944701  -0.001  0.149837  -0.000238  1.011052  0.0  0.152302  -0.00016  1.009999  0.0  0.09752  0.14782  -0.000293  1.01213  0.0
H  H15  1  0.04135772  0.25626702  0.62636832  1  0.135411  0.000353  0.94482  0.001  0.149715  0.000239  1.011197  0.0  0.152175  0.000159  1.010144  0.0  0.097504  0.147692  0.000293  1.012285  0.0
H  H16  1  0.24101829  0.88184756  0.41111764  1  0.149851  -0.000431  0.921009  -0.001  0.167864  -0.000339  0.978893  -0.001  0.170673  -0.000255  0.977281  0.0  0.104202  0.165702  -0.000387  0.980193  -0.001
H  H17  1  0.75902528  0.11817192  0.58888891  1  0.149781  0.000432  0.920978  0.001  0.16782  0.000339  0.978857  0.001  0.170624  0.000255  0.977254  0.0  0.104227  0.16566  0.000387  0.980163  0.001
H  H18  1  0.93823894  0.90922795  0.41372355  1  0.133859  4.5e-05  0.927059  0.0  0.154309  3.7e-05  0.98341  0.0  0.156708  2.7e-05  0.982268  0.0  0.105273  0.152496  3.7e-05  0.984363  0.0
H  H19  1  0.06179683  0.09079507  0.58629386  1  0.134002  -4.6e-05  0.927033  0.0  0.15443  -3.6e-05  0.98341  0.0  0.15683  -2.7e-05  0.982265  0.0  0.105348  0.15261  -3.7e-05  0.984375  0.0
H  H20  1  0.87050317  0.02424083  0.29423744  1  0.284257  -0.002273  0.927958  -0.004  0.259791  -0.00202  0.99494  -0.003  0.266896  -0.001497  0.989256  -0.003  0.315869  0.254521  -0.002168  0.999239  -0.004
H  H21  1  0.12949383  0.97576614  0.70576838  1  0.284199  0.002272  0.928081  0.004  0.259775  0.00202  0.995014  0.003  0.266871  0.001496  0.989326  0.003  0.315927  0.254505  0.002167  0.999314  0.004
H  H22  1  0.95966846  0.70120519  0.85648665  1  0.385049  0.000154  0.87261  0.001  0.356545  0.000281  0.951965  0.001  0.366305  0.000156  0.940885  0.001  0.318096  0.349526  0.000351  0.95981  0.001
H  H23  1  0.04032113  0.29879127  0.14351934  1  0.384891  -0.000153  0.872823  -0.001  0.356386  -0.000282  0.952186  -0.001  0.366147  -0.000156  0.941108  -0.001  0.318004  0.349362  -0.000351  0.960037  -0.001
C  C24  1  0.36936089  0.74994446  0.19910142  1  0.051204  -0.010457  3.67209  -0.01  0.059457  -0.004581  3.920477  -0.005  0.058834  -0.003993  3.943791  -0.005  -0.00681  0.05997  -0.00477  3.903996  -0.005
C  C25  1  0.63062192  0.25004894  0.80089906  1  0.051161  0.010454  3.672235  0.01  0.059395  0.00458  3.920607  0.005  0.058771  0.003992  3.943922  0.005  -0.00683  0.059897  0.004769  3.904129  0.005
C  C26  1  0.26175359  0.85876736  0.19341790  1  0.025998  0.001446  3.735153  0.002  0.024303  0.000633  3.995146  0.002  0.023992  0.001302  4.015347  0.002  0.08339  0.025626  2e-06  3.981411  0.001
C  C27  1  0.73824563  0.14123591  0.80657782  1  0.02612  -0.001442  3.73517  -0.002  0.024458  -0.000628  3.99511  -0.002  0.024148  -0.001305  4.015313  -0.002  0.08348  0.02576  -3e-06  3.981319  -0.001
C  C28  1  0.33587776  0.64902146  0.28055128  1  -0.325158  0.000228  3.735519  0.001  -0.405533  -0.000135  3.979878  0.0  -0.408017  -8e-05  3.991747  0.0  -0.245262  -0.403634  -0.000162  3.971494  0.0
C  C29  1  0.66411697  0.35097419  0.71945238  1  -0.325139  -0.000226  3.7355  -0.001  -0.405489  0.000133  3.979882  0.0  -0.407977  7.9e-05  3.991767  0.0  -0.245223  -0.403592  0.000163  3.971513  0.0
C  C30  1  0.51473712  0.75920917  0.10912091  1  0.023001  0.003792  3.764971  0.004  0.014344  0.000604  4.028036  0.001  0.014215  0.000859  4.048232  0.001  0.08232  0.01587  0.000346  4.013784  0.0
C  C31  1  0.48523784  0.24077273  0.89087815  1  0.023018  -0.003793  3.76501  -0.004  0.01437  -0.000604  4.027993  -0.001  0.014239  -0.000858  4.048187  -0.001  0.082294  0.015878  -0.000346  4.013722  0.0
C  C32  1  0.67907157  0.68517629  0.06381409  1  0.253154  -0.013203  3.680877  -0.012  0.245259  -0.004027  3.949773  -0.004  0.263079  -0.0058  3.960192  -0.006  0.13513  0.232497  -0.002194  3.943468  -0.002
C  C33  1  0.32091673  0.31480618  0.93617893  1  0.253028  0.013223  3.680975  0.012  0.245213  0.004027  3.949775  0.004  0.263037  0.005805  3.96019  0.006  0.135202  0.23252  0.002195  3.943371  0.002
C  C34  1  0.73402488  0.56915988  0.11251066  1  -0.364508  0.003572  3.658563  0.004  -0.443294  0.001744  3.890302  0.002  -0.448353  0.001307  3.894155  0.002  -0.235104  -0.439061  0.001923  3.887896  0.002
C  C35  1  0.26595701  0.43082834  0.88748953  1  -0.364492  -0.003579  3.658469  -0.004  -0.443375  -0.001744  3.890213  -0.002  -0.448445  -0.001307  3.894064  -0.002  -0.23515  -0.439157  -0.001923  3.887789  -0.002
C  C36  1  0.09967308  0.90350495  0.26451922  1  0.26071  -0.008592  3.657623  -0.008  0.228352  -0.00655  3.935259  -0.007  0.243091  -0.004866  3.946969  -0.005  0.140121  0.217619  -0.007555  3.927874  -0.008
C  C37  1  0.90034672  0.09649660  0.73548174  1  0.260734  0.008569  3.657805  0.008  0.228277  0.00655  3.935575  0.007  0.243022  0.004864  3.947278  0.005  0.140211  0.217664  0.007553  3.928009  0.008
C  C38  1  0.05682382  0.85683153  0.37138855  1  -0.37292  0.001144  3.67128  0.002  -0.453653  0.00025  3.921647  0.001  -0.458772  0.000265  3.927814  0.001  -0.227636  -0.449684  0.000181  3.917658  0.001
C  C39  1  0.94320682  0.14318442  0.62862084  1  -0.37286  -0.00114  3.671434  -0.002  -0.453569  -0.000252  3.921846  -0.001  -0.458677  -0.000265  3.928001  -0.001  -0.227693  -0.44963  -0.000181  3.917835  -0.001
C  C40  1  0.37935243  0.65685105  0.59316061  1  0.600672  -6e-05  3.675496  0.0  0.527944  -3.8e-05  4.048003  0.0  0.556345  -5.4e-05  4.020056  0.0  0.290629  0.507115  -1.7e-05  4.069047  0.0
C  C41  1  0.62066161  0.34315582  0.40683151  1  0.60081  5.1e-05  3.674859  0.0  0.528081  3.7e-05  4.04739  0.0  0.556485  4.4e-05  4.019426  0.0  0.290596  0.507137  1.7e-05  4.068637  0.0
S  S42  1  0.30765644  0.76427386  0.70152586  1  1.14055  4e-06  5.766434  0.0  1.038045  0.000105  6.303919  0.0  1.082619  3.6e-05  6.281825  0.0  0.495836  1.007303  0.000181  6.318627  0.0
S  S43  1  0.69235211  0.23572183  0.29845802  1  1.140328  1e-06  5.765823  0.0  1.037796  -0.000112  6.303355  0.0  1.082384  -3.2e-05  6.281256  0.0  0.495816  1.00709  -0.000181  6.318069  0.0
N  N44  1  0.49378724  0.86624619  0.05557666  1  -0.206287  0.051912  3.373358  0.066  -0.19224  0.04928  3.720551  0.066  -0.212674  0.045249  3.740907  0.064  -0.268266  -0.179501  0.0453  3.709266  0.059
N  N45  1  0.50616727  0.13374615  0.94443288  1  -0.206151  -0.05189  3.373317  -0.066  -0.192129  -0.049265  3.720464  -0.066  -0.212563  -0.045234  3.740818  -0.064  -0.268211  -0.179385  -0.045283  3.709184  -0.059
N  N46  1  0.34391819  0.92512754  0.10448238  1  -0.192093  -0.07406  3.341517  -0.091  -0.171883  -0.056627  3.680631  -0.075  -0.191408  -0.051152  3.700683  -0.071  -0.264569  -0.159722  -0.052583  3.66944  -0.068
N  N47  1  0.65605916  0.07488315  0.89552059  1  -0.192383  0.074093  3.341398  0.091  -0.172079  0.056644  3.680406  0.075  -0.191602  0.051163  3.700454  0.071  -0.26469  -0.15993  0.0526  3.669215  0.068
N  N48  1  0.77463434  0.73253279  0.97619944  1  -0.149656  0.071088  3.187222  0.086  -0.126994  0.052619  3.50858  0.068  -0.147979  0.047745  3.520897  0.065  -0.263066  -0.115464  0.049272  3.502879  0.062
N  N49  1  0.22534900  0.26745769  0.02379631  1  -0.14953  -0.071123  3.186977  -0.086  -0.126921  -0.052627  3.508353  -0.068  -0.147915  -0.047755  3.520681  -0.065  -0.26304  -0.1154  -0.049284  3.502616  -0.062
N  N50  1  0.98380352  0.99150395  0.24048382  1  -0.056033  -0.001216  3.546781  0.004  0.010748  0.000316  3.789235  0.004  0.00687  0.001838  3.808331  0.005  -0.262491  0.013303  -0.001162  3.776996  0.003
N  N51  1  0.01620262  0.00849611  0.75952009  1  -0.055862  0.001231  3.546871  -0.004  0.010888  -0.000318  3.789408  -0.004  0.007014  -0.001836  3.808501  -0.005  -0.262533  0.013406  0.001162  3.77713  -0.003
O  O52  1  0.92693502  0.66631303  0.92701106  1  -0.371211  0.017149  2.05631  0.02  -0.322967  0.011734  2.277476  0.014  -0.341646  0.009271  2.2773  0.012  -0.248603  -0.309266  0.012298  2.277786  0.015
O  O53  1  0.07304313  0.33368537  0.07299046  1  -0.37117  -0.017158  2.056136  -0.02  -0.322939  -0.011737  2.277327  -0.014  -0.34162  -0.009271  2.277155  -0.012  -0.248622  -0.309238  -0.012303  2.277637  -0.015
O  O54  1  0.98670685  0.04967267  0.15266028  1  -0.401158  -0.110769  1.99334  -0.143  -0.415751  -0.065467  2.311396  -0.092  -0.456339  -0.051896  2.313397  -0.077  -0.241217  -0.389943  -0.066335  2.31146  -0.091
O  O55  1  0.01328474  0.95031681  0.84734074  1  -0.401231  0.11074  1.993154  0.143  -0.415833  0.065461  2.311321  0.092  -0.456409  0.051892  2.313311  0.077  -0.241273  -0.390043  0.066322  2.311398  0.091
O  O56  1  0.34228246  0.89706949  0.65407232  1  -0.617169  0.000569  1.986305  0.001  -0.575641  0.000516  2.226171  0.0  -0.594562  0.000317  2.214033  0.0  -0.337713  -0.562145  0.000669  2.234037  0.001
O  O57  1  0.65770876  0.10292857  0.34591930  1  -0.617148  -0.000569  1.986307  -0.001  -0.575621  -0.000513  2.226206  0.0  -0.594553  -0.000314  2.214072  0.0  -0.337706  -0.562131  -0.00067  2.234064  -0.001
O  O58  1  0.04164782  0.68630765  0.72799272  1  -0.600466  -0.000161  2.015218  0.0  -0.559985  -0.00012  2.259833  0.0  -0.577542  -0.000124  2.246266  0.0  -0.327115  -0.547526  -8.8e-05  2.268769  0.0
O  O59  1  0.95837028  0.31369316  0.27199906  1  -0.600311  0.000163  2.014886  0.0  -0.559893  0.000124  2.259606  0.0  -0.577445  0.000125  2.246027  0.0  -0.327122  -0.54744  8.8e-05  2.268536  0.0
O  O60  1  0.49750597  0.76876664  0.77817874  1  -0.610117  -0.000938  2.0484  0.0  -0.584966  -0.000622  2.330148  0.0  -0.605295  -0.000783  2.313755  0.0  -0.335982  -0.570953  -0.00037  2.341846  0.0
O  O61  1  0.50249534  0.23124316  0.22180897  1  -0.609996  0.000937  2.048318  0.0  -0.584763  0.000623  2.329982  0.0  -0.605097  0.000784  2.31359  0.0  -0.335914  -0.570748  0.00037  2.34166  0.0
F  F62  1  0.61810651  0.71958829  0.55505446  1  -0.226387  2e-06  1.18506  0.0  -0.181303  -5e-06  1.343929  0.0  -0.190581  -3e-06  1.328014  0.0  -0.093256  -0.17482  -6e-06  1.355356  0.0
F  F63  1  0.38190350  0.28041120  0.44493953  1  -0.226428  -2e-06  1.184894  0.0  -0.181335  6e-06  1.343752  0.0  -0.190604  3e-06  1.327835  0.0  -0.09325  -0.174827  6e-06  1.355223  0.0
F  F64  1  0.36620731  0.52845162  0.62278750  1  -0.234922  3.4e-05  1.212746  0.0  -0.189741  2.6e-05  1.382254  0.0  -0.200396  2e-05  1.367185  0.0  -0.087239  -0.180309  3.2e-05  1.390864  0.0
F  F65  1  0.63381943  0.47155867  0.37720482  1  -0.234981  -3.3e-05  1.212782  0.0  -0.189789  -2.6e-05  1.382283  0.0  -0.200505  -1.9e-05  1.367269  0.0  -0.0872  -0.180335  -3.2e-05  1.390941  0.0
F  F66  1  0.20651880  0.63838033  0.51725554  1  -0.220526  -2.1e-05  1.215231  0.0  -0.186209  -1.9e-05  1.394497  0.0  -0.195914  -1.9e-05  1.378439  0.0  -0.087681  -0.179474  -1.4e-05  1.406027  0.0
F  F67  1  0.79351017  0.36162067  0.48273854  1  -0.220553  2.1e-05  1.214927  0.0  -0.186223  2e-05  1.394176  0.0  -0.195919  1.9e-05  1.378115  0.0  -0.087704  -0.17946  1.4e-05  1.405753  0.0
