# generated using pymatgen
data_DyH7C8NO8
_symmetry_space_group_name_H-M   'P 1'
_cell_length_a   5.81322246
_cell_length_b   10.33585431
_cell_length_c   11.23625308
_cell_angle_alpha   105.90748503
_cell_angle_beta   99.65607129
_cell_angle_gamma   106.96734481
_symmetry_Int_Tables_number   1
_chemical_formula_structural   DyH7C8NO8
_chemical_formula_sum   'Dy2 H14 C16 N2 O16'
_cell_volume   598.06703972
_cell_formula_units_Z   2
loop_
 _symmetry_equiv_pos_site_id
 _symmetry_equiv_pos_as_xyz
  1  'x, y, z'
loop_
 _atom_site_type_symbol
 _atom_site_label
 _atom_site_symmetry_multiplicity
 _atom_site_fract_x
 _atom_site_fract_y
 _atom_site_fract_z
 _atom_site_occupancy
 _atom_site_hle17_bader_spin_density
 _atom_site_hle17_ddec_charge
 _atom_site_hle17_ddec_spin_density
 _atom_site_hle17_ddec_sum_bond_order
 _atom_site_hle17_magmom
 _atom_site_hse06_10hf_bader_spin_density
 _atom_site_hse06_10hf_ddec_charge
 _atom_site_hse06_10hf_ddec_spin_density
 _atom_site_hse06_10hf_ddec_sum_bond_order
 _atom_site_hse06_10hf_magmom
 _atom_site_hse06_bader_spin_density
 _atom_site_hse06_ddec_charge
 _atom_site_hse06_ddec_spin_density
 _atom_site_hse06_ddec_sum_bond_order
 _atom_site_hse06_magmom
 _atom_site_pbe_bader_spin_density
 _atom_site_pbe_cm5_charge
 _atom_site_pbe_ddec_charge
 _atom_site_pbe_ddec_spin_density
 _atom_site_pbe_ddec_sum_bond_order
 _atom_site_pbe_magmom
Dy  Dy0  1  0.35902188  0.81334368  0.55741969  1  0  2.254864  0  1.612711  0  0  2.104898  0  2.084245  0  0  2.233603  0  1.892159  0  0  1.503715  2.06848  0  2.115943  0
Dy  Dy1  1  0.64097080  0.18664630  0.44258017  1  0  2.254797  0  1.612814  0  0  2.104784  0  2.084416  0  0  2.233522  0  1.89227  0  0  1.503772  2.068366  0  2.116158  0
H  H2  1  0.21086760  0.70133643  0.10346847  1  0  0.11851  0  0.921434  0  0  0.130559  0  0.973471  0  0  0.13424  0  0.972676  0  0  0.11744  0.128071  0  0.973824  0
H  H3  1  0.78914213  0.29866820  0.89651844  1  0  0.118536  0  0.921396  0  0  0.130607  0  0.973408  0  0  0.134287  0  0.97261  0  0  0.117431  0.128121  0  0.973763  0
H  H4  1  0.61393439  0.93080888  0.99512538  1  0  0.093648  0  0.946105  0  0  0.097888  0  1.018975  0  0  0.101927  0  1.014432  0  0  0.120736  0.095007  0  1.022058  0
H  H5  1  0.38607997  0.06920061  0.00487997  1  0  0.093671  0  0.946098  0  0  0.097896  0  1.018992  0  0  0.101934  0  1.01445  0  0  0.120739  0.095015  0  1.022074  0
H  H6  1  0.69373436  0.77834066  0.77778017  1  0  0.403346  0  0.914643  0  0  0.360158  0  0.997069  0  0  0.372596  0  0.979577  0  0  0.285681  0.351743  0  1.008962  0
H  H7  1  0.30626799  0.22166317  0.22221838  1  0  0.403348  0  0.914656  0  0  0.360165  0  0.997064  0  0  0.372601  0  0.979575  0  0  0.285716  0.351757  0  1.008948  0
H  H8  1  0.76180739  0.71839702  0.64488388  1  0  0.442126  0  0.854858  0  0  0.412749  0  0.914859  0  0  0.42469  0  0.897619  0  0  0.299004  0.404589  0  0.926735  0
H  H9  1  0.23819553  0.28160474  0.35511603  1  0  0.442189  0  0.854766  0  0  0.412811  0  0.914757  0  0  0.424752  0  0.897519  0  0  0.299024  0.404655  0  0.926629  0
H  H10  1  0.71663439  0.87110682  0.40647993  1  0  0.442717  0  0.860699  0  0  0.410263  0  0.926988  0  0  0.420884  0  0.911862  0  0  0.306272  0.402907  0  0.937649  0
H  H11  1  0.28336533  0.12889839  0.59353029  1  0  0.442627  0  0.860821  0  0  0.410213  0  0.927029  0  0  0.420833  0  0.911905  0  0  0.306287  0.40286  0  0.937685  0
H  H12  1  0.70230293  0.71725296  0.40516642  1  0  0.461411  0  0.800108  0  0  0.438818  0  0.854426  0  0  0.448414  0  0.840491  0  0  0.327675  0.432385  0  0.863926  0
H  H13  1  0.29769602  0.28275404  0.59483346  1  0  0.461373  0  0.8001  0  0  0.438775  0  0.854475  0  0  0.448372  0  0.840539  0  0  0.327637  0.432345  0  0.863973  0
H  H14  1  0.01761144  0.67344606  0.87614783  1  0  0.093021  0  0.905844  0  0  0.104707  0  0.959174  0  0  0.107876  0  0.956345  0  0  0.12844  0.102319  0  0.961233  0
H  H15  1  0.98237724  0.32655528  0.12384452  1  0  0.093016  0  0.905796  0  0  0.10469  0  0.959146  0  0  0.107858  0  0.956319  0  0  0.12845  0.102301  0  0.961202  0
C  C16  1  0.07953733  0.75434514  0.08292591  1  0  -0.136532  0  3.69946  0  0  -0.158049  0  3.953239  0  0  -0.165727  0  3.972598  0  0  -0.072784  -0.152963  0  3.93941  0
C  C17  1  0.92046829  0.24565532  0.91706502  1  0  -0.136577  0  3.699445  0  0  -0.158155  0  3.953174  0  0  -0.165837  0  3.972542  0  0  -0.072746  -0.153074  0  3.93935  0
C  C18  1  0.01706032  0.83977319  0.18336339  1  0  0.02584  0  3.644939  0  0  0.032709  0  3.87908  0  0  0.036579  0  3.893284  0  0  0.028136  0.0308  0  3.868481  0
C  C19  1  0.98295593  0.16022753  0.81663118  1  0  0.025778  0  3.645212  0  0  0.032807  0  3.879145  0  0  0.036682  0  3.893343  0  0  0.02816  0.030888  0  3.868544  0
C  C20  1  0.84994214  0.90781258  0.15299813  1  0  -0.122245  0  3.703847  0  0  -0.106763  0  3.943002  0  0  -0.117605  0  3.963105  0  0  -0.005245  -0.099892  0  3.928903  0
C  C21  1  0.15006789  0.09218938  0.84700510  1  0  -0.122353  0  3.703931  0  0  -0.106855  0  3.943007  0  0  -0.117705  0  3.96311  0  0  -0.005265  -0.099985  0  3.928905  0
C  C22  1  0.74756071  0.88204043  0.02306844  1  0  0.129079  0  3.677809  0  0  0.085463  0  3.935499  0  0  0.093701  0  3.95098  0  0  0.061291  0.0805  0  3.924427  0
C  C23  1  0.25244841  0.11796903  0.97693823  1  0  0.129082  0  3.677941  0  0  0.085421  0  3.935653  0  0  0.09366  0  3.951131  0  0  0.061254  0.080469  0  3.924586  0
C  C24  1  0.77807695  0.00610371  0.25224272  1  0  0.650756  0  3.918507  0  0  0.600249  0  4.21331  0  0  0.633913  0  4.213205  0  0  0.200427  0.576955  0  4.217797  0
C  C25  1  0.22193432  0.99390040  0.74776111  1  0  0.650799  0  3.918415  0  0  0.600246  0  4.213301  0  0  0.633914  0  4.213189  0  0  0.200402  0.576952  0  4.217791  0
C  C26  1  0.13409302  0.85155043  0.31760768  1  0  0.714587  0  3.873833  0  0  0.663857  0  4.171161  0  0  0.69986  0  4.164413  0  0  0.227699  0.639324  0  4.180235  0
C  C27  1  0.86592445  0.14845241  0.68238660  1  0  0.714829  0  3.873491  0  0  0.664034  0  4.170852  0  0  0.700037  0  4.164104  0  0  0.227794  0.639523  0  4.179902  0
C  C28  1  0.08289066  0.47165785  0.46082514  1  0  0.566644  0  3.921602  0  0  0.522986  0  4.216627  0  0  0.552995  0  4.214238  0  0  0.223098  0.502479  0  4.222945  0
C  C29  1  0.91704639  0.52830811  0.53917508  1  0  0.567036  0  3.921104  0  0  0.523359  0  4.216142  0  0  0.553379  0  4.213733  0  0  0.223403  0.502848  0  4.22247  0
C  C30  1  0.97144975  0.73775592  0.95698599  1  0  0.139671  0  3.701402  0  0  0.103887  0  3.963293  0  0  0.112354  0  3.977946  0  0  0.059422  0.098664  0  3.952793  0
C  C31  1  0.02855179  0.26224350  0.04300702  1  0  0.139717  0  3.701288  0  0  0.103906  0  3.963198  0  0  0.112368  0  3.977848  0  0  0.059395  0.098698  0  3.952701  0
N  N32  1  0.80494923  0.79889747  0.92745225  1  0  -0.294229  0  3.176122  0  0  -0.229315  0  3.42346  0  0  -0.243291  0  3.436933  0  0  -0.29989  -0.220049  0  3.413705  0
N  N33  1  0.19505618  0.20110862  0.07254976  1  0  -0.29422  0  3.176237  0  0  -0.229242  0  3.423514  0  0  -0.243205  0  3.436975  0  0  -0.299885  -0.220008  0  3.413784  0
O  O34  1  0.04138389  0.74836920  0.35586663  1  0  -0.692813  0  1.969975  0  0  -0.646403  0  2.202788  0  0  -0.679716  0  2.189655  0  0  -0.358807  -0.628809  0  2.209738  0
O  O35  1  0.95863073  0.25163166  0.64413318  1  0  -0.692865  0  1.969959  0  0  -0.646464  0  2.202828  0  0  -0.679776  0  2.189695  0  0  -0.358854  -0.628876  0  2.209777  0
O  O36  1  0.33302192  0.95682240  0.38440468  1  0  -0.773876  0  2.151594  0  0  -0.717816  0  2.414949  0  0  -0.762201  0  2.405227  0  0  -0.395375  -0.698182  0  2.420503  0
O  O37  1  0.66697389  0.04318225  0.61558906  1  0  -0.77399  0  2.151205  0  0  -0.717931  0  2.414593  0  0  -0.762314  0  2.40487  0  0  -0.395394  -0.698307  0  2.420141  0
O  O38  1  0.84847884  0.01748651  0.37080306  1  0  -0.694751  0  2.045175  0  0  -0.633865  0  2.279739  0  0  -0.666711  0  2.26931  0  0  -0.357303  -0.616411  0  2.285804  0
O  O39  1  0.15153847  0.98252202  0.62920410  1  0  -0.694692  0  2.045207  0  0  -0.633863  0  2.279851  0  0  -0.666707  0  2.269425  0  0  -0.357296  -0.616385  0  2.285849  0
O  O40  1  0.64933215  0.07675780  0.21903762  1  0  -0.659928  0  1.943501  0  0  -0.615734  0  2.184221  0  0  -0.649367  0  2.177149  0  0  -0.353555  -0.598078  0  2.188413  0
O  O41  1  0.35067079  0.92324090  0.78096603  1  0  -0.659948  0  1.943325  0  0  -0.615741  0  2.184067  0  0  -0.64937  0  2.176998  0  0  -0.353546  -0.598083  0  2.188241  0
O  O42  1  0.64484736  0.76090371  0.68141824  1  0  -0.954154  0  1.911969  0  0  -0.90313  0  2.132287  0  0  -0.935693  0  2.089364  0  0  -0.68328  -0.88855  0  2.156357  0
O  O43  1  0.35516024  0.23910015  0.31857899  1  0  -0.954221  0  1.91186  0  0  -0.903197  0  2.13221  0  0  -0.935766  0  2.089285  0  0  -0.683291  -0.888611  0  2.156273  0
O  O44  1  0.26858153  0.56191002  0.45005086  1  0  -0.612381  0  2.044515  0  0  -0.56737  0  2.282864  0  0  -0.598323  0  2.270735  0  0  -0.35254  -0.551976  0  2.288907  0
O  O45  1  0.73136437  0.43805613  0.54995194  1  0  -0.612448  0  2.045088  0  0  -0.567414  0  2.283455  0  0  -0.598373  0  2.271317  0  0  -0.352665  -0.55202  0  2.28951  0
O  O46  1  0.60857445  0.78206423  0.41607443  1  0  -0.907339  0  1.879038  0  0  -0.859878  0  2.078779  0  0  -0.888817  0  2.042238  0  0  -0.650209  -0.846374  0  2.099219  0
O  O47  1  0.39142892  0.21794120  0.58394150  1  0  -0.907203  0  1.879066  0  0  -0.85974  0  2.078841  0  0  -0.888685  0  2.042306  0  0  -0.650159  -0.846236  0  2.099282  0
O  O48  1  0.01415421  0.33451921  0.41268321  1  0  -0.687977  0  2.099408  0  0  -0.630834  0  2.336702  0  0  -0.666165  0  2.325126  0  0  -0.36013  -0.612922  0  2.342405  0
O  O49  1  0.98583151  0.66547077  0.58731961  1  0  -0.688278  0  2.098649  0  0  -0.631145  0  2.335968  0  0  -0.666476  0  2.32438  0  0  -0.36028  -0.61323  0  2.34167  0
