# generated using pymatgen
data_Cd3H10C10BrN15
_symmetry_space_group_name_H-M   'P 1'
_cell_length_a   7.94191229
_cell_length_b   10.79535693
_cell_length_c   14.24283848
_cell_angle_alpha   112.28363098
_cell_angle_beta   90.00008233
_cell_angle_gamma   89.99999911
_symmetry_Int_Tables_number   1
_chemical_formula_structural   Cd3H10C10BrN15
_chemical_formula_sum   'Cd6 H20 C20 Br2 N30'
_cell_volume   1129.92519799
_cell_formula_units_Z   2
loop_
 _symmetry_equiv_pos_site_id
 _symmetry_equiv_pos_as_xyz
  1  'x, y, z'
loop_
 _atom_site_type_symbol
 _atom_site_label
 _atom_site_symmetry_multiplicity
 _atom_site_fract_x
 _atom_site_fract_y
 _atom_site_fract_z
 _atom_site_occupancy
 _atom_site_pbe_bader_charge
 _atom_site_pbe_bader_spin_density
 _atom_site_pbe_cm5_charge
 _atom_site_pbe_ddec_charge
 _atom_site_pbe_ddec_spin_density
 _atom_site_pbe_ddec_sum_bond_order
 _atom_site_pbe_magmom
Cd  Cd0  1  0.02711944  0.01075879  0.02154635  1  1.238311  0  0.782846  0.65193  0  2.452448  0
Cd  Cd1  1  0.45048406  0.23954338  0.47900331  1  1.200367  0  0.74157  0.692513  0  2.388726  0
Cd  Cd2  1  0.52711863  0.98924288  0.97845575  1  1.2382  0  0.78285  0.651906  0  2.452485  0
Cd  Cd3  1  0.95048459  0.76045648  0.52099649  1  1.200392  0  0.741587  0.692531  0  2.388662  0
Cd  Cd4  1  0.77091037  0.62711714  0.25427517  1  1.152741  0  0.721579  0.709635  0  2.390778  0
Cd  Cd5  1  0.27090926  0.37288264  0.74572447  1  1.152755  0  0.721595  0.709718  0  2.390691  0
H  H6  1  0.00780690  0.81066245  0.17177186  1  0.128689  0  0.121456  0.0887  0  1.019182  0
H  H7  1  0.50822655  0.72153688  0.07193181  1  0.133327  0  0.132071  0.102877  0  0.978076  0
H  H8  1  0.54369436  0.36163049  0.28976640  1  0.123456  0  0.12366  0.084016  0  1.033192  0
H  H9  1  0.74912889  0.50216969  0.58280920  1  0.135792  0  0.118026  0.089303  0  1.023549  0
H  H10  1  0.50780823  0.18933520  0.82822696  1  0.128686  0  0.121453  0.088679  0  1.019199  0
H  H11  1  0.00822969  0.27846078  0.92806842  1  0.133351  0  0.132081  0.102882  0  0.978098  0
H  H12  1  0.04369316  0.63837119  0.71023500  1  0.123432  0  0.123635  0.083972  0  1.033195  0
H  H13  1  0.24912819  0.49783308  0.41719199  1  0.135765  0  0.118033  0.089309  0  1.0236  0
H  H14  1  0.50806383  0.63894010  0.82832995  1  0.120398  0  0.121581  0.089048  0  1.019354  0
H  H15  1  0.00832790  0.64953606  0.92790444  1  0.110516  0  0.131988  0.102399  0  0.978489  0
H  H16  1  0.04406461  0.07173640  0.71011794  1  0.126652  0  0.12356  0.083758  0  1.032053  0
H  H17  1  0.24897079  0.91946575  0.41690252  1  0.142423  0  0.118244  0.090017  0  1.022646  0
H  H18  1  0.00806629  0.36106456  0.17166947  1  0.120258  0  0.121585  0.089075  0  1.019315  0
H  H19  1  0.50832729  0.35046260  0.07209607  1  0.110536  0  0.132  0.10243  0  0.978472  0
H  H20  1  0.54406455  0.92826328  0.28988289  1  0.126672  0  0.123583  0.083817  0  1.032002  0
H  H21  1  0.74897402  0.08053402  0.58309851  1  0.142413  0  0.118243  0.090002  0  1.022617  0
H  H22  1  0.59793941  0.11643156  0.23303716  1  0.13202  0  0.131494  0.098095  0  0.987593  0
H  H23  1  0.08246415  0.15138610  0.30295796  1  0.126222  0  0.135374  0.103594  0  0.970483  0
H  H24  1  0.09793457  0.88356714  0.76695922  1  0.132084  0  0.131481  0.098124  0  0.987566  0
H  H25  1  0.58245129  0.84861560  0.69704418  1  0.126182  0  0.135371  0.103609  0  0.970416  0
C  C26  1  0.88663424  0.81026465  0.13610058  1  0.965278  0  0.123774  0.120904  0  4.024332  0
C  C27  1  0.63371524  0.76476156  0.08576954  1  0.934997  0  0.126191  0.124603  0  4.011486  0
C  C28  1  0.61030057  0.42136309  0.35846515  1  0.953299  0  0.122744  0.127424  0  4.022442  0
C  C29  1  0.71491663  0.49305974  0.50665122  1  0.975026  0  0.128646  0.143419  0  3.980256  0
C  C30  1  0.38663469  0.18973318  0.86389859  1  0.965268  0  0.123736  0.120917  0  4.024358  0
C  C31  1  0.13371330  0.23523515  0.91422911  1  0.934849  0  0.126195  0.124652  0  4.011417  0
C  C32  1  0.11029919  0.57863762  0.64153533  1  0.953292  0  0.122854  0.127604  0  4.022369  0
C  C33  1  0.21491612  0.50694401  0.49334600  1  0.974983  0  0.128667  0.143493  0  3.980058  0
C  C34  1  0.38687141  0.67421392  0.86396590  1  0.951147  0  0.123226  0.119908  0  4.024523  0
C  C35  1  0.13380522  0.67895640  0.91409933  1  0.966401  0  0.126134  0.125031  0  4.010526  0
C  C36  1  0.11061398  0.06278350  0.64140316  1  0.963655  0  0.122957  0.128532  0  4.019159  0
C  C37  1  0.21484435  0.98647772  0.49310936  1  0.962196  0  0.128093  0.142637  0  3.981971  0
C  C38  1  0.88687600  0.32578591  0.13603314  1  0.951239  0  0.123189  0.119868  0  4.024499  0
C  C39  1  0.63380716  0.32104331  0.08590088  1  0.966395  0  0.126095  0.12497  0  4.010542  0
C  C40  1  0.61061536  0.93721620  0.35859774  1  0.963195  0  0.122856  0.128315  0  4.019168  0
C  C41  1  0.71484864  0.01352003  0.50688966  1  0.962245  0  0.128088  0.142667  0  3.982035  0
C  C42  1  0.46163344  0.11332176  0.22680634  1  0.889162  0  0.120567  0.11341  0  4.040194  0
C  C43  1  0.20121762  0.13090195  0.26205393  1  0.940193  0  0.12936  0.130277  0  3.997747  0
C  C44  1  0.96162833  0.88668111  0.77319434  1  0.889011  0  0.120579  0.113475  0  4.04025  0
C  C45  1  0.70121241  0.86909881  0.73795085  1  0.940526  0  0.129313  0.130175  0  3.997866  0
Br  Br46  1  0.09859881  0.65253832  0.30561500  1  -0.632736  0  -0.315352  -0.506278  0  1.101532  0
Br  Br47  1  0.59859728  0.34745636  0.69437602  1  -0.632728  0  -0.315349  -0.506292  0  1.101568  0
N  N48  1  0.84858540  0.88792360  0.08540108  1  -0.784214  0  -0.261917  -0.205186  0  3.454012  0
N  N49  1  0.68565105  0.85869268  0.05267005  1  -0.748219  0  -0.255394  -0.208864  0  3.419703  0
N  N50  1  0.75579044  0.73066806  0.13821169  1  -1.2283  0  -0.369657  -0.341229  0  3.502504  0
N  N51  1  0.69058478  0.53455308  0.37011202  1  -0.779838  0  -0.267424  -0.212869  0  3.487458  0
N  N52  1  0.75838847  0.58081774  0.46558296  1  -0.75773  0  -0.260024  -0.204209  0  3.442619  0
N  N53  1  0.62192509  0.39096568  0.44212078  1  -1.227295  0  -0.365245  -0.330908  0  3.479544  0
N  N54  1  0.34858725  0.11207521  0.91459905  1  -0.784134  0  -0.261889  -0.205175  0  3.454115  0
N  N55  1  0.18565298  0.14130506  0.94733034  1  -0.748241  0  -0.255417  -0.208906  0  3.419774  0
N  N56  1  0.25579214  0.26933071  0.86178905  1  -1.228215  0  -0.369627  -0.341253  0  3.502435  0
N  N57  1  0.19058337  0.46544866  0.62988812  1  -0.77978  0  -0.267488  -0.212971  0  3.487563  0
N  N58  1  0.25838430  0.41918304  0.53441695  1  -0.757632  0  -0.259989  -0.204261  0  3.442472  0
N  N59  1  0.12192475  0.60903904  0.55788156  1  -1.227412  0  -0.365303  -0.330971  0  3.479552  0
N  N60  1  0.34865775  0.80258384  0.91461000  1  -0.756821  0  -0.261776  -0.204955  0  3.454811  0
N  N61  1  0.18566053  0.80603841  0.94722510  1  -0.759279  0  -0.255514  -0.208784  0  3.420066  0
N  N62  1  0.25602131  0.59246558  0.86177168  1  -1.230025  0  -0.369071  -0.34029  0  3.501719  0
N  N63  1  0.19084150  0.16440410  0.62982696  1  -0.756777  0  -0.26757  -0.213271  0  3.486508  0
N  N64  1  0.25837926  0.11530929  0.53428013  1  -0.786188  0  -0.259548  -0.203627  0  3.444093  0
N  N65  1  0.12206577  0.94880500  0.55765355  1  -1.228097  0  -0.365237  -0.332056  0  3.480254  0
N  N66  1  0.84866221  0.19741697  0.08539000  1  -0.756475  0  -0.261759  -0.204967  0  3.454794  0
N  N67  1  0.68566364  0.19396333  0.05277574  1  -0.759471  0  -0.255495  -0.208718  0  3.420013  0
N  N68  1  0.75602464  0.40753520  0.13822754  1  -1.230043  0  -0.369031  -0.340259  0  3.501697  0
N  N69  1  0.69084416  0.83559464  0.37017302  1  -0.756294  0  -0.267527  -0.213183  0  3.486401  0
N  N70  1  0.75838217  0.88469149  0.46572048  1  -0.786269  0  -0.259573  -0.203652  0  3.444145  0
N  N71  1  0.62206611  0.05119371  0.44234777  1  -1.228093  0  -0.365176  -0.331952  0  3.480331  0
N  N72  1  0.35473108  0.15339955  0.30704611  1  -1.243128  0  -0.363267  -0.336851  0  3.450419  0
N  N73  1  0.38105450  0.06907084  0.13821999  1  -0.729715  0  -0.260044  -0.210791  0  3.43794  0
N  N74  1  0.21262532  0.08033113  0.16075474  1  -0.723897  0  -0.258126  -0.201903  0  3.435514  0
N  N75  1  0.85472072  0.84660227  0.69295419  1  -1.243162  0  -0.363265  -0.336911  0  3.450232  0
N  N76  1  0.88104961  0.93092999  0.86178004  1  -0.729477  0  -0.260085  -0.210896  0  3.437964  0
N  N77  1  0.71262037  0.91966862  0.83924555  1  -0.724311  0  -0.258072  -0.201784  0  3.435514  0
