# generated using pymatgen
data_CdCu2H44C46(NO2)4
_symmetry_space_group_name_H-M   'P 1'
_cell_length_a   10.87270556
_cell_length_b   10.87269696
_cell_length_c   11.80274047
_cell_angle_alpha   69.37250047
_cell_angle_beta   69.37247158
_cell_angle_gamma   80.99085369
_symmetry_Int_Tables_number   1
_chemical_formula_structural   CdCu2H44C46(NO2)4
_chemical_formula_sum   'Cd1 Cu2 H44 C46 N4 O8'
_cell_volume   1221.26232154
_cell_formula_units_Z   1
loop_
 _symmetry_equiv_pos_site_id
 _symmetry_equiv_pos_as_xyz
  1  'x, y, z'
loop_
 _atom_site_type_symbol
 _atom_site_label
 _atom_site_symmetry_multiplicity
 _atom_site_fract_x
 _atom_site_fract_y
 _atom_site_fract_z
 _atom_site_occupancy
 _atom_site_hle17_ddec_charge
 _atom_site_hle17_ddec_spin_density
 _atom_site_hle17_ddec_sum_bond_order
 _atom_site_hle17_magmom
 _atom_site_hse06_10hf_ddec_charge
 _atom_site_hse06_10hf_ddec_spin_density
 _atom_site_hse06_10hf_ddec_sum_bond_order
 _atom_site_hse06_10hf_magmom
 _atom_site_hse06_ddec_charge
 _atom_site_hse06_ddec_spin_density
 _atom_site_hse06_ddec_sum_bond_order
 _atom_site_hse06_magmom
 _atom_site_pbe_cm5_charge
 _atom_site_pbe_ddec_charge
 _atom_site_pbe_ddec_spin_density
 _atom_site_pbe_ddec_sum_bond_order
 _atom_site_pbe_magmom
Cd  Cd0  1  0.99999977  0.00000040  0.99999916  1  1.263029  0.0  1.60339  0.0  1.093  -0.0  2.051882  0.0  1.155639  0.0  1.991365  0.0  0.780912  1.047277  1e-06  2.094029  0.0
Cu  Cu1  1  0.78098555  0.78098666  0.06052378  1  0.830657  -0.726316  1.904331  -0.49  0.810321  -0.799089  2.300985  -0.605  0.899223  -0.880664  2.229461  -0.692  0.737696  0.756972  -0.738888  2.350776  -0.548
Cu  Cu2  1  0.21901491  0.21901541  0.93947601  1  0.830552  0.726332  1.904493  0.49  0.810218  0.799079  2.301075  0.605  0.899088  0.880651  2.22958  0.692  0.737655  0.756918  0.738887  2.350861  0.548
H  H3  1  0.88175363  0.88175453  0.42516235  1  0.10204  -3e-06  0.94605  0.0  0.112999  2e-06  1.003725  0.0  0.117193  1e-06  1.000976  0.0  0.103194  0.110006  3e-06  1.005646  0.0
H  H4  1  0.11824686  0.11824655  0.57483606  1  0.102038  1.6e-05  0.946006  0.0  0.113035  -2e-06  1.003645  0.0  0.117229  -0.0  1.000895  0.0  0.103232  0.110048  -3e-06  1.005561  0.0
H  H5  1  0.12553848  0.79418182  0.17365043  1  0.109751  0.000391  0.981252  0.001  0.119151  -7e-06  1.045325  0.0  0.122363  -3e-06  1.044191  0.0  0.099121  0.116519  3e-05  1.04686  0.0
H  H6  1  0.20581710  0.87445918  0.82635153  1  0.109791  -0.000407  0.981239  -0.001  0.119187  7e-06  1.045303  0.0  0.122399  3e-06  1.044172  0.0  0.099119  0.116547  -3e-05  1.046858  0.0
H  H7  1  0.87445815  0.20581732  0.82635241  1  0.109789  -0.000405  0.981254  -0.001  0.1192  7e-06  1.045303  0.0  0.122412  3e-06  1.04417  0.0  0.09912  0.116564  -3e-05  1.046852  0.0
H  H8  1  0.79418257  0.12553700  0.17365298  1  0.109725  0.000408  0.981299  0.001  0.119149  -7e-06  1.045341  0.0  0.122362  -3e-06  1.044207  0.0  0.099125  0.116514  3e-05  1.046883  0.0
H  H9  1  0.61036911  0.61036952  0.89651278  1  0.076539  0.000412  0.924802  0.0  0.098577  0.000196  0.980569  0.0  0.099974  0.000168  0.980358  0.0  0.095279  0.097915  0.000216  0.980055  0.0
H  H10  1  0.38963230  0.38963353  0.10348553  1  0.076485  -0.000405  0.924844  0.0  0.098535  -0.000196  0.980599  0.0  0.099937  -0.000169  0.980385  0.0  0.095295  0.097877  -0.000216  0.980084  0.0
H  H11  1  0.72506622  0.72506669  0.86876000  1  0.099932  0.000162  0.968092  0.0  0.115031  7.4e-05  1.032631  0.0  0.11658  7.2e-05  1.031988  0.0  0.098629  0.113559  7.8e-05  1.033514  0.0
H  H12  1  0.27493618  0.27493636  0.13123969  1  0.099896  -0.000161  0.96803  0.0  0.114945  -7.4e-05  1.032649  0.0  0.116492  -7.2e-05  1.032009  0.0  0.098605  0.113468  -7.8e-05  1.03353  0.0
H  H13  1  0.83634407  0.83634390  0.66106298  1  0.094675  1e-06  0.964844  0.0  0.103597  6e-06  1.029892  0.0  0.107284  1e-06  1.027585  0.0  0.101455  0.100928  2e-05  1.031763  0.0
H  H14  1  0.16365645  0.16365620  0.33893490  1  0.094689  -8e-06  0.9649  0.0  0.103623  -6e-06  1.029913  0.0  0.107303  -1e-06  1.027626  0.0  0.101453  0.100953  -2e-05  1.031782  0.0
H  H15  1  0.65254719  0.47218963  0.09775475  1  0.054579  -0.002197  0.912371  -0.002  0.076438  -0.001162  0.966498  -0.001  0.075794  -0.000899  0.967116  -0.001  0.101925  0.076802  -0.001302  0.965735  -0.001
H  H16  1  0.52781235  0.34745355  0.90224407  1  0.054559  0.002197  0.912363  0.002  0.076444  0.001161  0.966485  0.001  0.075802  0.000898  0.967101  0.001  0.101915  0.076807  0.001302  0.965724  0.001
H  H17  1  0.34745327  0.52781244  0.90224420  1  0.054582  0.002194  0.912362  0.002  0.076467  0.001161  0.966482  0.001  0.075825  0.000898  0.967096  0.001  0.101925  0.076829  0.001302  0.96572  0.001
H  H18  1  0.47218913  0.65254753  0.09775486  1  0.054598  -0.002191  0.912356  -0.002  0.076456  -0.001163  0.966484  -0.001  0.075813  -0.000898  0.967101  -0.001  0.101925  0.076819  -0.001302  0.965721  -0.001
H  H19  1  0.79234585  0.49117234  0.95855210  1  0.062507  -0.001508  0.950936  -0.002  0.082391  -0.00106  1.010028  -0.001  0.080689  -0.00085  1.013501  -0.001  0.104667  0.083293  -0.001184  1.007889  -0.001
H  H20  1  0.50882906  0.20765543  0.04144669  1  0.062496  0.001511  0.950907  0.002  0.082394  0.001059  1.009998  0.001  0.080683  0.00085  1.013483  0.001  0.104661  0.083293  0.001184  1.007864  0.001
H  H21  1  0.20765461  0.50882973  0.04144685  1  0.062495  0.001516  0.950917  0.002  0.082388  0.001059  1.010022  0.001  0.080676  0.00085  1.013507  0.001  0.104661  0.083287  0.001184  1.007886  0.001
H  H22  1  0.49117143  0.79234566  0.95855341  1  0.062505  -0.001502  0.950943  -0.002  0.082387  -0.00106  1.010032  -0.001  0.080685  -0.00085  1.013506  -0.001  0.104662  0.083288  -0.001184  1.007897  -0.001
H  H23  1  0.95845262  0.34563116  0.33279032  1  0.084884  -0.000256  0.973427  0.0  0.097083  -3.7e-05  1.033734  0.0  0.09861  -1.3e-05  1.033663  0.0  0.098907  0.095845  -5.6e-05  1.034042  0.0
H  H24  1  0.65436819  0.04154778  0.66720932  1  0.084838  0.000243  0.973395  0.0  0.097037  3.7e-05  1.033718  0.0  0.098565  1.3e-05  1.033646  0.0  0.098899  0.0958  5.6e-05  1.034026  0.0
H  H25  1  0.04154895  0.65436697  0.66720870  1  0.084846  0.000243  0.973391  0.0  0.097047  3.7e-05  1.033714  0.0  0.098576  1.3e-05  1.033641  0.0  0.098903  0.095806  5.6e-05  1.03402  0.0
H  H26  1  0.34563034  0.95845331  0.33279058  1  0.084836  -0.000237  0.973426  0.0  0.09706  -3.7e-05  1.033712  0.0  0.098587  -1.3e-05  1.033641  0.0  0.098895  0.09582  -5.6e-05  1.034019  0.0
H  H27  1  0.10917085  0.39208577  0.42461423  1  0.090638  0.000254  0.951805  0.0  0.103292  -2.4e-05  1.007828  0.0  0.10573  -1.7e-05  1.008354  0.0  0.097741  0.10143  -2.9e-05  1.007645  0.0
H  H28  1  0.60791356  0.89083057  0.57538370  1  0.090651  -0.000244  0.951802  0.0  0.103296  2.4e-05  1.007831  0.0  0.105734  1.7e-05  1.008358  0.0  0.097746  0.101437  2.9e-05  1.007641  0.0
H  H29  1  0.89083167  0.60791333  0.57538416  1  0.09066  -0.000254  0.951821  0.0  0.103318  2.4e-05  1.007833  0.0  0.105756  1.8e-05  1.008359  0.0  0.097757  0.10145  2.9e-05  1.007654  0.0
H  H30  1  0.39208398  0.10917052  0.42461567  1  0.09065  0.000251  0.951764  0.0  0.103317  -2.4e-05  1.007773  0.0  0.105756  -1.7e-05  1.008295  0.0  0.09775  0.101442  -2.9e-05  1.007602  0.0
H  H31  1  0.79968570  0.31083854  0.25525514  1  0.121528  0.000587  0.93342  0.001  0.148581  4.3e-05  0.986233  0.0  0.150009  0.000122  0.985936  0.0  0.102353  0.147226  -3.1e-05  0.986815  0.0
H  H32  1  0.68916023  0.20031626  0.74474423  1  0.121519  -0.000579  0.933466  -0.001  0.148612  -4.3e-05  0.986228  0.0  0.150037  -0.000122  0.985933  0.0  0.102367  0.147256  3.1e-05  0.986811  0.0
H  H33  1  0.20031584  0.68916057  0.74474442  1  0.121523  -0.000578  0.933455  -0.001  0.148616  -4.3e-05  0.986217  0.0  0.150042  -0.000122  0.985921  0.0  0.102369  0.147258  3.1e-05  0.986798  0.0
H  H34  1  0.31083732  0.79968484  0.25525599  1  0.121557  0.000594  0.933413  0.001  0.148607  4.3e-05  0.986223  0.0  0.150033  0.000122  0.985929  0.0  0.102359  0.147251  -3.1e-05  0.986806  0.0
H  H35  1  0.96790018  0.31421024  0.16034769  1  0.141004  0.000275  0.957575  0.0  0.157463  -5.4e-05  1.021241  0.0  0.15941  -1e-05  1.021486  0.0  0.100409  0.155782  -0.000102  1.02155  0.0
H  H36  1  0.68578967  0.03210129  0.83965055  1  0.140998  -0.000269  0.957599  0.0  0.157456  5.3e-05  1.021268  0.0  0.159402  1e-05  1.021513  0.0  0.100408  0.155776  0.000102  1.021578  0.0
H  H37  1  0.03210133  0.68578985  0.83965071  1  0.141008  -0.000282  0.957579  0.0  0.157466  5.3e-05  1.021247  0.0  0.159412  1e-05  1.021493  0.0  0.100411  0.155784  0.000102  1.021557  0.0
H  H38  1  0.31420984  0.96789979  0.16034903  1  0.141023  0.000281  0.957566  0.0  0.157468  -5.3e-05  1.02125  0.0  0.159414  -1e-05  1.021496  0.0  0.100416  0.155786  -0.000102  1.02156  0.0
H  H39  1  0.84397936  0.34399952  0.08845291  1  0.122724  0.000473  0.976444  0.001  0.141616  5.9e-05  1.039192  0.0  0.144445  6.8e-05  1.038181  0.0  0.097596  0.139426  7.8e-05  1.040316  0.0
H  H40  1  0.65599989  0.15602058  0.91154520  1  0.122663  -0.000464  0.976411  -0.001  0.141564  -5.9e-05  1.039167  0.0  0.144393  -6.8e-05  1.038152  0.0  0.097568  0.139373  -7.8e-05  1.040292  0.0
H  H41  1  0.15602119  0.65599958  0.91154443  1  0.122669  -0.000454  0.976462  -0.001  0.141572  -5.8e-05  1.039212  0.0  0.144399  -6.7e-05  1.038201  0.0  0.097571  0.13938  -7.8e-05  1.040335  0.0
H  H42  1  0.34400063  0.84397952  0.08845352  1  0.122722  0.00047  0.976452  0.001  0.141632  5.9e-05  1.039167  0.0  0.144459  6.7e-05  1.038157  0.0  0.097605  0.139441  7.8e-05  1.040292  0.0
H  H43  1  0.19983126  0.61669033  0.33995273  1  0.075405  -0.000533  0.953767  -0.001  0.088228  -0.000228  1.010103  0.0  0.090574  -0.000133  1.008245  0.0  0.096031  0.086689  -0.000357  1.011211  0.0
H  H44  1  0.38330949  0.80017042  0.66004670  1  0.075392  0.000535  0.95377  0.001  0.088211  0.000227  1.010112  0.0  0.090558  0.000133  1.008253  0.0  0.096027  0.08667  0.000357  1.011217  0.0
H  H45  1  0.80017025  0.38330976  0.66004652  1  0.075397  0.000534  0.953775  0.001  0.088218  0.000227  1.010116  0.0  0.090563  0.000133  1.008257  0.0  0.09603  0.086679  0.000357  1.011223  0.0
H  H46  1  0.61668907  0.19982970  0.33995520  1  0.075384  -0.000535  0.953782  -0.001  0.088206  -0.000228  1.010121  0.0  0.090552  -0.000133  1.008262  0.0  0.096018  0.086667  -0.000356  1.011228  0.0
C  C47  1  0.94665913  0.94665991  0.77158125  1  0.649757  0.000306  3.919605  0.0  0.603416  0.000265  4.211353  0.0  0.638817  0.000198  4.203096  0.0  0.206054  0.57908  0.000221  4.21628  0.0
C  C48  1  0.05334041  0.05334020  0.22842118  1  0.649779  -0.000305  3.919503  0.0  0.603451  -0.000266  4.211245  0.0  0.638854  -0.000199  4.202983  0.0  0.206094  0.579116  -0.000221  4.216169  0.0
C  C49  1  0.97486049  0.97485945  0.63071313  1  -0.061718  5.9e-05  3.756033  0.0  -0.04022  1.3e-05  3.985672  0.0  -0.046831  2.6e-05  4.008405  0.0  -0.020139  -0.035625  3.1e-05  3.970187  0.0
C  C50  1  0.02513910  0.02513869  0.36928568  1  -0.061703  -5.6e-05  3.756101  0.0  -0.040253  -1.7e-05  3.985788  0.0  -0.046868  -2.5e-05  4.008522  0.0  -0.020146  -0.035656  -3.1e-05  3.970299  0.0
C  C51  1  0.99777020  0.67323104  0.15859436  1  0.341854  0.007879  3.849749  0.011  0.329214  0.000462  4.112713  0.002  0.349451  0.001219  4.128403  0.003  0.084131  0.315549  -0.000501  4.101754  0.002
C  C52  1  0.32676895  0.00222745  0.84140776  1  0.341865  -0.007868  3.849727  -0.011  0.329234  -0.000451  4.112707  -0.002  0.349471  -0.001217  4.128396  -0.003  0.084153  0.31557  0.000502  4.101752  -0.002
C  C53  1  0.00222642  0.32676811  0.84140848  1  0.34182  -0.007871  3.849759  -0.011  0.329179  -0.000447  4.112744  -0.002  0.349414  -0.001218  4.128435  -0.003  0.08416  0.315516  0.000502  4.101792  -0.002
C  C54  1  0.67323165  0.99777070  0.15859497  1  0.341889  0.007872  3.849736  0.011  0.329286  0.000455  4.112703  0.002  0.34952  0.001224  4.128397  0.003  0.084177  0.31562  -0.000501  4.101747  0.002
C  C55  1  0.93264569  0.93264497  0.45946365  1  -0.082045  9.2e-05  3.754802  0.0  -0.102719  6e-05  3.997204  0.0  -0.103816  3.6e-05  4.017471  0.0  -0.088115  -0.101328  -7e-06  3.982932  0.0
C  C56  1  0.06735581  0.06735512  0.54053306  1  -0.082078  -0.00014  3.754624  0.0  -0.102804  -6e-05  3.99703  0.0  -0.103904  -3.6e-05  4.017296  0.0  -0.088191  -0.10142  7e-06  3.982757  0.0
C  C57  1  0.09067214  0.69492729  0.20820788  1  -0.210196  -0.017075  3.736223  -0.016  -0.230938  -0.005456  3.98969  -0.006  -0.240028  -0.004078  4.009518  -0.005  -0.117107  -0.22477  -0.006742  3.97674  -0.007
C  C58  1  0.30507190  0.90932679  0.79179441  1  -0.210246  0.017114  3.736262  0.016  -0.230982  0.005455  3.989736  0.006  -0.240072  0.004078  4.009566  0.005  -0.117097  -0.224814  0.006742  3.97678  0.007
C  C59  1  0.90932547  0.30507185  0.79179464  1  -0.210221  0.017112  3.736277  0.016  -0.23096  0.005456  3.989739  0.006  -0.240049  0.004074  4.009567  0.005  -0.117097  -0.224791  0.006741  3.976791  0.007
C  C60  1  0.69492774  0.09067037  0.20820895  1  -0.210183  -0.017131  3.736251  -0.016  -0.230937  -0.005456  3.989706  -0.006  -0.240027  -0.004081  4.009535  -0.005  -0.117108  -0.224771  -0.006741  3.976759  -0.007
C  C61  1  0.86957508  0.50528485  0.14477347  1  0.343849  0.017131  3.658892  0.017  0.340605  0.003516  3.914384  0.004  0.362239  0.005003  3.926118  0.006  0.148851  0.326026  0.002293  3.906696  0.003
C  C62  1  0.49471427  0.13042592  0.85522698  1  0.343879  -0.017122  3.658972  -0.017  0.340658  -0.003507  3.914433  -0.004  0.362288  -0.005005  3.926169  -0.006  0.148862  0.326081  -0.002293  3.906751  -0.003
C  C63  1  0.13042545  0.49471525  0.85522778  1  0.343887  -0.017125  3.658907  -0.017  0.340613  -0.003506  3.91442  -0.004  0.362252  -0.005002  3.926145  -0.006  0.148837  0.326037  -0.002293  3.906734  -0.003
C  C64  1  0.50528524  0.86957518  0.14477429  1  0.343782  0.017139  3.659121  0.017  0.340647  0.003517  3.914478  0.004  0.362335  0.005003  3.926132  0.006  0.148856  0.326072  0.002293  3.90679  0.003
C  C65  1  0.95172849  0.54284143  0.20148262  1  -0.166064  -0.012823  3.751945  -0.014  -0.15634  -0.003728  3.996288  -0.005  -0.171419  -0.002768  4.022595  -0.004  -0.041197  -0.146443  -0.004501  3.978621  -0.006
C  C66  1  0.45715903  0.04827030  0.79851895  1  -0.166076  0.012821  3.751968  0.014  -0.156394  0.003719  3.996354  0.005  -0.171473  0.002772  4.022667  0.004  -0.041222  -0.146501  0.004501  3.978696  0.006
C  C67  1  0.04827105  0.45715868  0.79851811  1  -0.166095  0.012823  3.752014  0.014  -0.156357  0.003712  3.996361  0.005  -0.171438  0.002775  4.022672  0.004  -0.041208  -0.146463  0.004501  3.978698  0.006
C  C68  1  0.54284159  0.95172685  0.20148155  1  -0.166064  -0.012807  3.752074  -0.014  -0.15644  -0.00372  3.996483  -0.005  -0.171538  -0.002778  4.02278  -0.004  -0.041247  -0.146548  -0.004501  3.978819  -0.006
C  C69  1  0.65395576  0.65395580  0.94423011  1  -0.177058  -0.002577  3.71704  -0.003  -0.227548  -0.002237  3.985618  -0.003  -0.230698  -0.001546  3.998071  -0.002  -0.174779  -0.225177  -0.002826  3.976969  -0.004
C  C70  1  0.34604663  0.34604724  0.05576873  1  -0.176895  0.002559  3.717023  0.003  -0.227371  0.002237  3.985678  0.003  -0.230522  0.001547  3.998133  0.002  -0.174802  -0.224999  0.002825  3.977026  0.004
C  C71  1  0.90780887  0.90780766  0.58934296  1  -0.08663  3.4e-05  3.766486  0.0  -0.106207  3.2e-05  4.013255  0.0  -0.107443  1.3e-05  4.033676  0.0  -0.089538  -0.105406  2e-06  3.999388  0.0
C  C72  1  0.09219168  0.09219145  0.41065438  1  -0.086685  -4e-06  3.766508  0.0  -0.106252  -2.2e-05  4.013325  0.0  -0.107489  -1.4e-05  4.033742  0.0  -0.089542  -0.105449  -2e-06  3.999457  0.0
C  C73  1  0.72444474  0.54366907  0.02218810  1  0.039945  -0.001718  3.682571  0.0  -0.009832  -0.002098  3.943712  -0.001  -0.004523  -0.000918  3.959169  0.0  -0.070337  -0.012854  -0.002999  3.93338  -0.002
C  C74  1  0.45633107  0.27555707  0.97781097  1  0.039967  0.001719  3.682503  0.0  -0.009862  0.002101  3.943699  0.001  -0.004548  0.00092  3.959158  0.0  -0.070324  -0.012884  0.002999  3.933367  0.002
C  C75  1  0.27555673  0.45633201  0.97781083  1  0.03994  0.001717  3.682495  0.0  -0.009892  0.0021  3.943702  0.001  -0.004577  0.000921  3.959161  0.0  -0.070338  -0.01291  0.002999  3.933367  0.002
C  C76  1  0.54366936  0.72444598  0.02218767  1  0.039913  -0.001741  3.682553  0.0  -0.009873  -0.002095  3.943712  -0.001  -0.004563  -0.000919  3.959171  0.0  -0.070345  -0.012893  -0.003  3.933377  -0.002
C  C77  1  0.99468974  0.44449343  0.29732665  1  -0.070955  0.009172  3.780711  0.009  -0.091892  0.001424  4.030362  0.001  -0.088668  0.00162  4.053323  0.002  -0.093157  -0.0936  0.001126  4.014517  0.001
C  C78  1  0.55550514  0.00530842  0.70267485  1  -0.070884  -0.009148  3.780587  -0.009  -0.091807  -0.001416  4.030225  -0.001  -0.08859  -0.001621  4.053201  -0.002  -0.093152  -0.093516  -0.001126  4.014385  -0.001
C  C79  1  0.00530888  0.55550471  0.70267418  1  -0.070858  -0.009166  3.78063  -0.009  -0.091802  -0.001417  4.030271  -0.001  -0.088583  -0.001619  4.053239  -0.002  -0.093143  -0.093507  -0.001126  4.014422  -0.001
C  C80  1  0.44449351  0.99468875  0.29732798  1  -0.070895  0.00913  3.780666  0.009  -0.091836  0.001419  4.030334  0.001  -0.088614  0.001624  4.053304  0.002  -0.093134  -0.093543  0.001127  4.01448  0.001
C  C81  1  0.08113439  0.46933215  0.34855176  1  -0.117649  -0.011216  3.830541  -0.01  -0.136744  -0.001304  4.092361  -0.001  -0.144594  -0.001058  4.117448  -0.001  -0.114803  -0.131331  -0.001431  4.074724  -0.001
C  C82  1  0.53066612  0.91886522  0.65144884  1  -0.117689  0.011196  3.830518  0.01  -0.136776  0.001301  4.092336  0.001  -0.144629  0.001058  4.117425  0.001  -0.114797  -0.131366  0.001431  4.074694  0.001
C  C83  1  0.91886619  0.53066598  0.65144758  1  -0.117697  0.011233  3.830569  0.01  -0.136795  0.001305  4.092383  0.001  -0.144649  0.001053  4.117474  0.001  -0.11481  -0.131377  0.001431  4.074746  0.001
C  C84  1  0.46933149  0.08113392  0.34855284  1  -0.117662  -0.011202  3.830486  -0.01  -0.136775  -0.001306  4.092308  -0.001  -0.144625  -0.001059  4.117393  -0.001  -0.114803  -0.131351  -0.001431  4.074669  -0.001
C  C85  1  0.87083761  0.36108436  0.16231295  1  -0.383649  -0.010972  3.667287  -0.012  -0.465299  -0.006402  3.901096  -0.007  -0.471135  -0.004748  3.906272  -0.006  -0.239975  -0.460962  -0.00756  3.89788  -0.008
C  C86  1  0.63891646  0.12916287  0.83768537  1  -0.383623  0.010935  3.667305  0.012  -0.465317  0.006402  3.901126  0.007  -0.471152  0.00475  3.906304  0.006  -0.240001  -0.460983  0.00756  3.897913  0.008
C  C87  1  0.12916288  0.63891672  0.83768546  1  -0.383614  0.010937  3.667313  0.012  -0.465294  0.0064  3.901139  0.007  -0.471133  0.004749  3.906315  0.006  -0.239989  -0.460961  0.00756  3.897922  0.008
C  C88  1  0.36108407  0.87083723  0.16231420  1  -0.383696  -0.010993  3.667344  -0.012  -0.465367  -0.006404  3.901137  -0.007  -0.471218  -0.00475  3.906297  -0.006  -0.240006  -0.461032  -0.00756  3.897923  -0.008
C  C89  1  0.13073051  0.59566050  0.30140478  1  -0.035065  0.009378  3.823723  0.008  -0.051359  0.001035  4.080472  0.001  -0.047637  0.001381  4.100904  0.001  -0.093019  -0.053764  0.000745  4.065819  0.0
C  C90  1  0.40433801  0.86926909  0.69859577  1  -0.035022  -0.009396  3.823759  -0.008  -0.051316  -0.001034  4.080506  -0.001  -0.047592  -0.001379  4.100936  -0.001  -0.093025  -0.053719  -0.000745  4.065846  0.0
C  C91  1  0.86926910  0.40433764  0.69859657  1  -0.035055  -0.009403  3.823813  -0.008  -0.051351  -0.001038  4.080565  -0.001  -0.047628  -0.001373  4.100998  -0.001  -0.093038  -0.053756  -0.000745  4.065912  0.0
C  C92  1  0.59566054  0.13073102  0.30140528  1  -0.035044  0.009408  3.823641  0.008  -0.051342  0.001038  4.080401  0.001  -0.047619  0.001381  4.100832  0.001  -0.093021  -0.053747  0.000745  4.065744  0.0
N  N93  1  0.79926484  0.59060598  0.08053596  1  -0.37973  -0.096894  3.150174  -0.114  -0.338155  -0.063314  3.455305  -0.081  -0.371486  -0.053999  3.468955  -0.073  -0.367544  -0.318781  -0.067723  3.44842  -0.084
N  N94  1  0.40939302  0.20073551  0.91946395  1  -0.37973  0.096886  3.150266  0.114  -0.338123  0.06331  3.455371  0.081  -0.37144  0.054001  3.46901  0.073  -0.36748  -0.318758  0.067723  3.448503  0.084
N  N95  1  0.20073572  0.40939314  0.91946392  1  -0.37976  0.096886  3.150235  0.114  -0.338138  0.063309  3.455356  0.081  -0.371459  0.053995  3.468994  0.073  -0.367494  -0.318775  0.067721  3.448489  0.084
N  N96  1  0.59060554  0.79926460  0.08053625  1  -0.379696  -0.096892  3.150193  -0.114  -0.338137  -0.063317  3.455271  -0.081  -0.371486  -0.053999  3.4689  -0.073  -0.367535  -0.318764  -0.067724  3.448385  -0.084
O  O97  1  0.01129043  0.01129045  0.80259218  1  -0.658349  0.000323  2.036081  0.0  -0.587702  0.000197  2.288596  0.0  -0.616974  0.000111  2.27625  0.0  -0.328891  -0.565764  0.000242  2.296057  0.0
O  O98  1  0.98871199  0.98871160  0.19740444  1  -0.658372  -0.000316  2.036094  0.0  -0.587714  -0.000195  2.288595  0.0  -0.616989  -0.000113  2.276249  0.0  -0.328868  -0.565778  -0.000242  2.296052  0.0
O  O99  1  0.96060915  0.77162081  0.07162608  1  -0.615006  -0.083547  2.204785  -0.105  -0.567965  -0.054773  2.50334  -0.076  -0.612846  -0.042747  2.498892  -0.063  -0.345901  -0.537473  -0.062061  2.506013  -0.083
O  O100  1  0.22837917  0.03938996  0.92837477  1  -0.614968  0.083551  2.204745  0.105  -0.567934  0.054772  2.503308  0.076  -0.612801  0.042749  2.498847  0.063  -0.345893  -0.537447  0.062062  2.505981  0.083
O  O101  1  0.03938846  0.22837832  0.92837560  1  -0.614974  0.08354  2.204762  0.105  -0.567938  0.054772  2.503368  0.076  -0.612807  0.042747  2.498911  0.063  -0.345907  -0.537453  0.062061  2.506044  0.083
O  O102  1  0.77161943  0.96060917  0.07162659  1  -0.615028  -0.083539  2.20476  -0.105  -0.567969  -0.054773  2.50335  -0.076  -0.612847  -0.042745  2.498905  -0.063  -0.345917  -0.537474  -0.062059  2.506018  -0.083
O  O103  1  0.86198985  0.86198931  0.84686867  1  -0.639963  0.001024  2.077949  0.0  -0.597091  0.000693  2.339647  0.0  -0.625043  0.00085  2.326754  0.0  -0.328645  -0.577963  0.000793  2.348684  0.0
O  O104  1  0.13801067  0.13801079  0.15313005  1  -0.639966  -0.001028  2.077837  0.0  -0.597085  -0.000696  2.339518  0.0  -0.625032  -0.000848  2.326616  0.0  -0.328715  -0.577971  -0.000793  2.34857  0.0
