# generated using pymatgen
data_ZnH11C27NO22
_symmetry_space_group_name_H-M   'P 1'
_cell_length_a   14.59717548
_cell_length_b   15.95807924
_cell_length_c   16.89939484
_cell_angle_alpha   90.10244768
_cell_angle_beta   96.46512936
_cell_angle_gamma   89.45033834
_symmetry_Int_Tables_number   1
_chemical_formula_structural   ZnH11C27NO22
_chemical_formula_sum   'Zn2 H22 C54 N2 O44'
_cell_volume   3911.37826555
_cell_formula_units_Z   2
loop_
 _symmetry_equiv_pos_site_id
 _symmetry_equiv_pos_as_xyz
  1  'x, y, z'
loop_
 _atom_site_type_symbol
 _atom_site_label
 _atom_site_symmetry_multiplicity
 _atom_site_fract_x
 _atom_site_fract_y
 _atom_site_fract_z
 _atom_site_occupancy
 _atom_site_pbe_bader_charge
 _atom_site_pbe_bader_spin_density
 _atom_site_pbe_cm5_charge
 _atom_site_pbe_ddec_charge
 _atom_site_pbe_ddec_spin_density
 _atom_site_pbe_ddec_sum_bond_order
 _atom_site_pbe_magmom
Zn  Zn0  1  0.39992356  0.49643968  0.50792118  1  1.333381  0  0.696911  0.908735  0  2.402478  0
Zn  Zn1  1  0.59475649  0.50074349  0.49340154  1  1.330393  0  0.695592  0.908423  0  2.415418  0
H  H2  1  0.50795707  0.74734740  0.34719009  1  0.628703  0  0.339715  0.378224  0  0.873085  0
H  H3  1  0.32067708  0.64199126  0.94536238  1  0.627232  0  0.355112  0.392765  0  0.835309  0
H  H4  1  0.29630943  0.35572191  0.98953729  1  0.637343  0  0.357851  0.398175  0  0.828374  0
H  H5  1  0.71522851  0.60646558  0.01672752  1  0.605059  0  0.35301  0.392676  0  0.834458  0
H  H6  1  0.43628464  0.28966993  0.85164465  1  0.645021  0  0.310575  0.359957  0  0.959176  0
H  H7  1  0.57091002  0.67974065  0.14302468  1  0.660382  0  0.30977  0.359831  0  0.958845  0
H  H8  1  0.71731689  0.13834145  0.66448726  1  0.646036  0  0.35828  0.396519  0  0.829286  0
H  H9  1  0.37058667  0.86321011  0.28541175  1  0.613381  0  0.357827  0.398695  0  0.827976  0
H  H10  1  0.49100919  0.98437361  0.68778082  1  0.640111  0  0.317482  0.365412  0  0.924757  0
H  H11  1  0.55931556  0.99318952  0.32431443  1  0.60911  0  0.336883  0.373014  0  0.876592  0
H  H12  1  0.71782781  0.97101474  0.48709286  1  0.610518  0  0.34243  0.372931  0  0.866538  0
H  H13  1  0.46247531  0.25448921  0.63159933  1  0.631342  0  0.346408  0.384924  0  0.850377  0
H  H14  1  0.28693332  0.02986709  0.46235416  1  0.643557  0  0.320037  0.364502  0  0.919272  0
H  H15  1  0.81822106  0.57893922  0.69569240  1  0.687228  0  0.314687  0.385993  0  0.943593  0
H  H16  1  0.17331372  0.41812847  0.30805768  1  0.674314  0  0.316262  0.39027  0  0.937139  0
H  H17  1  0.00978467  0.39391488  0.65780227  1  0.650693  0  0.316211  0.367091  0  0.932738  0
H  H18  1  0.98434951  0.60660316  0.34695355  1  0.656347  0  0.316725  0.3688  0  0.92974  0
H  H19  1  0.16960771  0.72681306  0.56487981  1  0.617376  0  0.362806  0.402588  0  0.822016  0
H  H20  1  0.82227498  0.27527039  0.44105285  1  0.628567  0  0.359286  0.403924  0  0.820576  0
H  H21  1  0.64712480  0.65852979  0.66599382  1  0.629627  0  0.355139  0.399891  0  0.824679  0
H  H22  1  0.33623677  0.32631200  0.33710597  1  0.634214  0  0.358643  0.401401  0  0.818023  0
H  H23  1  0.64489432  0.37343538  0.14961391  1  0.624956  0  0.354789  0.39306  0  0.834067  0
C  C24  1  0.50429355  0.33919120  0.47414137  1  1.74088  0  0.217493  0.663225  0  4.262388  0
C  C25  1  0.58873419  0.96687023  0.50143392  1  0.614291  0  0.089729  0.206775  0  3.772152  0
C  C26  1  0.50370526  0.08508358  0.49279220  1  0.066168  0  0.00472  0.018517  0  3.802959  0
C  C27  1  0.50135048  0.91288540  0.51165922  1  0.098946  0  0.004863  0.019583  0  3.791822  0
C  C28  1  0.50602661  0.17266978  0.48303130  1  -0.566087  0  -0.040765  -0.031426  0  4.101505  0
C  C29  1  0.49887434  0.82508222  0.51800005  1  -0.504271  0  -0.042338  -0.036283  0  4.106297  0
C  C30  1  0.01702892  0.43520596  0.55470280  1  0.713389  0  0.117269  0.285761  0  3.740706  0
C  C31  1  0.97729008  0.56506946  0.45005148  1  0.709678  0  0.117431  0.286556  0  3.740267  0
C  C32  1  0.96053775  0.51541925  0.57163250  1  0.022461  0  0.007095  -0.120332  0  3.685174  0
C  C33  1  0.03370279  0.48483885  0.43306972  1  0.013882  0  0.007239  -0.120327  0  3.68665  0
C  C34  1  0.96164617  0.42773214  0.46756954  1  0.018412  0  0.017503  -0.088233  0  3.587112  0
C  C35  1  0.49631684  0.65843468  0.52383945  1  1.65701  0  0.217956  0.662131  0  4.260808  0
C  C36  1  0.03261774  0.57253035  0.53719947  1  0.011117  0  0.017541  -0.08804  0  3.585176  0
C  C37  1  0.90289119  0.50769674  0.48753584  1  0.085723  0  0.020447  -0.029544  0  3.744456  0
C  C38  1  0.09147667  0.49260158  0.51716820  1  0.066576  0  0.022212  -0.026539  0  3.738539  0
C  C39  1  0.44645570  0.52828866  0.35116756  1  1.656  0  0.213416  0.596868  0  4.198391  0
C  C40  1  0.54308458  0.46403258  0.64929162  1  1.610216  0  0.213566  0.5972  0  4.207504  0
C  C41  1  0.80596138  0.51292969  0.47641819  1  0.928522  0  0.240257  0.333541  0  3.928881  0
C  C42  1  0.18848124  0.48722440  0.52716289  1  0.926965  0  0.241187  0.331347  0  3.924321  0
C  C43  1  0.43667320  0.53332781  0.26138621  1  -0.015443  0  0.010006  -0.003001  0  3.888722  0
C  C44  1  0.55749293  0.45062956  0.73836507  1  0.042773  0  0.014059  0.005751  0  3.874824  0
C  C45  1  0.48370772  0.59509754  0.22215852  1  0.090205  0  -0.025315  -0.199728  0  3.957182  0
C  C46  1  0.47093438  0.98154346  0.57487218  1  0.645497  0  0.094272  0.21573  0  3.75123  0
C  C47  1  0.51495010  0.38392865  0.77480182  1  0.0148  0  -0.022268  -0.198922  0  3.941709  0
C  C48  1  0.49549289  0.58428428  0.14076823  1  0.563018  0  0.110776  0.291674  0  4.012226  0
C  C49  1  0.51131913  0.38539572  0.85826511  1  0.626334  0  0.117407  0.302922  0  4.003052  0
C  C50  1  0.45279318  0.51657831  0.09719639  1  0.071401  0  -0.003434  -0.013397  0  3.934811  0
C  C51  1  0.55560155  0.45002645  0.90498014  1  0.075943  0  0.000427  -0.019351  0  3.943125  0
C  C52  1  0.39712058  0.46229419  0.13470608  1  0.020812  0  0.005187  -0.057543  0  3.917331  0
C  C53  1  0.60666648  0.50941219  0.86912521  1  0.063315  0  0.009075  -0.049629  0  3.91056  0
C  C54  1  0.39098361  0.46930061  0.21725398  1  0.01932  0  -0.004913  -0.088646  0  3.93126  0
C  C55  1  0.60613848  0.51079394  0.78558871  1  0.042696  0  -0.00609  -0.089715  0  3.928999  0
C  C56  1  0.47127134  0.50588169  0.01307953  1  0.058049  0  0.013408  -0.045436  0  3.849683  0
C  C57  1  0.53274043  0.01771837  0.43139559  1  0.607686  0  0.088869  0.20523  0  3.781565  0
C  C58  1  0.53946354  0.45617600  0.99018824  1  0.043123  0  0.01993  -0.036445  0  3.85517  0
C  C59  1  0.51807889  0.67340540  0.26022286  1  1.466709  0  0.234432  0.597832  0  4.0958  0
C  C60  1  0.47338405  0.31158003  0.73101912  1  1.490884  0  0.237506  0.600103  0  4.097218  0
C  C61  1  0.07248391  0.65022953  0.57583829  1  1.560967  0  0.235397  0.586425  0  4.141641  0
C  C62  1  0.92103273  0.35003820  0.42960382  1  1.554106  0  0.234316  0.584567  0  4.144907  0
C  C63  1  0.66111580  0.57431668  0.74702896  1  1.526928  0  0.252365  0.620209  0  4.10664  0
C  C64  1  0.33087425  0.41086044  0.25716156  1  1.539261  0  0.253696  0.627931  0  4.104294  0
C  C65  1  0.60253294  0.40067084  0.04353279  1  1.519253  0  0.23136  0.574388  0  4.115195  0
C  C66  1  0.40840655  0.55425368  0.95238835  1  1.497786  0  0.234118  0.573375  0  4.107488  0
C  C67  1  0.35084634  0.38954969  0.09155395  1  1.542041  0  0.235383  0.580171  0  4.12189  0
C  C68  1  0.55828101  0.03385056  0.56411272  1  -0.035347  0  -0.017951  -0.206531  0  3.714218  0
C  C69  1  0.65260403  0.57992898  0.91598047  1  1.4965  0  0.235112  0.580968  0  4.117423  0
C  C70  1  0.61607375  0.06750277  0.63375989  1  1.505799  0  0.2347  0.603857  0  4.128996  0
C  C71  1  0.37760013  0.92960104  0.37959443  1  1.498399  0  0.238162  0.610704  0  4.111382  0
C  C72  1  0.91956973  0.52290923  0.64860537  1  1.601678  0  0.242889  0.609536  0  4.127031  0
C  C73  1  0.07398825  0.47665439  0.35586713  1  1.608268  0  0.241722  0.607948  0  4.129041  0
C  C74  1  0.44392265  0.96536385  0.44216915  1  -0.015331  0  -0.017846  -0.209133  0  3.740193  0
C  C75  1  0.50585711  0.24851088  0.47518318  1  0.248262  0  -0.042856  -0.180005  0  3.969462  0
C  C76  1  0.49607693  0.74906503  0.52346733  1  0.224497  0  -0.042594  -0.17593  0  3.962236  0
C  C77  1  0.41400530  0.03051105  0.50323102  1  0.634485  0  0.092017  0.217197  0  3.751425  0
N  N78  1  0.72593470  0.51501577  0.46948996  1  -1.186853  0  -0.28621  -0.308153  0  3.122106  0
N  N79  1  0.26840030  0.48460826  0.53179452  1  -1.155421  0  -0.282207  -0.300928  0  3.11809  0
O  O80  1  0.42641030  0.37299698  0.48230526  1  -1.14256  0  -0.314512  -0.563679  0  2.299982  0
O  O81  1  0.48107890  0.69426691  0.32689453  1  -1.122029  0  -0.315269  -0.450321  0  2.300581  0
O  O82  1  0.42297776  0.26049515  0.76046594  1  -1.137715  0  -0.289869  -0.495123  0  2.091199  0
O  O83  1  0.49736224  0.30138345  0.65715016  1  -1.124891  0  -0.313288  -0.451901  0  2.314275  0
O  O84  1  0.03440776  0.37305431  0.60826342  1  -1.146725  0  -0.353909  -0.445277  0  2.233854  0
O  O85  1  0.95962444  0.62722154  0.39644565  1  -1.163497  0  -0.355102  -0.448369  0  2.231236  0
O  O86  1  0.04504829  0.68426349  0.63332171  1  -1.104316  0  -0.276122  -0.456684  0  2.045348  0
O  O87  1  0.14366438  0.67668788  0.53751547  1  -1.095372  0  -0.321951  -0.47398  0  2.208576  0
O  O88  1  0.94779517  0.31480862  0.37245180  1  -1.102989  0  -0.276869  -0.45703  0  2.047508  0
O  O89  1  0.84928288  0.32507574  0.46815254  1  -1.106147  0  -0.323637  -0.480491  0  2.209671  0
O  O90  1  0.74611797  0.57466419  0.75724769  1  -1.112293  0  -0.275489  -0.497257  0  2.190638  0
O  O91  1  0.57559212  0.62354809  0.52607206  1  -1.139056  0  -0.314583  -0.562071  0  2.290737  0
O  O92  1  0.60884492  0.62639675  0.69905039  1  -1.115189  0  -0.305087  -0.44178  0  2.276721  0
O  O93  1  0.24613472  0.41601363  0.24594789  1  -1.117515  0  -0.274569  -0.497905  0  2.181689  0
O  O94  1  0.37839411  0.35655303  0.30622507  1  -1.114651  0  -0.305279  -0.445134  0  2.276174  0
O  O95  1  0.65116407  0.34711503  0.01726575  1  -1.103107  0  -0.281987  -0.461985  0  2.046861  0
O  O96  1  0.60164126  0.41448900  0.12285388  1  -1.118235  0  -0.324354  -0.475707  0  2.257104  0
O  O97  1  0.39867624  0.54283950  0.88058875  1  -1.080477  0  -0.270834  -0.456932  0  2.102762  0
O  O98  1  0.35992491  0.61374780  0.98828957  1  -1.103981  0  -0.329904  -0.475441  0  2.225273  0
O  O99  1  0.34211922  0.32117677  0.12197151  1  -1.118465  0  -0.280688  -0.466018  0  2.065783  0
O  O100  1  0.31935814  0.40781179  0.01498626  1  -1.124981  0  -0.317514  -0.469487  0  2.268589  0
O  O101  1  0.65392965  0.65186419  0.89173519  1  -1.105553  0  -0.281592  -0.466045  0  2.059819  0
O  O102  1  0.57987815  0.37553787  0.46712070  1  -1.1343  0  -0.308644  -0.528711  0  2.251909  0
O  O103  1  0.69284044  0.55552350  0.98871091  1  -1.089688  0  -0.322281  -0.472417  0  2.253916  0
O  O104  1  0.46454407  0.32841659  0.89517536  1  -1.145494  0  -0.333575  -0.427514  0  2.288718  0
O  O105  1  0.54652292  0.63657682  0.10224048  1  -1.153458  0  -0.335322  -0.431489  0  2.301095  0
O  O106  1  0.60491713  0.04966886  0.70280013  1  -1.118325  0  -0.27936  -0.48573  0  2.056425  0
O  O107  1  0.68359243  0.11866993  0.61444617  1  -1.135323  0  -0.327192  -0.475786  0  2.200061  0
O  O108  1  0.29381381  0.93946970  0.37580487  1  -1.126782  0  -0.276375  -0.476682  0  2.044057  0
O  O109  1  0.41937912  0.88455928  0.32482544  1  -1.111117  0  -0.328319  -0.497625  0  2.223597  0
O  O110  1  0.44238861  0.96424737  0.64696597  1  -1.145922  0  -0.367112  -0.447803  0  2.232755  0
O  O111  1  0.56278780  0.04107576  0.36055848  1  -1.120448  0  -0.365519  -0.459483  0  2.236535  0
O  O112  1  0.67365067  0.92961145  0.50123744  1  -1.12177  0  -0.361068  -0.452281  0  2.246146  0
O  O113  1  0.41851562  0.62304607  0.52042672  1  -1.134063  0  -0.305497  -0.527255  0  2.263555  0
O  O114  1  0.32701248  0.06352695  0.50059447  1  -1.160342  0  -0.369967  -0.453749  0  2.228086  0
O  O115  1  0.94601185  0.47487358  0.70398036  1  -1.121733  0  -0.277893  -0.479746  0  2.052916  0
O  O116  1  0.85361099  0.57988768  0.64680045  1  -1.168766  0  -0.313706  -0.465396  0  2.280315  0
O  O117  1  0.04762391  0.52449521  0.30032275  1  -1.119963  0  -0.278464  -0.480718  0  2.051008  0
O  O118  1  0.13904901  0.41879184  0.35746439  1  -1.168521  0  -0.314694  -0.468053  0  2.280814  0
O  O119  1  0.37468298  0.51909827  0.38585485  1  -1.150202  0  -0.308614  -0.534284  0  2.287825  0
O  O120  1  0.61361231  0.46627342  0.61176233  1  -1.156417  0  -0.312801  -0.542439  0  2.295545  0
O  O121  1  0.52961672  0.52871097  0.38243545  1  -1.157217  0  -0.312161  -0.554006  0  2.35413  0
O  O122  1  0.45971635  0.47628596  0.62191568  1  -1.150226  0  -0.307888  -0.540744  0  2.336698  0
O  O123  1  0.57233289  0.72076940  0.23060075  1  -1.137352  0  -0.295303  -0.502073  0  2.088479  0
