# generated using pymatgen
data_AlH24C45(ClO2)3
_symmetry_space_group_name_H-M   'P 1'
_cell_length_a   3.96841972
_cell_length_b   23.57839566
_cell_length_c   23.54883202
_cell_angle_alpha   60.07766066
_cell_angle_beta   87.72293818
_cell_angle_gamma   87.51788173
_symmetry_Int_Tables_number   1
_chemical_formula_structural   AlH24C45(ClO2)3
_chemical_formula_sum   'Al1 H24 C45 Cl3 O6'
_cell_volume   1907.51659466
_cell_formula_units_Z   1
loop_
 _symmetry_equiv_pos_site_id
 _symmetry_equiv_pos_as_xyz
  1  'x, y, z'
loop_
 _atom_site_type_symbol
 _atom_site_label
 _atom_site_symmetry_multiplicity
 _atom_site_fract_x
 _atom_site_fract_y
 _atom_site_fract_z
 _atom_site_occupancy
 _atom_site_pbe_bader_charge
 _atom_site_pbe_bader_spin_density
 _atom_site_pbe_cm5_charge
 _atom_site_pbe_ddec_charge
 _atom_site_pbe_ddec_spin_density
 _atom_site_pbe_ddec_sum_bond_order
 _atom_site_pbe_magmom
Al  Al0  1  0.99997506  0.49993317  0.49981200  1  2.502858  0  0.425914  1.5954  0  2.569117  0
H  H1  1  0.49200569  0.32127878  0.67764547  1  0.058559  0  0.107966  0.11073  0  0.976857  0
H  H2  1  0.48838613  0.25711978  0.79816335  1  0.117213  0  0.084796  0.087576  0  1.06282  0
H  H3  1  0.82633065  0.16333662  0.01654561  1  0.084799  0  0.100183  0.112003  0  1.012319  0
H  H4  1  0.44515738  0.68556640  0.31524122  1  0.03983  0  0.106621  0.107535  0  0.985486  0
H  H5  1  0.50147835  0.80537486  0.25842817  1  0.061294  0  0.097651  0.093423  0  1.014247  0
H  H6  1  0.24709395  0.89357636  0.23118339  1  0.060373  0  0.101466  0.101236  0  1.009051  0
H  H7  1  0.24344315  0.01273656  0.16685962  1  0.072052  0  0.100061  0.102206  0  1.003601  0
H  H8  1  0.51102347  0.10634066  0.10494506  1  0.056922  0  0.098947  0.098843  0  1.024805  0
H  H9  1  0.51869551  0.67715034  0.50096966  1  0.057159  0  0.108145  0.111163  0  0.978104  0
H  H10  1  0.50915700  0.79730895  0.44540914  1  0.062462  0  0.085013  0.088318  0  1.066399  0
H  H11  1  0.80737331  0.01624828  0.31759918  1  0.074266  0  0.100553  0.112449  0  1.014644  0
H  H12  1  0.52300313  0.31555884  0.49900219  1  0.04139  0  0.106641  0.108041  0  0.984416  0
H  H13  1  0.58039415  0.25835641  0.43516565  1  0.058487  0  0.097549  0.092778  0  1.013413  0
H  H14  1  0.28449180  0.23339927  0.37762819  1  0.043568  0  0.101413  0.101144  0  1.007952  0
H  H15  1  0.26346067  0.16909095  0.32245837  1  0.084396  0  0.10051  0.103073  0  1.003115  0
H  H16  1  0.53534817  0.10524919  0.28792944  1  0.020869  0  0.099219  0.09893  0  1.025711  0
H  H17  1  0.55425061  0.50095861  0.32015406  1  0.054145  0  0.107933  0.110099  0  0.97833  0
H  H18  1  0.55093120  0.44444275  0.25604681  1  0.093643  0  0.086689  0.089753  0  1.056399  0
H  H19  1  0.85660342  0.31392326  0.16238272  1  0.080154  0  0.100008  0.111782  0  1.014947  0
H  H20  1  0.47879919  0.49975434  0.68560924  1  0.081653  0  0.106351  0.107205  0  0.984537  0
H  H21  1  0.52866528  0.43542139  0.80602256  1  0.04937  0  0.097211  0.092448  0  1.012696  0
H  H22  1  0.22656013  0.37658759  0.89363732  1  0.077094  0  0.101501  0.101482  0  1.005465  0
H  H23  1  0.22227242  0.32096830  0.01364798  1  0.059781  0  0.099865  0.102309  0  1.002765  0
H  H24  1  0.53826274  0.28775758  0.10611115  1  0.030033  0  0.098982  0.099141  0  1.024205  0
C  C25  1  0.48848702  0.45151534  0.60073882  1  1.540609  0  0.280397  0.661797  0  4.053845  0
C  C26  1  0.52402360  0.44785561  0.45087911  1  1.547145  0  0.279365  0.660245  0  4.056163  0
C  C27  1  0.48625075  0.60063621  0.44767832  1  1.595638  0  0.279791  0.658417  0  4.058044  0
C  C28  1  0.49528084  0.34615916  0.70615783  1  0.103465  0  -0.081644  -0.085609  0  3.969994  0
C  C29  1  0.49955210  0.31002954  0.77413297  1  -0.143737  0  -0.095174  -0.125827  0  3.999179  0
C  C30  1  0.68776647  0.24151926  0.92219589  1  -0.030375  0  0.014794  0.110395  0  4.008058  0
C  C31  1  0.68698626  0.20975563  0.99035282  1  0.075402  0  -0.098699  -0.199687  0  3.987275  0
C  C32  1  0.46688363  0.71035854  0.34352476  1  0.05893  0  -0.082129  -0.092023  0  3.984916  0
C  C33  1  0.49328891  0.77809996  0.31184884  1  -0.153963  0  -0.091203  -0.130397  0  3.98339  0
C  C34  1  0.37972684  0.92030672  0.24974285  1  -0.054156  0  -0.089487  -0.11295  0  3.99461  0
C  C35  1  0.37686018  0.98815900  0.21301287  1  -0.025208  0  -0.095794  -0.135714  0  4.00202  0
C  C36  1  0.48696231  0.41460232  0.67373739  1  -0.014491  0  -0.005066  -0.020502  0  3.95582  0
C  C37  1  0.51594958  0.34085546  0.81192086  1  0.118965  0  -0.01017  0.073669  0  3.98496  0
C  C38  1  0.52776068  0.30350208  0.88437031  1  -0.04071  0  -0.008791  0.005334  0  3.964226  0
C  C39  1  0.52395991  0.23723643  0.02507870  1  -0.063422  0  -0.008232  0.081109  0  4.010499  0
C  C40  1  0.52335698  0.20116384  0.09741383  1  0.028528  0  -0.006291  0.083079  0  4.020639  0
C  C41  1  0.51832045  0.13256490  0.13208440  1  0.027724  0  -0.088463  -0.176564  0  3.927522  0
C  C42  1  0.50819348  0.70577190  0.44767440  1  0.011633  0  -0.081127  -0.0836  0  3.971665  0
C  C43  1  0.51037850  0.77363296  0.41602483  1  -0.007341  0  -0.095596  -0.127738  0  3.996739  0
C  C44  1  0.67639748  0.92220001  0.33481814  1  0.027522  0  0.015873  0.110466  0  4.003373  0
C  C45  1  0.67621379  0.99024359  0.29812396  1  0.027322  0  -0.099011  -0.200752  0  3.989988  0
C  C46  1  0.53696898  0.34362816  0.44559099  1  -0.088397  0  -0.083368  -0.09453  0  3.989681  0
C  C47  1  0.56431260  0.31171077  0.40928168  1  -0.089356  0  -0.090841  -0.129694  0  3.98758  0
C  C48  1  0.41960374  0.25040098  0.33096574  1  0.000995  0  -0.089377  -0.112916  0  3.996725  0
C  C49  1  0.40768268  0.21375001  0.29982605  1  -0.033496  0  -0.0959  -0.135989  0  4.004106  0
C  C50  1  0.48380990  0.67342393  0.41188461  1  0.001551  0  -0.005844  -0.021957  0  3.95696  0
C  C51  1  0.51383898  0.81163622  0.34716861  1  -0.031752  0  -0.009259  0.0767  0  3.976659  0
C  C52  1  0.52843391  0.88399337  0.31193254  1  0.08594  0  -0.009568  0.00259  0  3.960555  0
C  C53  1  0.52508879  0.02492244  0.23692018  1  -0.115063  0  -0.007893  0.082763  0  4.008536  0
C  C54  1  0.52346337  0.09720441  0.20067724  1  0.02518  0  -0.006813  0.081994  0  4.017305  0
C  C55  1  0.53240358  0.13200981  0.23454678  1  -0.001656  0  -0.088268  -0.174413  0  3.923669  0
C  C56  1  0.55463935  0.44763202  0.34513213  1  -0.062717  0  -0.080746  -0.083314  0  3.967389  0
C  C57  1  0.55983521  0.41553729  0.30909224  1  -0.059974  0  -0.094096  -0.126712  0  3.99179  0
C  C58  1  0.73366435  0.33242654  0.24086477  1  0.041817  0  0.015255  0.111098  0  4.009611  0
C  C59  1  0.72415559  0.29584940  0.20937713  1  -0.011778  0  -0.09924  -0.201062  0  3.988696  0
C  C60  1  0.48666169  0.44638327  0.71050248  1  -0.109885  0  -0.083753  -0.095626  0  3.988267  0
C  C61  1  0.51022192  0.40983231  0.77843763  1  -0.033792  0  -0.090333  -0.127688  0  3.986739  0
C  C62  1  0.36631381  0.33023102  0.92063509  1  0.047997  0  -0.08928  -0.113651  0  3.996556  0
C  C63  1  0.36344782  0.29882357  0.98862651  1  -0.130323  0  -0.095238  -0.135504  0  4.002712  0
C  C64  1  0.53888047  0.41204722  0.41363819  1  0.165853  0  -0.004959  -0.021488  0  3.957762  0
C  C65  1  0.57303406  0.34676568  0.34019081  1  0.068707  0  -0.009266  0.07692  0  3.980697  0
C  C66  1  0.58105676  0.31105527  0.30328005  1  -0.015816  0  -0.010895  0.00105  0  3.966834  0
C  C67  1  0.55850696  0.23634536  0.23753545  1  -0.031729  0  -0.008128  0.081283  0  4.008751  0
C  C68  1  0.54039348  0.20044149  0.20134164  1  -0.061559  0  -0.006317  0.083012  0  4.019624  0
C  C69  1  0.53363056  0.23442892  0.13266183  1  0.00169  0  -0.088342  -0.176938  0  3.927178  0
Cl  Cl70  1  0.95113005  0.40503605  0.19802903  1  -0.226817  0  -0.000264  -0.082986  0  1.591674  0
Cl  Cl71  1  0.90798568  0.19990450  0.88808162  1  -0.223504  0  0.000377  -0.083867  0  1.594497  0
Cl  Cl72  1  0.87923994  0.88935418  0.40936315  1  -0.22767  0  0.002581  -0.08095  0  1.602598  0
O  O73  1  0.26068303  0.57175869  0.43506740  1  -1.259004  0  -0.23799  -0.595628  0  2.340959  0
O  O74  1  0.24870167  0.49281377  0.57184205  1  -1.260441  0  -0.236994  -0.593759  0  2.339016  0
O  O75  1  0.28360446  0.43545038  0.49275309  1  -1.257144  0  -0.237825  -0.59722  0  2.343663  0
O  O76  1  0.71700134  0.57182040  0.48983873  1  -1.253962  0  -0.23816  -0.60335  0  2.367989  0
O  O77  1  0.75224278  0.48946705  0.43752649  1  -1.251017  0  -0.236462  -0.599459  0  2.357645  0
O  O78  1  0.73252737  0.43808378  0.57204791  1  -1.254724  0  -0.237325  -0.600925  0  2.36092  0
