# generated using pymatgen
data_CdH10C12(N3Cl)2
_symmetry_space_group_name_H-M   'P 1'
_cell_length_a   3.81074343
_cell_length_b   11.60947686
_cell_length_c   16.57359460
_cell_angle_alpha   101.14893837
_cell_angle_beta   90.01647811
_cell_angle_gamma   99.42639686
_symmetry_Int_Tables_number   1
_chemical_formula_structural   CdH10C12(N3Cl)2
_chemical_formula_sum   'Cd2 H20 C24 N12 Cl4'
_cell_volume   709.28949084
_cell_formula_units_Z   2
loop_
 _symmetry_equiv_pos_site_id
 _symmetry_equiv_pos_as_xyz
  1  'x, y, z'
loop_
 _atom_site_type_symbol
 _atom_site_label
 _atom_site_symmetry_multiplicity
 _atom_site_fract_x
 _atom_site_fract_y
 _atom_site_fract_z
 _atom_site_occupancy
 _atom_site_hle17_bader_spin_density
 _atom_site_hle17_ddec_charge
 _atom_site_hle17_ddec_spin_density
 _atom_site_hle17_ddec_sum_bond_order
 _atom_site_hle17_magmom
 _atom_site_hse06_10hf_bader_spin_density
 _atom_site_hse06_10hf_ddec_charge
 _atom_site_hse06_10hf_ddec_spin_density
 _atom_site_hse06_10hf_ddec_sum_bond_order
 _atom_site_hse06_10hf_magmom
 _atom_site_hse06_bader_spin_density
 _atom_site_hse06_ddec_charge
 _atom_site_hse06_ddec_spin_density
 _atom_site_hse06_ddec_sum_bond_order
 _atom_site_hse06_magmom
 _atom_site_pbe_bader_spin_density
 _atom_site_pbe_cm5_charge
 _atom_site_pbe_ddec_charge
 _atom_site_pbe_ddec_spin_density
 _atom_site_pbe_ddec_sum_bond_order
 _atom_site_pbe_magmom
Cd  Cd0  1  0.88903964  0.00014454  0.75004992  1  0  0.959725  0  1.918  0  0  0.790302  0  2.382384  0  0  0.835631  0  2.342937  0  0  0.599725  0.757845  0  2.409835  0
Cd  Cd1  1  0.11095527  0.99985450  0.24994912  1  0  0.959693  0  1.918072  0  0  0.790275  0  2.382456  0  0  0.835602  0  2.343009  0  0  0.599721  0.757819  0  2.409906  0
H  H2  1  0.55855704  0.89687040  0.03894572  1  0  0.295777  0  0.926175  0  0  0.261469  0  1.020208  0  0  0.270106  0  1.012012  0  0  0.307125  0.255251  0  1.026218  0
H  H3  1  0.66275115  0.10313362  0.46094857  1  0  0.294964  0  0.926708  0  0  0.260831  0  1.020466  0  0  0.269464  0  1.012278  0  0  0.3067  0.254632  0  1.026432  0
H  H4  1  0.44144400  0.10313043  0.96105416  1  0  0.295769  0  0.926201  0  0  0.261461  0  1.020237  0  0  0.270099  0  1.012041  0  0  0.307115  0.255241  0  1.026249  0
H  H5  1  0.33725515  0.89686721  0.53905192  1  0  0.294924  0  0.926711  0  0  0.2608  0  1.020462  0  0  0.269432  0  1.012276  0  0  0.306694  0.254602  0  1.026428  0
H  H6  1  0.66282055  0.64729950  0.03707722  1  0  0.111591  0  0.956544  0  0  0.120737  0  1.01864  0  0  0.123968  0  1.016796  0  0  0.102797  0.118381  0  1.020103  0
H  H7  1  0.01727529  0.35255682  0.46272221  1  0  0.111648  0  0.955768  0  0  0.120665  0  1.018058  0  0  0.124007  0  1.016085  0  0  0.102892  0.118245  0  1.01959  0
H  H8  1  0.33718357  0.35270223  0.96292399  1  0  0.11156  0  0.95655  0  0  0.120708  0  1.018653  0  0  0.123939  0  1.016808  0  0  0.102801  0.118352  0  1.020113  0
H  H9  1  0.98273492  0.64744134  0.53727792  1  0  0.111605  0  0.955791  0  0  0.120636  0  1.018081  0  0  0.123975  0  1.01611  0  0  0.102896  0.118215  0  1.019614  0
H  H10  1  0.84420275  0.47715897  0.93670454  1  0  0.083667  0  0.970576  0  0  0.096681  0  1.030385  0  0  0.098746  0  1.030027  0  0  0.099195  0.095168  0  1.030755  0
H  H11  1  0.36786834  0.52272299  0.56315463  1  0  0.083168  0  0.97118  0  0  0.096352  0  1.030825  0  0  0.098388  0  1.030504  0  0  0.099314  0.094855  0  1.031194  0
H  H12  1  0.15579830  0.52284186  0.06329655  1  0  0.083644  0  0.970589  0  0  0.096655  0  1.03041  0  0  0.09872  0  1.03005  0  0  0.099189  0.095143  0  1.030782  0
H  H13  1  0.63213399  0.47727516  0.43684429  1  0  0.083151  0  0.971212  0  0  0.09633  0  1.030863  0  0  0.098366  0  1.030542  0  0  0.099291  0.094832  0  1.031232  0
H  H14  1  0.02000729  0.49866749  0.79719673  1  0  0.085409  0  0.978313  0  0  0.097475  0  1.038989  0  0  0.09944  0  1.039626  0  0  0.097729  0.096008  0  1.038701  0
H  H15  1  0.52084223  0.50144905  0.70281930  1  0  0.085212  0  0.978104  0  0  0.097617  0  1.0384  0  0  0.099507  0  1.039139  0  0  0.097848  0.096235  0  1.038017  0
H  H16  1  0.97998896  0.50133424  0.20280509  1  0  0.085392  0  0.978288  0  0  0.097414  0  1.039009  0  0  0.099382  0  1.039648  0  0  0.097696  0.09597  0  1.038697  0
H  H17  1  0.47915838  0.49855089  0.29718107  1  0  0.085224  0  0.978096  0  0  0.09763  0  1.038391  0  0  0.099518  0  1.03913  0  0  0.097852  0.096247  0  1.038008  0
H  H18  1  0.02544581  0.69076428  0.74897445  1  0  0.114815  0  0.965019  0  0  0.123513  0  1.027436  0  0  0.126864  0  1.024942  0  0  0.096547  0.12104  0  1.029347  0
H  H19  1  0.33397446  0.30940457  0.75109127  1  0  0.114705  0  0.966088  0  0  0.12375  0  1.027962  0  0  0.126967  0  1.025607  0  0  0.096355  0.121361  0  1.029794  0
H  H20  1  0.97454648  0.30923477  0.25102580  1  0  0.11485  0  0.964963  0  0  0.123573  0  1.027355  0  0  0.126906  0  1.024881  0  0  0.096569  0.121098  0  1.029266  0
H  H21  1  0.66602658  0.69059626  0.24890861  1  0  0.114696  0  0.966075  0  0  0.123734  0  1.027953  0  0  0.126951  0  1.025599  0  0  0.096337  0.121342  0  1.02979  0
C  C22  1  0.83500708  0.77420781  0.86576491  1  0  0.120641  0  3.792749  0  0  0.11705  0  4.043383  0  0  0.11778  0  4.067253  0  0  0.092932  0.116305  0  4.027434  0
C  C23  1  0.06071469  0.22589674  0.63422218  1  0  0.121613  0  3.79475  0  0  0.118173  0  4.044726  0  0  0.118919  0  4.068539  0  0  0.094226  0.117421  0  4.028799  0
C  C24  1  0.16498871  0.22579302  0.13423497  1  0  0.120627  0  3.7928  0  0  0.117029  0  4.043455  0  0  0.117758  0  4.06732  0  0  0.092963  0.116283  0  4.0275  0
C  C25  1  0.93928852  0.77410319  0.36577637  1  0  0.121641  0  3.794748  0  0  0.118157  0  4.044776  0  0  0.118923  0  4.068567  0  0  0.094231  0.117405  0  4.028848  0
C  C26  1  0.73468588  0.76085449  0.94619464  1  0  0.151997  0  3.787242  0  0  0.1407  0  4.029559  0  0  0.145193  0  4.05141  0  0  0.106637  0.137704  0  4.014874  0
C  C27  1  0.97450143  0.23914947  0.55371410  1  0  0.151311  0  3.789576  0  0  0.140269  0  4.031371  0  0  0.14473  0  4.053371  0  0  0.105769  0.137271  0  4.016624  0
C  C28  1  0.26531299  0.23914723  0.05380596  1  0  0.15201  0  3.787226  0  0  0.140714  0  4.029556  0  0  0.145209  0  4.051407  0  0  0.10661  0.137718  0  4.014864  0
C  C29  1  0.02550615  0.76084869  0.44628543  1  0  0.151249  0  3.789566  0  0  0.140242  0  4.031356  0  0  0.144696  0  4.053354  0  0  0.105757  0.137256  0  4.016601  0
C  C30  1  0.73702401  0.65494595  0.97467593  1  0  -0.146334  0  3.742232  0  0  -0.164723  0  3.995212  0  0  -0.16854  0  4.015198  0  0  -0.092545  -0.162119  0  3.981677  0
C  C31  1  0.08316994  0.34497108  0.52519285  1  0  -0.145015  0  3.742331  0  0  -0.163335  0  3.995036  0  0  -0.167216  0  4.015015  0  0  -0.091744  -0.160695  0  3.981538  0
C  C32  1  0.26297224  0.34505577  0.02532467  1  0  -0.146274  0  3.74212  0  0  -0.16467  0  3.995112  0  0  -0.168488  0  4.015098  0  0  -0.092543  -0.162066  0  3.981574  0
C  C33  1  0.91684027  0.65502708  0.47480728  1  0  -0.144892  0  3.742285  0  0  -0.163233  0  3.994976  0  0  -0.167111  0  4.014958  0  0  -0.091718  -0.160594  0  3.981475  0
C  C34  1  0.83887029  0.56221803  0.91861263  1  0  -0.060291  0  3.770819  0  0  -0.077475  0  4.023488  0  0  -0.07828  0  4.045478  0  0  -0.089901  -0.076707  0  4.008375  0
C  C35  1  0.27707631  0.43773963  0.58131182  1  0  -0.060344  0  3.77203  0  0  -0.077691  0  4.024881  0  0  -0.078473  0  4.046865  0  0  -0.090649  -0.076936  0  4.009777  0
C  C36  1  0.16112858  0.43778369  0.08138798  1  0  -0.060373  0  3.770895  0  0  -0.077553  0  4.02357  0  0  -0.078354  0  4.04556  0  0  -0.089958  -0.076787  0  4.008464  0
C  C37  1  0.72292078  0.56225854  0.41868892  1  0  -0.060353  0  3.77185  0  0  -0.077696  0  4.024703  0  0  -0.078478  0  4.046686  0  0  -0.090631  -0.07694  0  4.009599  0
C  C38  1  0.93974509  0.57447319  0.83811868  1  0  -0.074002  0  3.771166  0  0  -0.088261  0  4.022453  0  0  -0.091553  0  4.045314  0  0  -0.09342  -0.085972  0  4.006869  0
C  C39  1  0.36493917  0.42561613  0.66188733  1  0  -0.074339  0  3.771721  0  0  -0.089131  0  4.023392  0  0  -0.092393  0  4.04624  0  0  -0.093954  -0.086891  0  4.007792  0
C  C40  1  0.06025684  0.42552941  0.16188023  1  0  -0.073887  0  3.771099  0  0  -0.088114  0  4.022394  0  0  -0.091411  0  4.045247  0  0  -0.093337  -0.085846  0  4.006801  0
C  C41  1  0.63506143  0.57438381  0.33811304  1  0  -0.074391  0  3.771618  0  0  -0.089186  0  4.02328  0  0  -0.092448  0  4.046131  0  0  -0.093993  -0.086946  0  4.007682  0
C  C42  1  0.94196043  0.67975164  0.81025155  1  0  -0.118444  0  3.712631  0  0  -0.137912  0  3.962385  0  0  -0.139207  0  3.981405  0  0  -0.086443  -0.136882  0  3.949602  0
C  C43  1  0.26186175  0.32036420  0.68976182  1  0  -0.118541  0  3.714589  0  0  -0.137892  0  3.96362  0  0  -0.139065  0  3.982704  0  0  -0.085134  -0.136931  0  3.950752  0
C  C44  1  0.05803318  0.32025007  0.18974785  1  0  -0.118514  0  3.712498  0  0  -0.13799  0  3.962253  0  0  -0.139271  0  3.981282  0  0  -0.086475  -0.13696  0  3.949472  0
C  C45  1  0.73813886  0.67963575  0.31023916  1  0  -0.118538  0  3.714613  0  0  -0.13786  0  3.963643  0  0  -0.139038  0  3.982715  0  0  -0.085098  -0.136897  0  3.950782  0
N  N46  1  0.64438547  0.86783530  0.98063915  1  0  -0.208832  0  3.452955  0  0  -0.153642  0  3.702562  0  0  -0.167389  0  3.717196  0  0  -0.254788  -0.144506  0  3.692898  0
N  N47  1  0.77729876  0.13218418  0.51927772  1  0  -0.207875  0  3.452982  0  0  -0.153545  0  3.70359  0  0  -0.167319  0  3.71824  0  0  -0.25518  -0.144386  0  3.6939  0
N  N48  1  0.35561602  0.13216641  0.01936085  1  0  -0.208897  0  3.452891  0  0  -0.153712  0  3.702509  0  0  -0.167462  0  3.717146  0  0  -0.254813  -0.144575  0  3.692844  0
N  N49  1  0.22270620  0.86781398  0.48072242  1  0  -0.207828  0  3.452823  0  0  -0.153533  0  3.703444  0  0  -0.167306  0  3.718096  0  0  -0.255208  -0.144393  0  3.693767  0
N  N50  1  0.68384968  0.94249192  0.92782833  1  0  -0.010264  0  2.956296  0  0  -0.016136  0  3.253585  0  0  -0.009325  0  3.264849  0  0  -0.078256  -0.0203  0  3.245722  0
N  N51  1  0.74172145  0.05758108  0.57213010  1  0  -0.009118  0  2.952194  0  0  -0.014661  0  3.24931  0  0  -0.007824  0  3.260566  0  0  -0.077356  -0.018859  0  3.241465  0
N  N52  1  0.31614918  0.05750979  0.07217167  1  0  -0.010235  0  2.956234  0  0  -0.01611  0  3.253537  0  0  -0.009298  0  3.264799  0  0  -0.078228  -0.020279  0  3.245675  0
N  N53  1  0.25828177  0.94241885  0.42786906  1  0  -0.009068  0  2.951959  0  0  -0.014584  0  3.249057  0  0  -0.007746  0  3.260314  0  0  -0.077337  -0.018773  0  3.241217  0
N  N54  1  0.79884727  0.88817267  0.85855865  1  0  -0.266017  0  3.133525  0  0  -0.215355  0  3.427228  0  0  -0.229462  0  3.444116  0  0  -0.207715  -0.205443  0  3.415477  0
N  N55  1  0.91073807  0.11195033  0.64143998  1  0  -0.267907  0  3.134646  0  0  -0.217364  0  3.428455  0  0  -0.231487  0  3.445332  0  0  -0.209038  -0.207439  0  3.416701  0
N  N56  1  0.20115070  0.11182727  0.14144111  1  0  -0.265971  0  3.133474  0  0  -0.215291  0  3.427146  0  0  -0.229396  0  3.44403  0  0  -0.207707  -0.205378  0  3.415392  0
N  N57  1  0.08926253  0.88804960  0.35855858  1  0  -0.267942  0  3.134645  0  0  -0.217405  0  3.428479  0  0  -0.231533  0  3.445351  0  0  -0.209025  -0.207484  0  3.416731  0
Cl  Cl58  1  0.31561270  0.85814342  0.67277416  1  0  -0.559523  0  0.983734  0  0  -0.499179  0  1.261972  0  0  -0.516051  0  1.240714  0  0  -0.299929  -0.486749  0  1.276839  0
Cl  Cl59  1  0.45761983  0.14214741  0.82736610  1  0  -0.559391  0  0.983119  0  0  -0.499267  0  1.261758  0  0  -0.516113  0  1.240459  0  0  -0.299736  -0.486887  0  1.276751  0
Cl  Cl60  1  0.68437958  0.14185563  0.32722549  1  0  -0.559498  0  0.983733  0  0  -0.499176  0  1.262002  0  0  -0.516044  0  1.240739  0  0  -0.299925  -0.486745  0  1.276867  0
Cl  Cl61  1  0.54237508  0.85785165  0.17263536  1  0  -0.559383  0  0.983141  0  0  -0.499258  0  1.26178  0  0  -0.516104  0  1.24048  0  0  -0.29973  -0.486878  0  1.276772  0
