# generated using pymatgen
data_ZnP2H13C5NO6
_symmetry_space_group_name_H-M   'P 1'
_cell_length_a   7.91179781
_cell_length_b   9.01437203
_cell_length_c   9.06306015
_cell_angle_alpha   103.26842063
_cell_angle_beta   111.52792820
_cell_angle_gamma   108.21739090
_symmetry_Int_Tables_number   1
_chemical_formula_structural   ZnP2H13C5NO6
_chemical_formula_sum   'Zn2 P4 H26 C10 N2 O12'
_cell_volume   526.02323977
_cell_formula_units_Z   2
loop_
 _symmetry_equiv_pos_site_id
 _symmetry_equiv_pos_as_xyz
  1  'x, y, z'
loop_
 _atom_site_type_symbol
 _atom_site_label
 _atom_site_symmetry_multiplicity
 _atom_site_fract_x
 _atom_site_fract_y
 _atom_site_fract_z
 _atom_site_occupancy
 _atom_site_pbe_bader_spin_density
 _atom_site_pbe_cm5_charge
 _atom_site_pbe_ddec_charge
 _atom_site_pbe_ddec_spin_density
 _atom_site_pbe_ddec_sum_bond_order
 _atom_site_pbe_magmom
Zn  Zn0  1  0.98022215  0.73394610  0.43291460  1  0  0.72426  1.088653  0  2.304716  0
Zn  Zn1  1  0.01978554  0.26605263  0.56708922  1  0  0.724309  1.088722  0  2.304542  0
P  P2  1  0.24712993  0.67262344  0.76358123  1  0  0.366443  1.314006  0  5.361475  0
P  P3  1  0.75287115  0.32736776  0.23642437  1  0  0.366434  1.313938  0  5.36152  0
P  P4  1  0.86992912  0.95280709  0.68073960  1  0  0.345371  1.300039  0  5.445476  0
P  P5  1  0.13007704  0.04719918  0.31926314  1  0  0.345333  1.300013  0  5.445413  0
H  H6  1  0.10703267  0.84191116  0.84827312  1  0  0.298638  0.388488  0  0.966992  0
H  H7  1  0.89296493  0.15808383  0.15173328  1  0  0.298653  0.388504  0  0.966972  0
H  H8  1  0.56170423  0.75639411  0.01617504  1  0  0.133775  0.162165  0  0.959849  0
H  H9  1  0.43831055  0.24362359  0.98383292  1  0  0.133807  0.162205  0  0.959805  0
H  H10  1  0.55185291  0.93193067  0.96594970  1  0  0.119061  0.128234  0  1.038671  0
H  H11  1  0.44814497  0.06807798  0.03404427  1  0  0.119105  0.128283  0  1.038656  0
H  H12  1  0.50897903  0.82653770  0.60336263  1  0  0.127218  0.166076  0  0.983405  0
H  H13  1  0.49102241  0.17346469  0.39663445  1  0  0.127219  0.166082  0  0.983383  0
H  H14  1  0.65697768  0.01728168  0.79178797  1  0  0.127069  0.154106  0  0.973417  0
H  H15  1  0.34302580  0.98272203  0.20821225  1  0  0.127074  0.154132  0  0.973395  0
H  H16  1  0.73656067  0.64045259  0.69028470  1  0  0.114976  0.09711  0  1.008408  0
H  H17  1  0.26343945  0.35954989  0.30971749  1  0  0.114963  0.097099  0  1.008394  0
H  H18  1  0.48211354  0.54722247  0.65124944  1  0  0.114946  0.103031  0  0.984477  0
H  H19  1  0.51788319  0.45277869  0.34874918  1  0  0.114959  0.103022  0  0.984508  0
H  H20  1  0.85373882  0.63471382  0.98932244  1  0  0.096755  0.099401  0  0.982284  0
H  H21  1  0.14625259  0.36528232  0.01067669  1  0  0.096749  0.099396  0  0.982259  0
H  H22  1  0.59857632  0.52141361  0.93552583  1  0  0.088145  0.078433  0  1.020446  0
H  H23  1  0.40141103  0.47857992  0.06446813  1  0  0.088144  0.078399  0  1.020457  0
H  H24  1  0.76254483  0.32835522  0.88907295  1  0  0.085436  0.125754  0  1.042645  0
H  H25  1  0.23745396  0.67164467  0.11092495  1  0  0.08543  0.125772  0  1.042654  0
H  H26  1  0.55263719  0.28663484  0.69339069  1  0  0.08107  0.118824  0  1.025376  0
H  H27  1  0.44736020  0.71336497  0.30660233  1  0  0.081031  0.118756  0  1.025343  0
H  H28  1  0.80529897  0.40264948  0.73604658  1  0  0.083595  0.11866  0  1.027662  0
H  H29  1  0.19469978  0.59735296  0.26395295  1  0  0.083601  0.11865  0  1.027659  0
H  H30  1  0.80321486  0.86937431  0.94694575  1  0  0.314495  0.262084  0  0.945243  0
H  H31  1  0.19678795  0.13062809  0.05305177  1  0  0.314494  0.262089  0  0.945249  0
C  C32  1  0.51894276  0.79881600  0.90968022  1  0  -0.068589  -0.371591  0  3.754671  0
C  C33  1  0.48106198  0.20119277  0.09032149  1  0  -0.068681  -0.371672  0  3.754791  0
C  C34  1  0.65264700  0.89771399  0.72299961  1  0  -0.070558  -0.369145  0  3.715748  0
C  C35  1  0.34735380  0.10228718  0.27699921  1  0  -0.070548  -0.369155  0  3.715726  0
C  C36  1  0.63982263  0.62475890  0.75203969  1  0  -0.061542  -0.070085  0  3.765959  0
C  C37  1  0.36017545  0.37524227  0.24795936  1  0  -0.061536  -0.070081  0  3.765933  0
C  C38  1  0.70279935  0.54587953  0.88115211  1  0  -0.167616  -0.115816  0  3.947487  0
C  C39  1  0.29719127  0.45412033  0.11884427  1  0  -0.167631  -0.115773  0  3.947373  0
C  C40  1  0.70525586  0.38074767  0.79445224  1  0  -0.252566  -0.354203  0  3.90995  0
C  C41  1  0.29474021  0.61925221  0.20554478  1  0  -0.252517  -0.354147  0  3.909906  0
N  N42  1  0.66050610  0.79873542  0.83581768  1  0  -0.341303  0.069412  0  3.588931  0
N  N43  1  0.33949400  0.20126700  0.16418118  1  0  -0.341298  0.069375  0  3.588868  0
O  O44  1  0.19963878  0.70526497  0.59894502  1  0  -0.374388  -0.779909  0  2.369334  0
O  O45  1  0.80035478  0.29472481  0.40105124  1  0  -0.374385  -0.779936  0  2.369502  0
O  O46  1  0.20435571  0.49205995  0.74821017  1  0  -0.367114  -0.74697  0  2.347525  0
O  O47  1  0.79565063  0.50793879  0.25179433  1  0  -0.367143  -0.746955  0  2.347299  0
O  O48  1  0.15092105  0.74461948  0.86871169  1  0  -0.378261  -0.670421  0  2.27437  0
O  O49  1  0.84908199  0.25537553  0.13129535  1  0  -0.378258  -0.670373  0  2.274349  0
O  O50  1  0.81546212  0.80448320  0.52122962  1  0  -0.384139  -0.788868  0  2.360295  0
O  O51  1  0.18454277  0.19551799  0.47877051  1  0  -0.384119  -0.788877  0  2.360414  0
O  O52  1  0.05046816  0.97529044  0.84313510  1  0  -0.375739  -0.749022  0  2.258399  0
O  O53  1  0.94952948  0.02470197  0.15686744  1  0  -0.375708  -0.748959  0  2.258348  0
O  O54  1  0.89041051  0.11794118  0.65614654  1  0  -0.379451  -0.758469  0  2.355  0
O  O55  1  0.10960324  0.88206402  0.34386724  1  0  -0.379472  -0.758484  0  2.354788  0
