# generated using pymatgen
data_AlH15C19O8
_symmetry_space_group_name_H-M   'P 1'
_cell_length_a   6.64029763
_cell_length_b   23.28105847
_cell_length_c   26.41730406
_cell_angle_alpha   78.54450888
_cell_angle_beta   89.43260880
_cell_angle_gamma   90.52938447
_symmetry_Int_Tables_number   1
_chemical_formula_structural   AlH15C19O8
_chemical_formula_sum   'Al4 H60 C76 O32'
_cell_volume   4002.12162812
_cell_formula_units_Z   4
loop_
 _symmetry_equiv_pos_site_id
 _symmetry_equiv_pos_as_xyz
  1  'x, y, z'
loop_
 _atom_site_type_symbol
 _atom_site_label
 _atom_site_symmetry_multiplicity
 _atom_site_fract_x
 _atom_site_fract_y
 _atom_site_fract_z
 _atom_site_occupancy
 _atom_site_pbe_bader_charge
 _atom_site_pbe_bader_spin_density
 _atom_site_pbe_cm5_charge
 _atom_site_pbe_ddec_charge
 _atom_site_pbe_ddec_spin_density
 _atom_site_pbe_ddec_sum_bond_order
 _atom_site_pbe_magmom
Al  Al0  1  0.76305196  0.24930320  0.74967376  1  2.500812  0  0.399047  1.644247  0  2.585585  0
Al  Al1  1  0.22907632  0.74926659  0.25209159  1  2.500713  0  0.399071  1.643417  0  2.589205  0
Al  Al2  1  0.26367661  0.24889053  0.75210356  1  2.500221  0  0.399624  1.644793  0  2.583868  0
Al  Al3  1  0.72906089  0.74959432  0.25014703  1  2.501314  0  0.399909  1.64433  0  2.584709  0
H  H4  1  0.29601143  0.62190248  0.16637396  1  0.113162  0  0.109579  0.115388  0  0.995447  0
H  H5  1  0.69267593  0.37429881  0.83829775  1  0.100373  0  0.108622  0.113632  0  0.997228  0
H  H6  1  0.79557227  0.87510964  0.33849138  1  0.113771  0  0.109301  0.115396  0  0.996214  0
H  H7  1  0.19293339  0.12443516  0.66556631  1  0.083225  0  0.109421  0.116051  0  0.995801  0
H  H8  1  0.30980268  0.55769548  0.10125799  1  0.08526  0  0.10041  0.102918  0  1.016814  0
H  H9  1  0.68222704  0.43854490  0.90319633  1  0.095668  0  0.100625  0.102789  0  1.017712  0
H  H10  1  0.80480506  0.93797091  0.40477662  1  0.064617  0  0.100078  0.102101  0  1.017722  0
H  H11  1  0.17496534  0.06037242  0.60057141  1  0.074176  0  0.100698  0.101747  0  1.016833  0
H  H12  1  0.69570613  0.60167484  0.06016923  1  0.09501  0  0.099853  0.102721  0  1.027929  0
H  H13  1  0.30342172  0.39839250  0.93959116  1  0.0522  0  0.098452  0.10005  0  1.027088  0
H  H14  1  0.18314692  0.89367872  0.44358792  1  0.054869  0  0.100011  0.103877  0  1.022877  0
H  H15  1  0.80008304  0.09908456  0.56109295  1  0.057168  0  0.09861  0.09855  0  1.027969  0
H  H16  1  0.68159869  0.66370755  0.12702734  1  0.068422  0  0.110525  0.116003  0  0.991883  0
H  H17  1  0.31376941  0.33663008  0.87272097  1  0.089566  0  0.109135  0.114653  0  0.995557  0
H  H18  1  0.17389761  0.83288750  0.37563413  1  0.12555  0  0.110239  0.116238  0  0.99297  0
H  H19  1  0.81629612  0.16197065  0.62696373  1  0.09383  0  0.109562  0.115542  0  0.994746  0
H  H20  1  0.71151996  0.50230111  0.06074534  1  0.07522  0  0.103677  0.114324  0  1.03768  0
H  H21  1  0.28702471  0.49746254  0.94193826  1  0.091625  0  0.108601  0.125324  0  0.996504  0
H  H22  1  0.20816074  0.99440819  0.44270894  1  0.064857  0  0.102798  0.1128  0  1.036856  0
H  H23  1  0.77067875  0.99780839  0.56307930  1  0.070179  0  0.108984  0.125941  0  0.993101  0
H  H24  1  0.44614762  0.45507627  0.04357457  1  0.087026  0  0.097194  0.101289  0  1.027209  0
H  H25  1  0.61495812  0.40071651  0.07710263  1  0.037119  0  0.097706  0.095682  0  0.985448  0
H  H26  1  0.42920558  0.38127868  0.03411931  1  0.058578  0  0.107857  0.114502  0  0.975253  0
H  H27  1  0.22910393  0.64918789  0.99990622  1  0.062068  0  0.094489  0.092994  0  1.005489  0
H  H28  1  0.30828160  0.62966503  0.94018784  1  0.03337  0  0.094755  0.091288  0  0.988793  0
H  H29  1  0.49221269  0.64375504  0.98571601  1  0.074735  0  0.105363  0.110573  0  0.982591  0
H  H30  1  0.94161032  0.04085600  0.46206650  1  0.066346  0  0.096507  0.100245  0  1.026093  0
H  H31  1  0.11408304  0.09376657  0.42543241  1  0.039878  0  0.097802  0.095157  0  0.98695  0
H  H32  1  0.93224117  0.11581786  0.46849047  1  0.076509  0  0.109739  0.117002  0  0.974078  0
H  H33  1  0.69323031  0.84528838  0.50499749  1  0.06641  0  0.093538  0.09075  0  1.009285  0
H  H34  1  0.76652815  0.86291260  0.56562632  1  0.017912  0  0.093827  0.08958  0  0.988986  0
H  H35  1  0.95473184  0.84747725  0.52102383  1  0.064328  0  0.105274  0.109824  0  0.980109  0
H  H36  1  0.38064785  0.60065543  0.42144284  1  0.074957  0  0.097193  0.101108  0  1.00371  0
H  H37  1  0.51815844  0.56239346  0.47599330  1  0.066778  0  0.093229  0.0953  0  1.02887  0
H  H38  1  0.50067044  0.64095162  0.46413839  1  0.077858  0  0.109406  0.119378  0  0.966704  0
H  H39  1  0.47847259  0.43600122  0.52552904  1  0.057368  0  0.092483  0.093759  0  1.029117  0
H  H40  1  0.61569314  0.39776008  0.58013537  1  0.093989  0  0.09728  0.100674  0  1.0047  0
H  H41  1  0.49488470  0.35740267  0.53760412  1  0.05529  0  0.11086  0.121199  0  0.964746  0
H  H42  1  0.91171235  0.91218170  0.07364715  1  0.075038  0  0.096171  0.098494  0  1.004126  0
H  H43  1  0.03093258  0.94816671  0.01421680  1  0.042458  0  0.094128  0.097089  0  1.017101  0
H  H44  1  0.02000388  0.86939085  0.03111261  1  0.086231  0  0.108088  0.116859  0  0.968261  0
H  H45  1  0.31106469  0.17099990  0.94895695  1  0.088976  0  0.100757  0.109288  0  1.01086  0
H  H46  1  0.45126096  0.16090627  0.00783270  1  0.034803  0  0.098201  0.09374  0  0.989894  0
H  H47  1  0.18965233  0.18013568  0.00768911  1  0.063693  0  0.108035  0.11207  0  0.973465  0
H  H48  1  0.10240529  0.53029438  0.63321408  1  0.0371  0  0.096278  0.093106  0  0.989252  0
H  H49  1  0.23556857  0.58835647  0.58988834  1  0.045854  0  0.097948  0.098966  0  1.009299  0
H  H50  1  0.37020055  0.53802477  0.63799098  1  0.048259  0  0.109164  0.115955  0  0.968046  0
H  H51  1  0.75803455  0.40946738  0.41204013  1  0.066417  0  0.098492  0.10037  0  1.009415  0
H  H52  1  0.89274602  0.46702488  0.36854433  1  0.04071  0  0.095615  0.092229  0  0.989905  0
H  H53  1  0.62467748  0.45998365  0.36379609  1  0.048927  0  0.108876  0.115899  0  0.968602  0
H  H54  1  0.60991224  0.97466111  0.86997181  1  0.027867  0  0.096064  0.092956  0  0.989517  0
H  H55  1  0.75161979  0.91957655  0.91244753  1  0.045476  0  0.097163  0.097638  0  1.016459  0
H  H56  1  0.87866664  0.97247410  0.86328188  1  0.070659  0  0.109628  0.116573  0  0.969995  0
H  H57  1  0.28052223  0.08348959  0.10200495  1  0.064617  0  0.094786  0.091058  0  1.013287  0
H  H58  1  0.41291925  0.02285831  0.14012396  1  0.057343  0  0.095415  0.091972  0  0.992745  0
H  H59  1  0.14656922  0.02993245  0.14887181  1  0.061492  0  0.109352  0.116855  0  0.968781  0
H  H60  1  0.51475084  0.32410000  0.72467753  1  0.637664  0  0.357214  0.434842  0  0.846927  0
H  H61  1  0.47793421  0.67532726  0.27893633  1  0.620766  0  0.356957  0.434642  0  0.84728  0
H  H62  1  0.00641121  0.17486669  0.77810500  1  0.62612  0  0.35806  0.436852  0  0.844396  0
H  H63  1  0.98472881  0.82306664  0.22248946  1  0.618982  0  0.356807  0.434823  0  0.847719  0
C  C64  1  0.50711335  0.17409803  0.82898499  1  1.685174  0  0.274796  0.716163  0  4.168849  0
C  C65  1  0.48309087  0.82421720  0.17266542  1  1.679143  0  0.276759  0.72071  0  4.165619  0
C  C66  1  0.02454026  0.32414236  0.67266518  1  1.671  0  0.276717  0.718138  0  4.167076  0
C  C67  1  0.97172058  0.67448544  0.32956433  1  1.689536  0  0.27555  0.718381  0  4.165543  0
C  C68  1  0.51503781  0.18404125  0.68994344  1  1.553402  0  0.265025  0.638246  0  4.111706  0
C  C69  1  0.47963742  0.81433623  0.31248038  1  1.575282  0  0.263396  0.634989  0  4.113491  0
C  C70  1  0.00764366  0.31433522  0.81197592  1  1.564226  0  0.262751  0.635307  0  4.115816  0
C  C71  1  0.98134629  0.68369740  0.19038265  1  1.562131  0  0.264466  0.637058  0  4.114117  0
C  C72  1  0.16538233  0.61690052  0.14289200  1  -0.069871  0  -0.082383  -0.087334  0  3.984658  0
C  C73  1  0.82554560  0.38016179  0.86074781  1  -0.019057  0  -0.082683  -0.08627  0  3.982284  0
C  C74  1  0.66242183  0.87969231  0.36176899  1  -0.081163  0  -0.08301  -0.089229  0  3.983727  0
C  C75  1  0.32478496  0.11839861  0.64235529  1  -0.010715  0  -0.082803  -0.088479  0  3.979777  0
C  C76  1  0.17280713  0.58137543  0.10638598  1  -0.014091  0  -0.093344  -0.137757  0  3.986876  0
C  C77  1  0.82014075  0.41569518  0.89724036  1  -0.069457  0  -0.092815  -0.136799  0  3.985509  0
C  C78  1  0.66721465  0.91447704  0.39885222  1  -0.037242  0  -0.092534  -0.135836  0  3.983905  0
C  C79  1  0.31531314  0.08288799  0.60589408  1  -0.029882  0  -0.090889  -0.131633  0  3.982124  0
C  C80  1  0.00367082  0.57515749  0.07611255  1  -0.062806  0  -0.005592  0.088464  0  3.999266  0
C  C81  1  0.99203026  0.42313858  0.92617631  1  0.016904  0  -0.004034  0.096051  0  3.990221  0
C  C82  1  0.49458286  0.92028131  0.42871166  1  0.025903  0  -0.004717  0.0899  0  4.001184  0
C  C83  1  0.48647156  0.07484374  0.57632412  1  -0.022206  0  -0.003239  0.09525  0  3.992866  0
C  C84  1  0.82686418  0.60540629  0.08392583  1  -0.094576  0  -0.095182  -0.147891  0  3.983409  0
C  C85  1  0.16967024  0.39398480  0.91693039  1  -0.088397  0  -0.096686  -0.15004  0  3.988612  0
C  C86  1  0.31699517  0.89027562  0.42008140  1  -0.063369  0  -0.094753  -0.147427  0  3.982667  0
C  C87  1  0.66688687  0.10392540  0.58434066  1  -0.045675  0  -0.094106  -0.143852  0  3.978946  0
C  C88  1  0.81831075  0.64026269  0.12098306  1  -0.008268  0  -0.081696  -0.082736  0  3.985517  0
C  C89  1  0.17623434  0.35911368  0.87985923  1  -0.013898  0  -0.083782  -0.08725  0  3.99113  0
C  C90  1  0.31120050  0.85610322  0.38245933  1  -0.058796  0  -0.081777  -0.084532  0  3.985933  0
C  C91  1  0.67689746  0.13928841  0.62094462  1  -0.041553  0  -0.082064  -0.084214  0  3.981279  0
C  C92  1  0.98800219  0.64639470  0.15065547  1  0.006982  0  -0.018573  -0.049825  0  3.986207  0
C  C93  1  0.00361995  0.35172767  0.85163001  1  -0.039053  0  -0.019323  -0.048303  0  3.985736  0
C  C94  1  0.48422183  0.85052906  0.35305519  1  -0.03303  0  -0.018424  -0.048693  0  3.985447  0
C  C95  1  0.50569138  0.14672507  0.65032855  1  -0.020262  0  -0.020603  -0.053177  0  3.988333  0
C  C96  1  0.83728725  0.50090215  0.03436708  1  0.038193  0  -0.110633  -0.254571  0  4.011384  0
C  C97  1  0.15877753  0.49754938  0.96805426  1  -0.037471  0  -0.099624  -0.231696  0  4.017801  0
C  C98  1  0.33071463  0.99542872  0.46955082  1  -0.029608  0  -0.110912  -0.254351  0  4.008034  0
C  C99  1  0.64566184  0.99805095  0.53655053  1  -0.018065  0  -0.099104  -0.230779  0  4.014465  0
C  C100  1  0.82834471  0.46350866  0.99917833  1  0.426056  0  0.07946  0.204828  0  4.039252  0
C  C101  1  0.16986357  0.53372591  0.00412139  1  0.436881  0  0.065057  0.174388  0  4.06928  0
C  C102  1  0.32305102  0.03367468  0.50405801  1  0.480693  0  0.08082  0.206458  0  4.035051  0
C  C103  1  0.65539487  0.96083347  0.50132065  1  0.445508  0  0.064119  0.173611  0  4.068546  0
C  C104  1  0.99101719  0.46166599  0.96436844  1  0.015046  0  -0.018689  -0.023911  0  3.999718  0
C  C105  1  0.00616594  0.53670390  0.03781558  1  -0.018455  0  -0.016955  -0.013823  0  4.017006  0
C  C106  1  0.48285649  0.03533286  0.53896982  1  0.023705  0  -0.018069  -0.023935  0  4.001869  0
C  C107  1  0.49551878  0.95856935  0.46710510  1  -0.000147  0  -0.018365  -0.017567  0  4.021373  0
C  C108  1  0.13912966  0.50279263  0.53971594  1  0.536339  0  0.079829  0.10446  0  4.067017  0
C  C109  1  0.85757694  0.49512064  0.46185559  1  0.552824  0  0.079611  0.101565  0  4.067929  0
C  C110  1  0.64330585  0.00286165  0.96370878  1  0.567451  0  0.084809  0.118092  0  4.047675  0
C  C111  1  0.36378150  0.00363674  0.04457580  1  0.545876  0  0.077149  0.099501  0  4.066352  0
C  C112  1  0.01141975  0.45290190  0.54399191  1  0.138492  0  -0.01186  -0.05681  0  4.131853  0
C  C113  1  0.98525511  0.54501193  0.45758468  1  0.1035  0  -0.011364  -0.056223  0  4.136219  0
C  C114  1  0.51058621  0.05092908  0.96163719  1  0.139362  0  -0.014791  -0.063216  0  4.121429  0
C  C115  1  0.49254672  0.95543180  0.04573890  1  0.100936  0  -0.010852  -0.052126  0  4.140257  0
C  C116  1  0.87078684  0.44908789  0.50472709  1  0.551693  0  0.082544  0.115056  0  4.053559  0
C  C117  1  0.12588482  0.54880330  0.49684500  1  0.574992  0  0.080905  0.112721  0  4.055478  0
C  C118  1  0.37308049  0.05179856  0.00301816  1  0.549725  0  0.085218  0.109572  0  4.057273  0
C  C119  1  0.63301545  0.95508978  0.00512955  1  0.57524  0  0.078041  0.106527  0  4.059701  0
C  C120  1  0.02304727  0.40738030  0.58787949  1  -0.310508  0  -0.012422  0.023979  0  4.113266  0
C  C121  1  0.97320313  0.59067136  0.41384357  1  -0.419222  0  -0.013787  0.024125  0  4.116298  0
C  C122  1  0.51146933  0.09441961  0.91611832  1  -0.504546  0  -0.013197  0.023741  0  4.11323  0
C  C123  1  0.48583483  0.90856354  0.08875656  1  -0.480461  0  -0.011688  0.027557  0  4.10968  0
C  C124  1  0.96765347  0.62981329  0.37573170  1  0.158628  0  -0.034448  -0.203933  0  3.921814  0
C  C125  1  0.02800860  0.36853708  0.62622400  1  0.058776  0  -0.031818  -0.198824  0  3.91854  0
C  C126  1  0.48306853  0.86894315  0.12656211  1  0.234729  0  -0.034899  -0.205055  0  3.924998  0
C  C127  1  0.51098320  0.13036209  0.87571793  1  0.229465  0  -0.035007  -0.206804  0  3.9268  0
C  C128  1  0.53290130  0.41576412  0.04091345  1  0.385881  0  -0.137463  -0.173077  0  3.916493  0
C  C129  1  0.34205210  0.62539069  0.98151216  1  0.36746  0  -0.137638  -0.165196  0  3.92623  0
C  C130  1  0.03219294  0.08054525  0.46247351  1  0.385677  0  -0.136685  -0.172158  0  3.91795  0
C  C131  1  0.80757684  0.86743194  0.52448567  1  0.395219  0  -0.137933  -0.162948  0  3.92943  0
C  C132  1  0.42176823  0.60009735  0.46173482  1  0.340994  0  -0.138127  -0.16843  0  3.875413  0
C  C133  1  0.57433989  0.39820186  0.53988835  1  0.355371  0  -0.136851  -0.16629  0  3.871607  0
C  C134  1  0.94066216  0.90994270  0.03304676  1  0.354158  0  -0.137569  -0.164887  0  3.878361  0
C  C135  1  0.30327053  0.15537961  0.99089248  1  0.373435  0  -0.134161  -0.171763  0  3.898866  0
C  C136  1  0.24335025  0.54287150  0.61132370  1  0.42734  0  -0.136083  -0.169324  0  3.904041  0
C  C137  1  0.75155189  0.45489939  0.39045962  1  0.405509  0  -0.135689  -0.170263  0  3.905615  0
C  C138  1  0.75226623  0.96508761  0.89085981  1  0.411091  0  -0.136342  -0.172113  0  3.905019  0
C  C139  1  0.27063811  0.03686570  0.12059155  1  0.362887  0  -0.135723  -0.169197  0  3.922973  0
O  O140  1  0.34866742  0.19417051  0.71092685  1  -1.263658  0  -0.240498  -0.604488  0  2.360817  0
O  O141  1  0.64898099  0.80184069  0.29447513  1  -1.260633  0  -0.240451  -0.600474  0  2.355358  0
O  O142  1  0.83769573  0.29816634  0.79731618  1  -1.257744  0  -0.239386  -0.59803  0  2.357615  0
O  O143  1  0.15002573  0.69698493  0.20788194  1  -1.262332  0  -0.239829  -0.600144  0  2.358401  0
O  O144  1  0.67552509  0.18831685  0.80622952  1  -1.242116  0  -0.227422  -0.585216  0  2.288903  0
O  O145  1  0.31210497  0.80721885  0.19270825  1  -1.245975  0  -0.227719  -0.585094  0  2.286001  0
O  O146  1  0.19333361  0.30454238  0.69036039  1  -1.231245  0  -0.226878  -0.580557  0  2.281206  0
O  O147  1  0.80309067  0.69168866  0.30991298  1  -1.242211  0  -0.227974  -0.584771  0  2.283519  0
O  O148  1  0.68802135  0.20245170  0.70053494  1  -1.251615  0  -0.238607  -0.595502  0  2.343864  0
O  O149  1  0.30716176  0.79934690  0.29838051  1  -1.258642  0  -0.238878  -0.595784  0  2.348442  0
O  O150  1  0.17967992  0.30208733  0.79527809  1  -1.257729  0  -0.239788  -0.599716  0  2.347911  0
O  O151  1  0.80856838  0.69874577  0.20431728  1  -1.256995  0  -0.238537  -0.595712  0  2.344086  0
O  O152  1  0.85142240  0.30898849  0.69223001  1  -1.238205  0  -0.225598  -0.581187  0  2.28682  0
O  O153  1  0.14532862  0.69242875  0.31205437  1  -1.235275  0  -0.226601  -0.581204  0  2.286347  0
O  O154  1  0.33562911  0.19478888  0.81432426  1  -1.236911  0  -0.228799  -0.58287  0  2.278286  0
O  O155  1  0.65437364  0.80608366  0.18990334  1  -1.243637  0  -0.227632  -0.583141  0  2.284809  0
O  O156  1  0.51441287  0.28508716  0.74599013  1  -1.43935  0  -0.44838  -0.993112  0  2.20911  0
O  O157  1  0.47803152  0.71364451  0.25638686  1  -1.421215  0  -0.447886  -0.99271  0  2.206806  0
O  O158  1  0.01189375  0.21341894  0.75592851  1  -1.426678  0  -0.447457  -0.9929  0  2.200319  0
O  O159  1  0.98052527  0.78521198  0.24579904  1  -1.418431  0  -0.447745  -0.992112  0  2.202723  0
O  O160  1  0.66906861  0.42604318  0.99764774  1  -1.087587  0  -0.188871  -0.167704  0  2.593924  0
O  O161  1  0.34846603  0.56472135  0.00639876  1  -1.074043  0  -0.217121  -0.215182  0  2.567783  0
O  O162  1  0.16885543  0.07219238  0.50478568  1  -1.092803  0  -0.18713  -0.164771  0  2.590993  0
O  O163  1  0.82912772  0.92816241  0.50041231  1  -1.088024  0  -0.21736  -0.214951  0  2.563129  0
O  O164  1  0.24402410  0.59789297  0.49430090  1  -1.074105  0  -0.208349  -0.187362  0  2.548641  0
O  O165  1  0.75206688  0.40012321  0.50731805  1  -1.074154  0  -0.208628  -0.187073  0  2.545716  0
O  O166  1  0.75363863  0.90740720  0.00586765  1  -1.077974  0  -0.210472  -0.190663  0  2.548591  0
O  O167  1  0.23740806  0.09505229  0.00448625  1  -1.067695  0  -0.191581  -0.152371  0  2.571889  0
O  O168  1  0.28176637  0.50330564  0.57680954  1  -1.07914  0  -0.200619  -0.176727  0  2.57255  0
O  O169  1  0.71472783  0.49476258  0.42478847  1  -1.087339  0  -0.200689  -0.175235  0  2.573081  0
O  O170  1  0.78306454  0.00568255  0.92487938  1  -1.071439  0  -0.199243  -0.165734  0  2.546115  0
O  O171  1  0.22413850  0.00112249  0.08360858  1  -1.063852  0  -0.201662  -0.177202  0  2.580353  0
