# generated using pymatgen
data_GdH10C14NO7
_symmetry_space_group_name_H-M   'P 1'
_cell_length_a   9.32577269
_cell_length_b   10.39681410
_cell_length_c   14.44037836
_cell_angle_alpha   89.99992658
_cell_angle_beta   89.99981311
_cell_angle_gamma   96.44174213
_symmetry_Int_Tables_number   1
_chemical_formula_structural   GdH10C14NO7
_chemical_formula_sum   'Gd4 H40 C56 N4 O28'
_cell_volume   1391.27519741
_cell_formula_units_Z   4
loop_
 _symmetry_equiv_pos_site_id
 _symmetry_equiv_pos_as_xyz
  1  'x, y, z'
loop_
 _atom_site_type_symbol
 _atom_site_label
 _atom_site_symmetry_multiplicity
 _atom_site_fract_x
 _atom_site_fract_y
 _atom_site_fract_z
 _atom_site_occupancy
 _atom_site_pbe_bader_spin_density
 _atom_site_pbe_cm5_charge
 _atom_site_pbe_ddec_charge
 _atom_site_pbe_ddec_spin_density
 _atom_site_pbe_ddec_sum_bond_order
 _atom_site_pbe_magmom
Gd  Gd0  1  0.62983792  0.98167412  0.12898788  1  0  1.470083  2.029623  0  2.24359  0
Gd  Gd1  1  0.37016353  0.51832696  0.62898843  1  0  1.470078  2.029691  0  2.243528  0
Gd  Gd2  1  0.37015699  0.01832078  0.87101071  1  0  1.470058  2.029754  0  2.243631  0
Gd  Gd3  1  0.62984315  0.48167670  0.37101086  1  0  1.470006  2.029634  0  2.2437  0
H  H4  1  0.98915222  0.98310987  0.06815807  1  0  0.124174  0.085312  0  1.027467  0
H  H5  1  0.01085349  0.51688847  0.56815661  1  0  0.124166  0.085386  0  1.027374  0
H  H6  1  0.01084410  0.01688794  0.93183498  1  0  0.12417  0.085324  0  1.027506  0
H  H7  1  0.98916047  0.48311328  0.43183575  1  0  0.124167  0.085283  0  1.027542  0
H  H8  1  0.27138700  0.19230945  0.26653142  1  0  0.118063  0.118622  0  0.998187  0
H  H9  1  0.72861392  0.30769020  0.76653025  1  0  0.118067  0.118616  0  0.998202  0
H  H10  1  0.72860358  0.80769414  0.73346579  1  0  0.118057  0.118701  0  0.99803  0
H  H11  1  0.27139766  0.69230961  0.23346627  1  0  0.11809  0.118749  0  0.998039  0
H  H12  1  0.04983703  0.27779569  0.33428261  1  0  0.115286  0.125515  0  0.992747  0
H  H13  1  0.95016174  0.22220671  0.83428382  1  0  0.115288  0.125507  0  0.992758  0
H  H14  1  0.95015167  0.72220112  0.66571391  1  0  0.115286  0.125513  0  0.99272  0
H  H15  1  0.04985410  0.77780183  0.16571477  1  0  0.115295  0.125547  0  0.992765  0
H  H16  1  0.46354369  0.54736538  0.11623305  1  0  0.109609  0.123547  0  1.010195  0
H  H17  1  0.53645675  0.95263573  0.61623285  1  0  0.109606  0.123548  0  1.010173  0
H  H18  1  0.53645612  0.45262567  0.88376900  1  0  0.109613  0.123533  0  1.01026  0
H  H19  1  0.46353835  0.04736982  0.38377267  1  0  0.109638  0.123562  0  1.010309  0
H  H20  1  0.33926876  0.32333473  0.09977181  1  0  0.095134  0.087469  0  1.042333  0
H  H21  1  0.66072661  0.17666528  0.59977159  1  0  0.095111  0.08745  0  1.042351  0
H  H22  1  0.66072878  0.67665534  0.90023302  1  0  0.095079  0.087427  0  1.042442  0
H  H23  1  0.33926956  0.82334027  0.40023808  1  0  0.095104  0.087411  0  1.042436  0
H  H24  1  0.13143972  0.27925057  0.99298618  1  0  0.097998  0.092993  0  1.022851  0
H  H25  1  0.86855177  0.22075143  0.49298329  1  0  0.098015  0.092999  0  1.022851  0
H  H26  1  0.86855235  0.72073851  0.00702142  1  0  0.097974  0.092938  0  1.022741  0
H  H27  1  0.13144250  0.77925605  0.50702500  1  0  0.098031  0.093016  0  1.022753  0
H  H28  1  0.04774746  0.46032369  0.90083971  1  0  0.093131  0.087331  0  1.037695  0
H  H29  1  0.95224939  0.03968337  0.40083750  1  0  0.093153  0.08737  0  1.037785  0
H  H30  1  0.95224640  0.53966250  0.09916512  1  0  0.093125  0.087283  0  1.037737  0
H  H31  1  0.04774569  0.96033088  0.59916802  1  0  0.093152  0.087315  0  1.03782  0
H  H32  1  0.18012855  0.68104605  0.91203377  1  0  0.101026  0.096163  0  1.035046  0
H  H33  1  0.81987817  0.81895732  0.41203436  1  0  0.101028  0.096102  0  1.03508  0
H  H34  1  0.81987140  0.31893727  0.08796344  1  0  0.100954  0.096049  0  1.035001  0
H  H35  1  0.18011798  0.18105694  0.58796631  1  0  0.100959  0.09602  0  1.035136  0
H  H36  1  0.54526982  0.78619500  0.26669567  1  0  0.308252  0.402787  0  0.927933  0
H  H37  1  0.45473315  0.71380675  0.76669447  1  0  0.308292  0.402821  0  0.927916  0
H  H38  1  0.45473734  0.21380383  0.73330569  1  0  0.308264  0.4028  0  0.927892  0
H  H39  1  0.54526614  0.28619785  0.23330481  1  0  0.308239  0.402713  0  0.927995  0
H  H40  1  0.42480736  0.88482285  0.26155046  1  0  0.318021  0.39521  0  0.913549  0
H  H41  1  0.57519671  0.61517891  0.76155048  1  0  0.318013  0.395195  0  0.913544  0
H  H42  1  0.57519648  0.11517499  0.73845229  1  0  0.318072  0.395394  0  0.913499  0
H  H43  1  0.42480590  0.38482667  0.23845296  1  0  0.317988  0.395147  0  0.913602  0
C  C44  1  0.00778824  0.04930486  0.12651258  1  0  0.064081  0.094819  0  3.940529  0
C  C45  1  0.99221201  0.45069221  0.62651141  1  0  0.064053  0.09474  0  3.940467  0
C  C46  1  0.99220582  0.95069198  0.87348670  1  0  0.064124  0.09489  0  3.940458  0
C  C47  1  0.00779777  0.54931050  0.37348718  1  0  0.064088  0.094879  0  3.940451  0
C  C48  1  0.14780676  0.08911207  0.15751022  1  0  -0.001556  -0.066576  0  3.92042  0
C  C49  1  0.85219654  0.41088494  0.65750800  1  0  -0.001556  -0.066539  0  3.92058  0
C  C50  1  0.85218826  0.91088380  0.84248699  1  0  -0.00155  -0.0666  0  3.920528  0
C  C51  1  0.14781431  0.58911777  0.34248783  1  0  -0.001507  -0.06645  0  3.920319  0
C  C52  1  0.16435068  0.16699995  0.23673662  1  0  -0.054916  -0.044674  0  3.914087  0
C  C53  1  0.83565159  0.33300075  0.73673451  1  0  -0.054914  -0.044653  0  3.914208  0
C  C54  1  0.83564361  0.83299882  0.76326197  1  0  -0.054977  -0.044808  0  3.914239  0
C  C55  1  0.16435973  0.66700583  0.26326201  1  0  -0.055039  -0.044887  0  3.914226  0
C  C56  1  0.04258069  0.21218701  0.27528904  1  0  -0.068474  -0.117269  0  3.923442  0
C  C57  1  0.95741827  0.28781455  0.77528879  1  0  -0.06847  -0.117278  0  3.923467  0
C  C58  1  0.95740896  0.78780883  0.72470955  1  0  -0.068451  -0.117325  0  3.923462  0
C  C59  1  0.04259328  0.71219397  0.22470980  1  0  -0.068424  -0.117338  0  3.923636  0
C  C60  1  0.90711898  0.17094724  0.23770534  1  0  0.122474  0.104516  0  3.975726  0
C  C61  1  0.09288019  0.32905441  0.73770757  1  0  0.122478  0.104561  0  3.975708  0
C  C62  1  0.09287164  0.82904765  0.76229326  1  0  0.122571  0.104779  0  3.975672  0
C  C63  1  0.90713362  0.67095509  0.26229241  1  0  0.122543  0.104699  0  3.975944  0
C  C64  1  0.27501333  0.05268158  0.10322413  1  0  0.238517  0.646215  0  4.171566  0
C  C65  1  0.72499383  0.44731847  0.60321868  1  0  0.238524  0.646118  0  4.171648  0
C  C66  1  0.72499242  0.94731433  0.89678416  1  0  0.238472  0.646175  0  4.171359  0
C  C67  1  0.27501212  0.55268809  0.39678199  1  0  0.238523  0.646181  0  4.171145  0
C  C68  1  0.77002518  0.21976541  0.27154322  1  0  0.238729  0.596894  0  4.173055  0
C  C69  1  0.22997476  0.28023520  0.77154589  1  0  0.238724  0.596854  0  4.172898  0
C  C70  1  0.22996140  0.78022269  0.72844984  1  0  0.238658  0.596908  0  4.17281  0
C  C71  1  0.77004380  0.71977819  0.22845062  1  0  0.23869  0.596859  0  4.173032  0
C  C72  1  0.32822438  0.62733976  0.01540755  1  0  -0.021524  -0.051182  0  3.968949  0
C  C73  1  0.67177552  0.87266158  0.51540782  1  0  -0.02152  -0.051274  0  3.968975  0
C  C74  1  0.67176577  0.37265125  0.98458759  1  0  -0.021462  -0.050974  0  3.968896  0
C  C75  1  0.32822043  0.12734203  0.48459008  1  0  -0.021489  -0.05117  0  3.969121  0
C  C76  1  0.37154591  0.52712754  0.06993036  1  0  -0.082709  -0.094026  0  3.958023  0
C  C77  1  0.62845252  0.97287270  0.56993063  1  0  -0.0827  -0.093969  0  3.95794  0
C  C78  1  0.62845271  0.47286254  0.93006685  1  0  -0.082751  -0.094079  0  3.958274  0
C  C79  1  0.37154355  0.02713188  0.43006935  1  0  -0.0828  -0.094162  0  3.958363  0
C  C80  1  0.30068904  0.40244268  0.06101452  1  0  -0.096869  -0.09205  0  4.011761  0
C  C81  1  0.69930762  0.09755743  0.56101429  1  0  -0.096883  -0.092112  0  4.011871  0
C  C82  1  0.69930494  0.59754448  0.93898962  1  0  -0.096848  -0.092129  0  4.011512  0
C  C83  1  0.30068986  0.90245006  0.43899261  1  0  -0.096809  -0.091932  0  4.011485  0
C  C84  1  0.18474763  0.37752124  0.00003564  1  0  -0.084137  -0.059677  0  3.974167  0
C  C85  1  0.81524468  0.12248479  0.50003376  1  0  -0.084072  -0.059478  0  3.974139  0
C  C86  1  0.81524934  0.62246400  0.99997057  1  0  -0.084074  -0.05945  0  3.973849  0
C  C87  1  0.18474503  0.87752944  0.49997383  1  0  -0.084157  -0.059656  0  3.973874  0
C  C88  1  0.13998560  0.47806467  0.94703784  1  0  -0.096091  -0.09175  0  4.028902  0
C  C89  1  0.86001411  0.02194133  0.44703792  1  0  -0.096171  -0.091962  0  4.029026  0
C  C90  1  0.86000945  0.52192249  0.05296630  1  0  -0.096144  -0.091841  0  4.029242  0
C  C91  1  0.13998193  0.97807195  0.55296829  1  0  -0.096189  -0.091841  0  4.029211  0
C  C92  1  0.21253139  0.60209610  0.95382838  1  0  -0.081884  -0.076631  0  3.9496  0
C  C93  1  0.78747166  0.89790521  0.45382827  1  0  -0.081871  -0.076474  0  3.949362  0
C  C94  1  0.78746439  0.39788816  0.04617229  1  0  -0.081758  -0.076478  0  3.949316  0
C  C95  1  0.21252713  0.10210422  0.54617378  1  0  -0.081756  -0.076373  0  3.949545  0
C  C96  1  0.40835355  0.75932248  0.02048068  1  0  0.233186  0.65905  0  4.155167  0
C  C97  1  0.59165407  0.74068081  0.52047639  1  0  0.233112  0.659062  0  4.155283  0
C  C98  1  0.59164640  0.24066083  0.97952484  1  0  0.233176  0.658944  0  4.154924  0
C  C99  1  0.40834733  0.25933250  0.47952705  1  0  0.23316  0.659017  0  4.15498  0
N  N100  1  0.88994554  0.08645972  0.16665947  1  0  -0.362807  -0.34752  0  3.51082  0
N  N101  1  0.11005592  0.41354017  0.66666089  1  0  -0.362798  -0.347563  0  3.510802  0
N  N102  1  0.11004519  0.91353614  0.83333843  1  0  -0.362887  -0.347693  0  3.510982  0
N  N103  1  0.88995957  0.58646546  0.33333701  1  0  -0.362863  -0.347664  0  3.511062  0
O  O104  1  0.65192849  0.15876878  0.24265631  1  0  -0.345742  -0.611153  0  2.288842  0
O  O105  1  0.34807494  0.34123288  0.74265799  1  0  -0.345725  -0.611162  0  2.288711  0
O  O106  1  0.34806580  0.84122999  0.75734851  1  0  -0.345723  -0.611272  0  2.288562  0
O  O107  1  0.65194078  0.65877469  0.25735168  1  0  -0.345698  -0.611181  0  2.288693  0
O  O108  1  0.78231330  0.32017406  0.32159448  1  0  -0.362212  -0.617074  0  2.283115  0
O  O109  1  0.21768626  0.17982546  0.82159450  1  0  -0.362227  -0.617059  0  2.283067  0
O  O110  1  0.21768204  0.67983342  0.67839927  1  0  -0.362209  -0.617111  0  2.283378  0
O  O111  1  0.78231998  0.82016562  0.17839924  1  0  -0.362239  -0.617103  0  2.283425  0
O  O112  1  0.38330347  0.02467173  0.14905523  1  0  -0.371703  -0.642586  0  2.280076  0
O  O113  1  0.61669689  0.47532722  0.64905207  1  0  -0.371731  -0.642615  0  2.279993  0
O  O114  1  0.61668392  0.97532314  0.85094405  1  0  -0.37179  -0.642723  0  2.279363  0
O  O115  1  0.38331550  0.52467936  0.35094653  1  0  -0.371812  -0.642723  0  2.279552  0
O  O116  1  0.26136049  0.05626875  0.01579361  1  0  -0.372111  -0.644674  0  2.293979  0
O  O117  1  0.73864464  0.44372860  0.51579367  1  0  -0.372085  -0.644557  0  2.294125  0
O  O118  1  0.73863656  0.94372617  0.98419737  1  0  -0.371977  -0.6445  0  2.294568  0
O  O119  1  0.26136311  0.55627507  0.48419869  1  0  -0.37199  -0.644547  0  2.29429  0
O  O120  1  0.49627111  0.78544298  0.08672468  1  0  -0.394954  -0.66465  0  2.328812  0
O  O121  1  0.50372937  0.71455723  0.58672476  1  0  -0.394978  -0.664727  0  2.328567  0
O  O122  1  0.50371260  0.21454801  0.91326699  1  0  -0.395034  -0.664739  0  2.328006  0
O  O123  1  0.49627539  0.28544835  0.41327176  1  0  -0.395041  -0.664803  0  2.328305  0
O  O124  1  0.38500083  0.83999290  0.95733492  1  0  -0.42952  -0.717965  0  2.424962  0
O  O125  1  0.61500457  0.66001035  0.45733678  1  0  -0.429429  -0.717877  0  2.425194  0
O  O126  1  0.61498894  0.16000391  0.04266298  1  0  -0.429436  -0.717823  0  2.42558  0
O  O127  1  0.38500329  0.33999428  0.54266596  1  0  -0.429371  -0.717753  0  2.425344  0
O  O128  1  0.52754407  0.87907276  0.26995387  1  0  -0.620533  -0.806627  0  2.097239  0
O  O129  1  0.47245889  0.62092898  0.76995411  1  0  -0.620574  -0.806652  0  2.09721  0
O  O130  1  0.47246287  0.12092413  0.73004472  1  0  -0.620607  -0.80688  0  2.09719  0
O  O131  1  0.52753955  0.37907755  0.23004587  1  0  -0.620489  -0.806489  0  2.097307  0
