# generated using pymatgen
data_ZnH9C11N5
_symmetry_space_group_name_H-M   'P 1'
_cell_length_a   14.49578975
_cell_length_b   17.04857769
_cell_length_c   16.76118732
_cell_angle_alpha   89.95752902
_cell_angle_beta   90.11164451
_cell_angle_gamma   108.69554181
_symmetry_Int_Tables_number   1
_chemical_formula_structural   ZnH9C11N5
_chemical_formula_sum   'Zn8 H72 C88 N40'
_cell_volume   3923.66413294
_cell_formula_units_Z   8
loop_
 _symmetry_equiv_pos_site_id
 _symmetry_equiv_pos_as_xyz
  1  'x, y, z'
loop_
 _atom_site_type_symbol
 _atom_site_label
 _atom_site_symmetry_multiplicity
 _atom_site_fract_x
 _atom_site_fract_y
 _atom_site_fract_z
 _atom_site_occupancy
 _atom_site_pbe_bader_charge
 _atom_site_pbe_bader_spin_density
 _atom_site_pbe_cm5_charge
 _atom_site_pbe_ddec_charge
 _atom_site_pbe_ddec_spin_density
 _atom_site_pbe_ddec_sum_bond_order
 _atom_site_pbe_magmom
Zn  Zn0  1  0.53575227  0.51069065  0.10303941  1  1.172427  0  0.724557  0.63523  0  2.3382  0
Zn  Zn1  1  0.50131370  0.46198378  0.84480156  1  1.153345  0  0.784957  0.680042  0  2.319173  0
Zn  Zn2  1  0.99332948  0.95140979  0.65997841  1  1.146511  0  0.775867  0.665832  0  2.346758  0
Zn  Zn3  1  0.04219083  0.01457707  0.40112155  1  1.172254  0  0.724409  0.634227  0  2.337791  0
Zn  Zn4  1  0.70369845  0.53787004  0.96304931  1  1.198356  0  0.745718  0.682683  0  2.288834  0
Zn  Zn5  1  0.31851630  0.48280061  0.99866913  1  1.181217  0  0.73517  0.623541  0  2.502596  0
Zn  Zn6  1  0.19771077  0.02677195  0.54546717  1  1.188812  0  0.745211  0.662305  0  2.327524  0
Zn  Zn7  1  0.82230583  0.97731398  0.50125058  1  1.179815  0  0.728691  0.613509  0  2.520302  0
H  H8  1  0.60876551  0.67248688  0.19011741  1  0.075352  0  0.105919  0.08551  0  1.057619  0
H  H9  1  0.22687209  0.32169171  0.92912610  1  0.059532  0  0.106388  0.094234  0  1.026219  0
H  H10  1  0.49560908  0.34059242  0.17647285  1  0.101181  0  0.109342  0.09804  0  1.036771  0
H  H11  1  0.50861120  0.63238419  0.78710766  1  0.096155  0  0.113866  0.098927  0  1.046057  0
H  H12  1  0.01250710  0.11185337  0.74612876  1  0.085887  0  0.110553  0.094577  0  1.048678  0
H  H13  1  0.01181746  0.84726606  0.32565667  1  0.095706  0  0.108375  0.098259  0  1.0384  0
H  H14  1  0.71868454  0.81565373  0.57152467  1  0.083204  0  0.108288  0.099392  0  1.017629  0
H  H15  1  0.10198582  0.19244316  0.33436674  1  0.104784  0  0.107802  0.093433  0  1.053464  0
H  H16  1  0.35691309  0.48016962  0.69694095  1  0.096985  0  0.119781  0.108756  0  0.991255  0
H  H17  1  0.63038123  0.40753881  0.23044535  1  0.063786  0  0.109555  0.090737  0  1.029446  0
H  H18  1  0.50641183  0.27385199  0.80686654  1  0.109721  0  0.116167  0.107059  0  1.014958  0
H  H19  1  0.46571612  0.61702231  0.25387215  1  0.058312  0  0.113109  0.098141  0  1.003768  0
H  H20  1  0.97595527  0.12037430  0.24950139  1  0.07699  0  0.112161  0.095849  0  1.008437  0
H  H21  1  0.98792862  0.75754966  0.68415295  1  0.093051  0  0.108629  0.090863  0  1.033835  0
H  H22  1  0.14705622  0.93014565  0.26558883  1  0.044319  0  0.113218  0.096228  0  1.015448  0
H  H23  1  0.84512150  0.97613289  0.80302866  1  0.093697  0  0.11931  0.108419  0  0.989926  0
H  H24  1  0.29936304  0.65826122  0.05304904  1  0.072875  0  0.116321  0.104991  0  0.996957  0
H  H25  1  0.75760951  0.37289709  0.96026093  1  0.096305  0  0.116429  0.103107  0  1.026148  0
H  H26  1  0.86629024  0.46200333  0.06041341  1  0.06215  0  0.116522  0.106545  0  0.996429  0
H  H27  1  0.28836676  0.61425680  0.89485089  1  0.089182  0  0.119954  0.103222  0  1.007872  0
H  H28  1  0.80324512  0.11916032  0.60106784  1  0.076816  0  0.12031  0.103628  0  1.004109  0
H  H29  1  0.36132893  0.94547288  0.44966391  1  0.09005  0  0.116081  0.106137  0  0.997801  0
H  H30  1  0.24255140  0.86076569  0.53675539  1  0.117096  0  0.116273  0.102014  0  1.031916  0
H  H31  1  0.78443169  0.14268423  0.43951352  1  0.090368  0  0.117012  0.106809  0  0.996928  0
H  H32  1  0.79845728  0.31545720  0.75572554  1  0.042241  0  0.085845  0.066292  0  1.017484  0
H  H33  1  0.19074071  0.67124480  0.24337262  1  0.026597  0  0.094169  0.08069  0  0.999373  0
H  H34  1  0.14599539  0.52363815  0.63303382  1  0.081375  0  0.095012  0.083577  0  0.999086  0
H  H35  1  0.96856738  0.41649807  0.24027119  1  0.055576  0  0.094606  0.081826  0  0.99909  0
H  H36  1  0.47468881  0.92283487  0.26056885  1  0.045246  0  0.092378  0.077158  0  1.003517  0
H  H37  1  0.65066204  0.03552262  0.86310972  1  0.071648  0  0.092868  0.080331  0  1.002163  0
H  H38  1  0.68560215  0.16354294  0.25157604  1  0.025819  0  0.090943  0.075104  0  1.004863  0
H  H39  1  0.27998567  0.80659468  0.73628658  1  0.041074  0  0.087031  0.069167  0  1.010376  0
H  H40  1  0.38779912  0.84504585  0.11714155  1  0.067763  0  0.09083  0.074762  0  1.004508  0
H  H41  1  0.75639528  0.17693293  0.95340437  1  0.044756  0  0.090736  0.075139  0  1.01092  0
H  H42  1  0.77365232  0.24569075  0.10938400  1  0.064091  0  0.0893  0.071554  0  1.015971  0
H  H43  1  0.18116087  0.66352376  0.82873856  1  0.015399  0  0.091658  0.078914  0  1.006812  0
H  H44  1  0.69330483  0.17326443  0.66529562  1  0.036258  0  0.09142  0.077724  0  1.00482  0
H  H45  1  0.27746103  0.75016245  0.38753802  1  0.057097  0  0.08899  0.070238  0  1.014771  0
H  H46  1  0.24491881  0.66564354  0.54096410  1  0.023536  0  0.091805  0.076527  0  1.008222  0
H  H47  1  0.88002715  0.33546342  0.38193206  1  0.075427  0  0.090885  0.074921  0  1.003524  0
H  H48  1  0.20077062  0.82867960  0.18001626  1  0.019554  0  0.087042  0.068296  0  1.012165  0
H  H49  1  0.90158672  0.21953822  0.83387679  1  0.034831  0  0.090689  0.080985  0  1.025779  0
H  H50  1  0.96010741  0.26162830  0.17423562  1  0.059461  0  0.08634  0.069282  0  1.015718  0
H  H51  1  0.03732588  0.61221103  0.70845410  1  0.012326  0  0.085147  0.066269  0  1.016802  0
H  H52  1  0.54901154  0.12954190  0.78517992  1  0.053448  0  0.090391  0.077035  0  1.005685  0
H  H53  1  0.46441047  0.76604266  0.32419087  1  0.030859  0  0.088317  0.072918  0  1.008689  0
H  H54  1  0.39007448  0.71552452  0.66107596  1  0.074489  0  0.09165  0.082282  0  1.012836  0
H  H55  1  0.69377885  0.31958752  0.31747734  1  0.025229  0  0.084982  0.064773  0  1.015332  0
H  H56  1  0.54591626  0.79079364  0.75400450  1  0.02859  0  0.090893  0.087551  0  1.005433  0
H  H57  1  0.39733761  0.28374867  0.32511871  1  0.061923  0  0.088443  0.085031  0  1.018917  0
H  H58  1  0.25527336  0.29195781  0.79030077  1  0.026634  0  0.085917  0.082732  0  1.031395  0
H  H59  1  0.73379114  0.70603194  0.28799624  1  0.037334  0  0.092919  0.088695  0  1.00934  0
H  H60  1  0.20567374  0.24246641  0.23223108  1  0.020152  0  0.092673  0.082388  0  1.020096  0
H  H61  1  0.75404284  0.79728958  0.71057169  1  0.030798  0  0.083021  0.072882  0  1.051215  0
H  H62  1  0.88580851  0.81422166  0.17232576  1  0.049014  0  0.089723  0.085511  0  1.009176  0
H  H63  1  0.04154193  0.27304532  0.75268600  1  0.032228  0  0.08969  0.086153  0  1.014914  0
H  H64  1  0.88268320  0.67193779  0.81874948  1  0.436922  0  0.309436  0.298802  0  0.931364  0
H  H65  1  0.86350223  0.76102216  0.79482304  1  0.430729  0  0.303407  0.289983  0  0.957455  0
H  H66  1  0.16002186  0.35671544  0.05939324  1  0.505293  0  0.290985  0.292518  0  1.024579  0
H  H67  1  0.13997294  0.28301618  0.13481237  1  0.429027  0  0.299999  0.291126  0  0.973944  0
H  H68  1  0.96859277  0.39972526  0.78550145  1  0.428199  0  0.291919  0.278946  0  0.979726  0
H  H69  1  0.99040588  0.48435959  0.84269622  1  0.418301  0  0.295725  0.284635  0  0.956927  0
H  H70  1  0.85969940  0.72473801  0.95301201  1  0.479967  0  0.274744  0.270189  0  1.047879  0
H  H71  1  0.91747211  0.76362364  0.03934139  1  0.434825  0  0.30024  0.2956  0  0.950535  0
H  H72  1  0.38986852  0.12972487  0.46440280  1  0.423964  0  0.294869  0.283218  0  0.964268  0
H  H73  1  0.42748490  0.23136071  0.45398094  1  0.415153  0  0.303283  0.29489  0  0.937644  0
H  H74  1  0.51240824  0.00672559  0.65430329  1  0.433246  0  0.29893  0.289261  0  0.951894  0
H  H75  1  0.48459170  0.92439932  0.71572862  1  0.410028  0  0.296691  0.283274  0  0.964313  0
H  H76  1  0.66061453  0.78819970  0.35484007  1  0.430484  0  0.29743  0.288591  0  0.967732  0
H  H77  1  0.66983801  0.84470921  0.44033369  1  0.458951  0  0.28661  0.282849  0  1.027227  0
H  H78  1  0.35303605  0.19221194  0.60262785  1  0.454612  0  0.275359  0.272129  0  1.03714  0
H  H79  1  0.34272160  0.26601527  0.66445981  1  0.437202  0  0.299479  0.29121  0  0.947526  0
C  C80  1  0.65617468  0.67161099  0.14039719  1  0.419206  0  -0.003187  -0.047334  0  4.019167  0
C  C81  1  0.18367200  0.36118701  0.91345052  1  0.378703  0  -0.019015  -0.079431  0  4.050852  0
C  C82  1  0.43153178  0.34895060  0.14906293  1  0.374031  0  -0.004778  -0.046282  0  4.006864  0
C  C83  1  0.58225514  0.63628849  0.80433997  1  0.408213  0  0.008685  -0.02227  0  3.979054  0
C  C84  1  0.08255545  0.11860739  0.71882437  1  0.401158  0  0.001439  -0.031703  0  4.016467  0
C  C85  1  0.94647495  0.85063101  0.35495599  1  0.297021  0  -0.0081  -0.054853  0  4.020918  0
C  C86  1  0.68159065  0.86019786  0.58551411  1  0.363753  0  -0.017585  -0.071861  0  4.037138  0
C  C87  1  0.15373838  0.18136053  0.37608214  1  0.34758  0  -0.006759  -0.057706  0  3.988833  0
C  C88  1  0.25931254  0.81436889  0.21216109  1  -0.025599  0  -0.087223  -0.09015  0  3.67667  0
C  C89  1  0.82297365  0.20044393  0.82290068  1  -0.034327  0  -0.087244  -0.09629  0  3.653205  0
C  C90  1  0.90044121  0.27423376  0.20614375  1  -0.066119  0  -0.085441  -0.085135  0  3.665622  0
C  C91  1  0.11604228  0.63637208  0.69826665  1  -0.018983  0  -0.085886  -0.087208  0  3.67861  0
C  C92  1  0.62771547  0.15020526  0.79571649  1  -0.025639  0  -0.084337  -0.089049  0  3.671274  0
C  C93  1  0.40548398  0.77989185  0.29212164  1  -0.034431  0  -0.085681  -0.088048  0  3.663413  0
C  C94  1  0.31133296  0.69361203  0.67155500  1  -0.058505  0  -0.085642  -0.0943  0  3.653176  0
C  C95  1  0.75286908  0.30614234  0.28552245  1  -0.03248  0  -0.088453  -0.09107  0  3.679243  0
C  C96  1  0.61452183  0.80830020  0.72059435  1  0.011522  0  -0.10243  -0.099539  0  4.046672  0
C  C97  1  0.31917849  0.25848992  0.31271432  1  -0.053011  0  -0.116522  -0.142145  0  4.079693  0
C  C98  1  0.18280395  0.26304132  0.76433483  1  -0.02262  0  -0.120651  -0.147858  0  4.075685  0
C  C99  1  0.79996291  0.75606365  0.27103043  1  -0.05694  0  -0.107618  -0.118411  0  4.06201  0
C  C100  1  0.28468812  0.26948651  0.23973741  1  -0.019774  0  -0.102612  -0.093934  0  4.068242  0
C  C101  1  0.68344379  0.77306020  0.74075522  1  -0.06536  0  -0.121663  -0.151586  0  4.08179  0
C  C102  1  0.82014332  0.76536097  0.19201696  1  -0.081653  0  -0.105534  -0.115088  0  4.067126  0
C  C103  1  0.11190163  0.29627934  0.78350009  1  -0.046319  0  -0.105738  -0.108334  0  4.05899  0
C  C104  1  0.34792991  0.50693075  0.75403797  1  0.295063  0  0.009869  -0.04741  0  3.973701  0
C  C105  1  0.67953254  0.42790767  0.18025434  1  0.38377  0  -0.003551  -0.067386  0  4.036199  0
C  C106  1  0.56392012  0.31002162  0.84633057  1  0.341267  0  0.004236  -0.056611  0  3.984609  0
C  C107  1  0.42833085  0.61620687  0.19744555  1  0.417504  0  7.8e-05  -0.059772  0  4.026935  0
C  C108  1  0.93289781  0.11546318  0.30340714  1  0.343345  0  -0.00286  -0.06468  0  4.038929  0
C  C109  1  0.04669709  0.79520082  0.64682438  1  0.379595  0  0.000606  -0.06033  0  4.001747  0
C  C110  1  0.19176492  0.94153872  0.31912709  1  0.427261  0  0.000449  -0.061486  0  4.021861  0
C  C111  1  0.84254757  0.00456821  0.74538681  1  0.38266  0  0.010669  -0.042494  0  3.974307  0
C  C112  1  0.74082803  0.66818267  0.82182675  1  0.887162  0  0.187493  0.329738  0  4.071237  0
C  C113  1  0.28327073  0.34451071  0.11111869  1  0.961826  0  0.200943  0.36077  0  4.090366  0
C  C114  1  0.08392303  0.42147734  0.86136451  1  0.913653  0  0.174129  0.318908  0  4.128441  0
C  C115  1  0.77647958  0.69405104  0.05374919  1  0.868241  0  0.185688  0.335067  0  4.089734  0
C  C116  1  0.28156281  0.17787362  0.44562069  1  0.815333  0  0.174175  0.296784  0  4.063501  0
C  C117  1  0.59276818  0.93178924  0.63536759  1  0.93728  0  0.175826  0.320809  0  4.135963  0
C  C118  1  0.79693610  0.83356889  0.39759859  1  0.927725  0  0.19461  0.350837  0  4.080943  0
C  C119  1  0.23514360  0.15924093  0.67645889  1  0.900366  0  0.194549  0.352177  0  4.068228  0
C  C120  1  0.34401187  0.63776853  0.09512651  1  0.40747  0  0.005248  -0.051714  0  4.000388  0
C  C121  1  0.69229097  0.36125738  0.92423357  1  0.41711  0  0.009225  -0.041625  0  3.962476  0
C  C122  1  0.80025187  0.45566652  0.09411685  1  0.425027  0  0.001629  -0.060857  0  4.007975  0
C  C123  1  0.31542191  0.57623921  0.85535484  1  0.42345  0  0.019099  -0.020731  0  3.969603  0
C  C124  1  0.82298084  0.07784929  0.64203523  1  0.460528  0  0.020529  -0.016237  0  3.960283  0
C  C125  1  0.30122466  0.94937717  0.41260621  1  0.375932  0  -0.002964  -0.073777  0  4.031659  0
C  C126  1  0.17651203  0.84830439  0.57170538  1  0.365951  0  0.010408  -0.038245  0  3.957112  0
C  C127  1  0.83592663  0.12749170  0.40033716  1  0.395213  0  0.004458  -0.054495  0  3.993245  0
C  C128  1  0.75598922  0.71481686  0.13196325  1  0.034816  0  -0.053758  -0.100887  0  4.102249  0
C  C129  1  0.12368527  0.35598250  0.84702028  1  0.010889  0  -0.061114  -0.107427  0  4.116018  0
C  C130  1  0.33356207  0.31531810  0.17137921  1  -0.004971  0  -0.055581  -0.107923  0  4.115029  0
C  C131  1  0.66944945  0.70003326  0.78951358  1  0.048268  0  -0.04725  -0.084638  0  4.096338  0
C  C132  1  0.16755872  0.18662819  0.72075186  1  0.01931  0  -0.05008  -0.090861  0  4.098611  0
C  C133  1  0.84910282  0.80867885  0.33645975  1  0.123306  0  -0.054906  -0.099488  0  4.112445  0
C  C134  1  0.62641037  0.86328060  0.65293150  1  -0.025281  0  -0.060715  -0.109642  0  4.108064  0
C  C135  1  0.25610527  0.21191383  0.37533836  1  0.03009  0  -0.047725  -0.084423  0  4.123754  0
C  C136  1  0.30373772  0.56672229  0.77227913  1  0.099788  0  -0.028934  -0.030376  0  4.036804  0
C  C137  1  0.76647220  0.41134399  0.16467061  1  -0.004863  0  -0.041324  -0.047446  0  4.101751  0
C  C138  1  0.64607198  0.29282164  0.87519862  1  0.030133  0  -0.034709  -0.035156  0  4.063442  0
C  C139  1  0.37822658  0.66931460  0.17066846  1  -0.013346  0  -0.041117  -0.049915  0  4.104607  0
C  C140  1  0.87387988  0.16242073  0.32672526  1  0.015652  0  -0.040119  -0.048552  0  4.105523  0
C  C141  1  0.12886604  0.77823850  0.61802220  1  0.005934  0  -0.033586  -0.032659  0  4.065465  0
C  C142  1  0.27260430  0.91618894  0.33646287  1  -0.02494  0  -0.040707  -0.043844  0  4.102443  0
C  C143  1  0.80729014  0.06938762  0.72483425  1  0.000157  0  -0.028823  -0.031601  0  4.033133  0
C  C144  1  0.36265890  0.82401201  0.17745482  1  -0.068497  0  -0.082869  -0.08739  0  3.65785  0
C  C145  1  0.74259337  0.17631191  0.88906485  1  -0.036204  0  -0.08317  -0.085592  0  3.649995  0
C  C146  1  0.79747988  0.26457748  0.17050686  1  -0.070869  0  -0.083556  -0.086118  0  3.658127  0
C  C147  1  0.19583878  0.66485112  0.76464552  1  -0.006413  0  -0.085872  -0.090729  0  3.669722  0
C  C148  1  0.70774986  0.17476587  0.72949699  1  -0.042867  0  -0.084232  -0.086523  0  3.66933  0
C  C149  1  0.30222213  0.77011782  0.32687933  1  -0.057114  0  -0.083789  -0.083656  0  3.659259  0
C  C150  1  0.23111224  0.66552321  0.60522277  1  -0.015066  0  -0.081746  -0.083774  0  3.644727  0
C  C151  1  0.85590076  0.31579831  0.32104665  1  -0.073211  0  -0.083158  -0.087034  0  3.656238  0
C  C152  1  0.76705407  0.25226159  0.77878549  1  -0.03453  0  -0.087773  -0.09212  0  3.677398  0
C  C153  1  0.25305707  0.72803977  0.24802088  1  -0.015162  0  -0.082925  -0.088457  0  3.656155  0
C  C154  1  0.17631784  0.58683427  0.65591839  1  -0.043071  0  -0.07778  -0.079637  0  3.636823  0
C  C155  1  0.90547942  0.36010598  0.24288535  1  -0.038953  0  -0.08021  -0.084805  0  3.642623  0
C  C156  1  0.41150089  0.86657335  0.25666424  1  -0.039682  0  -0.082041  -0.085585  0  3.647972  0
C  C157  1  0.68406388  0.09801473  0.83931789  1  -0.056601  0  -0.078888  -0.080152  0  3.647041  0
C  C158  1  0.74769778  0.22066152  0.24841608  1  -0.020235  0  -0.08546  -0.089009  0  3.663922  0
C  C159  1  0.25161381  0.74272011  0.71448260  1  -0.045041  0  -0.087289  -0.089867  0  3.677129  0
C  C160  1  0.68535826  0.22890541  0.84546493  1  0.015461  0  -0.002492  0.080807  0  3.690235  0
C  C161  1  0.35704781  0.73670041  0.21276958  1  0.045119  0  -0.002007  0.084624  0  3.713602  0
C  C162  1  0.25650003  0.61458897  0.72350956  1  0.031118  0  0.000914  0.085527  0  3.680801  0
C  C163  1  0.80153806  0.35126050  0.20720737  1  0.048652  0  -0.00173  0.085744  0  3.703811  0
C  C164  1  0.30716046  0.85744200  0.29157591  1  0.071244  0  -0.003041  0.081741  0  3.710485  0
C  C165  1  0.76430809  0.12163236  0.77185076  1  0.061513  0  3.2e-05  0.083024  0  3.681648  0
C  C166  1  0.85137669  0.22924472  0.28446263  1  0.049931  0  -0.002957  0.081981  0  3.716147  0
C  C167  1  0.17003810  0.71541992  0.64770625  1  0.029596  0  -0.003223  0.077601  0  3.694924  0
N  N168  1  0.61995685  0.62698397  0.07448659  1  -0.801284  0  -0.300371  -0.21125  0  3.573232  0
N  N169  1  0.18153287  0.42470268  0.96152955  1  -0.863255  0  -0.311737  -0.21975  0  3.640132  0
N  N170  1  0.44102340  0.39610366  0.08225075  1  -0.790547  0  -0.306329  -0.237247  0  3.54729  0
N  N171  1  0.60016687  0.57196785  0.84028443  1  -0.860024  0  -0.308512  -0.224927  0  3.673115  0
N  N172  1  0.09730406  0.05521091  0.67881112  1  -0.864215  0  -0.316812  -0.234912  0  3.684156  0
N  N173  1  0.95377804  0.89831642  0.42133583  1  -0.802411  0  -0.308778  -0.237193  0  3.559734  0
N  N174  1  0.68272064  0.92186932  0.53370204  1  -0.866369  0  -0.315125  -0.226978  0  3.618393  0
N  N175  1  0.12090372  0.13088189  0.43971439  1  -0.777194  0  -0.294389  -0.208322  0  3.526855  0
N  N176  1  0.38112825  0.48196252  0.82228955  1  -0.807235  0  -0.302085  -0.210267  0  3.642164  0
N  N177  1  0.66162416  0.47682283  0.12309267  1  -0.778268  0  -0.268776  -0.186629  0  3.519984  0
N  N178  1  0.56348326  0.38420700  0.87508973  1  -0.824162  0  -0.29978  -0.190018  0  3.700062  0
N  N179  1  0.42493141  0.55770044  0.14219474  1  -0.774104  0  -0.270904  -0.190235  0  3.484988  0
N  N180  1  0.93111819  0.05746575  0.35894810  1  -0.777956  0  -0.274534  -0.192703  0  3.50668  0
N  N181  1  0.04756081  0.87083194  0.62086011  1  -0.801141  0  -0.296771  -0.185484  0  3.68159  0
N  N182  1  0.17249216  0.98530739  0.38028278  1  -0.789044  0  -0.264955  -0.18467  0  3.493079  0
N  N183  1  0.87464896  0.97586967  0.67879089  1  -0.822948  0  -0.303013  -0.215213  0  3.631687  0
N  N184  1  0.69992269  0.59124200  0.85149649  1  -0.818849  0  -0.297525  -0.329856  0  3.440762  0
N  N185  1  0.34779428  0.39199166  0.05822881  1  -0.839003  0  -0.304871  -0.30433  0  3.502053  0
N  N186  1  0.11947545  0.46311447  0.92842400  1  -0.762649  0  -0.309826  -0.384421  0  3.186628  0
N  N187  1  0.69535467  0.64028930  0.02055529  1  -0.799852  0  -0.301885  -0.303622  0  3.46321  0
N  N188  1  0.20061464  0.13073349  0.48344841  1  -0.791658  0  -0.289207  -0.276395  0  3.52781  0
N  N189  1  0.62712947  0.96723656  0.56540788  1  -0.769224  0  -0.313241  -0.391142  0  3.191592  0
N  N190  1  0.85954152  0.88736061  0.44760826  1  -0.829151  0  -0.305492  -0.303547  0  3.5001  0
N  N191  1  0.19359855  0.07966303  0.65301931  1  -0.810886  0  -0.301182  -0.311356  0  3.450628  0
N  N192  1  0.37216272  0.57153031  0.07875595  1  -0.802802  0  -0.285348  -0.184648  0  3.6174  0
N  N193  1  0.64300933  0.41620086  0.92309500  1  -0.773177  0  -0.266901  -0.193095  0  3.556763  0
N  N194  1  0.73715303  0.49426488  0.06974660  1  -0.786803  0  -0.271223  -0.183196  0  3.555107  0
N  N195  1  0.36219557  0.52632341  0.88519044  1  -0.803251  0  -0.283639  -0.207975  0  3.540972  0
N  N196  1  0.86365798  0.02266587  0.61453541  1  -0.805991  0  -0.283791  -0.205763  0  3.536947  0
N  N197  1  0.24107953  0.99010683  0.43844251  1  -0.80036  0  -0.275381  -0.197709  0  3.572131  0
N  N198  1  0.12820251  0.90389413  0.57464352  1  -0.775977  0  -0.268719  -0.187939  0  3.558086  0
N  N199  1  0.87059511  0.06535948  0.41898989  1  -0.79479  0  -0.279809  -0.173606  0  3.605586  0
N  N200  1  0.84098807  0.70895816  0.82887491  1  -1.235028  0  -0.579264  -0.611079  0  3.295867  0
N  N201  1  0.18582002  0.33350285  0.10781944  1  -1.298832  0  -0.601923  -0.643766  0  3.366769  0
N  N202  1  0.02079015  0.44712289  0.81232001  1  -1.211063  0  -0.59937  -0.627164  0  3.275727  0
N  N203  1  0.86439727  0.71654232  0.01333428  1  -1.278527  0  -0.608974  -0.648658  0  3.31872  0
N  N204  1  0.37366022  0.18256587  0.47732469  1  -1.183816  0  -0.592541  -0.633472  0  3.276754  0
N  N205  1  0.53817458  0.96623444  0.68444955  1  -1.202751  0  -0.594188  -0.622906  0  3.290418  0
N  N206  1  0.69729724  0.80712962  0.40663934  1  -1.26311  0  -0.606162  -0.642927  0  3.323688  0
N  N207  1  0.33051317  0.20418290  0.65818591  1  -1.23243  0  -0.604888  -0.635211  0  3.283181  0
