# generated using pymatgen
data_LiH17C9N4
_symmetry_space_group_name_H-M   'P 1'
_cell_length_a   10.08153859
_cell_length_b   10.29743514
_cell_length_c   11.45963077
_cell_angle_alpha   90.00017230
_cell_angle_beta   90.00009895
_cell_angle_gamma   94.43800367
_symmetry_Int_Tables_number   1
_chemical_formula_structural   LiH17C9N4
_chemical_formula_sum   'Li4 H68 C36 N16'
_cell_volume   1186.10293908
_cell_formula_units_Z   4
loop_
 _symmetry_equiv_pos_site_id
 _symmetry_equiv_pos_as_xyz
  1  'x, y, z'
loop_
 _atom_site_type_symbol
 _atom_site_label
 _atom_site_symmetry_multiplicity
 _atom_site_fract_x
 _atom_site_fract_y
 _atom_site_fract_z
 _atom_site_occupancy
 _atom_site_hle17_bader_spin_density
 _atom_site_hle17_ddec_charge
 _atom_site_hle17_ddec_spin_density
 _atom_site_hle17_ddec_sum_bond_order
 _atom_site_hle17_magmom
 _atom_site_hse06_10hf_bader_spin_density
 _atom_site_hse06_10hf_ddec_charge
 _atom_site_hse06_10hf_ddec_spin_density
 _atom_site_hse06_10hf_ddec_sum_bond_order
 _atom_site_hse06_10hf_magmom
 _atom_site_hse06_bader_spin_density
 _atom_site_hse06_ddec_charge
 _atom_site_hse06_ddec_spin_density
 _atom_site_hse06_ddec_sum_bond_order
 _atom_site_hse06_magmom
 _atom_site_pbe_bader_spin_density
 _atom_site_pbe_cm5_charge
 _atom_site_pbe_ddec_charge
 _atom_site_pbe_ddec_spin_density
 _atom_site_pbe_ddec_sum_bond_order
 _atom_site_pbe_magmom
Li  Li0  1  0.99297697  0.83488014  0.74543427  1  0  0.782641  0  0.521143  0  0  0.712691  0  0.667629  0  0  0.723778  0  0.651258  0  0  0.587963  0.705359  0  0.678183  0
Li  Li1  1  0.49297348  0.33488050  0.75457051  1  0  0.782651  0  0.521114  0  0  0.712693  0  0.667627  0  0  0.723773  0  0.65126  0  0  0.587933  0.705363  0  0.678178  0
Li  Li2  1  0.00702436  0.16512287  0.25456428  1  0  0.782635  0  0.521129  0  0  0.712679  0  0.66764  0  0  0.723762  0  0.651276  0  0  0.587944  0.705349  0  0.678195  0
Li  Li3  1  0.50702289  0.66512250  0.24543764  1  0  0.782631  0  0.521159  0  0  0.712679  0  0.667638  0  0  0.723767  0  0.651269  0  0  0.587939  0.705346  0  0.678196  0
H  H4  1  0.96171190  0.53418636  0.10609824  1  0  0.14167  0  1.00807  0  0  0.147156  0  1.07586  0  0  0.149511  0  1.077023  0  0  0.10539  0.145679  0  1.074929  0
H  H5  1  0.46171703  0.03419210  0.39390401  1  0  0.141839  0  1.00817  0  0  0.147322  0  1.075938  0  0  0.149678  0  1.077101  0  0  0.105479  0.145846  0  1.075009  0
H  H6  1  0.03827479  0.46580688  0.89390206  1  0  0.14181  0  1.008086  0  0  0.147263  0  1.075897  0  0  0.149622  0  1.077056  0  0  0.105443  0.145788  0  1.074967  0
H  H7  1  0.53828880  0.96581773  0.60609628  1  0  0.141764  0  1.008117  0  0  0.147224  0  1.075919  0  0  0.149581  0  1.077079  0  0  0.105424  0.145748  0  1.074989  0
H  H8  1  0.17597581  0.94850795  0.93482036  1  0  0.07905  0  0.96741  0  0  0.095064  0  1.041048  0  0  0.096412  0  1.039989  0  0  0.097547  0.093967  0  1.041967  0
H  H9  1  0.67597624  0.44850838  0.56517901  1  0  0.079045  0  0.967433  0  0  0.095059  0  1.041066  0  0  0.096406  0  1.040008  0  0  0.097537  0.093962  0  1.041984  0
H  H10  1  0.82402423  0.05149116  0.06517644  1  0  0.079026  0  0.967495  0  0  0.095035  0  1.041133  0  0  0.096383  0  1.040074  0  0  0.097533  0.093939  0  1.04205  0
H  H11  1  0.32402495  0.55149267  0.43482477  1  0  0.079047  0  0.967506  0  0  0.095052  0  1.041144  0  0  0.0964  0  1.040086  0  0  0.097562  0.093956  0  1.042058  0
H  H12  1  0.07005207  0.07603360  0.91299990  1  0  0.094291  0  0.947091  0  0  0.1163  0  1.006343  0  0  0.116654  0  1.007425  0  0  0.10548  0.115968  0  1.00561  0
H  H13  1  0.57005253  0.57603657  0.58700092  1  0  0.094326  0  0.947036  0  0  0.116318  0  1.006308  0  0  0.116675  0  1.007384  0  0  0.105473  0.115986  0  1.005575  0
H  H14  1  0.92994668  0.92396161  0.08699952  1  0  0.094273  0  0.94708  0  0  0.116274  0  1.006342  0  0  0.116625  0  1.007429  0  0  0.105457  0.115943  0  1.00561  0
H  H15  1  0.42994843  0.42396156  0.41300024  1  0  0.094283  0  0.947059  0  0  0.11632  0  1.006272  0  0  0.116675  0  1.007352  0  0  0.105469  0.115989  0  1.005537  0
H  H16  1  0.24443237  0.10661714  0.88890855  1  0  0.0761  0  0.948138  0  0  0.096188  0  1.012952  0  0  0.096967  0  1.013524  0  0  0.091864  0.095525  0  1.012697  0
H  H17  1  0.74443274  0.60661825  0.61109524  1  0  0.076104  0  0.94817  0  0  0.096205  0  1.012955  0  0  0.096984  0  1.01353  0  0  0.091883  0.095541  0  1.012702  0
H  H18  1  0.75556965  0.89338197  0.11109524  1  0  0.076069  0  0.948206  0  0  0.096174  0  1.012996  0  0  0.09695  0  1.013569  0  0  0.091883  0.095513  0  1.012741  0
H  H19  1  0.25557142  0.39338281  0.38890592  1  0  0.076091  0  0.948232  0  0  0.096199  0  1.013012  0  0  0.096976  0  1.013587  0  0  0.091884  0.095536  0  1.012758  0
H  H20  1  0.18062337  0.18031710  0.68538023  1  0  0.081214  0  0.944503  0  0  0.100803  0  1.008951  0  0  0.101518  0  1.009662  0  0  0.094742  0.100113  0  1.00882  0
H  H21  1  0.68062305  0.68031697  0.81461843  1  0  0.081223  0  0.944493  0  0  0.100825  0  1.008915  0  0  0.101539  0  1.009626  0  0  0.094752  0.100135  0  1.008786  0
H  H22  1  0.81937591  0.81968493  0.31461745  1  0  0.081209  0  0.944534  0  0  0.100829  0  1.008938  0  0  0.101545  0  1.009648  0  0  0.094742  0.10014  0  1.008804  0
H  H23  1  0.31937913  0.31968409  0.18538099  1  0  0.081262  0  0.944476  0  0  0.100874  0  1.008894  0  0  0.101589  0  1.009603  0  0  0.094767  0.100185  0  1.008763  0
H  H24  1  0.00987444  0.13716180  0.72163863  1  0  0.086286  0  0.943419  0  0  0.107775  0  1.00619  0  0  0.108378  0  1.006637  0  0  0.102006  0.107252  0  1.005983  0
H  H25  1  0.50987488  0.63715960  0.77836228  1  0  0.086262  0  0.943326  0  0  0.107749  0  1.006108  0  0  0.108353  0  1.006554  0  0  0.101995  0.107224  0  1.005902  0
H  H26  1  0.99012659  0.86283731  0.27836080  1  0  0.086265  0  0.943437  0  0  0.10775  0  1.006216  0  0  0.108354  0  1.006662  0  0  0.102001  0.107226  0  1.00601  0
H  H27  1  0.49012615  0.36283951  0.22163889  1  0  0.086275  0  0.943468  0  0  0.107766  0  1.006241  0  0  0.108369  0  1.006688  0  0  0.102  0.107243  0  1.006035  0
H  H28  1  0.08092713  0.06723926  0.59706913  1  0  0.084047  0  0.964539  0  0  0.10177  0  1.034102  0  0  0.102753  0  1.033891  0  0  0.101552  0.101085  0  1.034155  0
H  H29  1  0.58092701  0.56723944  0.90293169  1  0  0.084107  0  0.964532  0  0  0.101804  0  1.034122  0  0  0.102786  0  1.033912  0  0  0.101564  0.10112  0  1.034174  0
H  H30  1  0.91907283  0.93275888  0.40292942  1  0  0.084026  0  0.964593  0  0  0.101761  0  1.034143  0  0  0.102741  0  1.033934  0  0  0.101544  0.101072  0  1.034199  0
H  H31  1  0.41907516  0.43276162  0.09706947  1  0  0.084049  0  0.964531  0  0  0.101769  0  1.034113  0  0  0.102749  0  1.033903  0  0  0.101547  0.101082  0  1.034167  0
H  H32  1  0.29455008  0.87218491  0.78150825  1  0  0.056699  0  0.944074  0  0  0.074978  0  1.006129  0  0  0.075502  0  1.005716  0  0  0.105495  0.074459  0  1.006684  0
H  H33  1  0.79454856  0.37218199  0.71848673  1  0  0.056689  0  0.944043  0  0  0.074939  0  1.006108  0  0  0.07546  0  1.005692  0  0  0.105477  0.074423  0  1.00666  0
H  H34  1  0.70545743  0.12782103  0.21848506  1  0  0.056702  0  0.944088  0  0  0.07496  0  1.006148  0  0  0.075486  0  1.005736  0  0  0.105496  0.074441  0  1.006701  0
H  H35  1  0.20545339  0.62781615  0.28151182  1  0  0.0567  0  0.944093  0  0  0.074943  0  1.006187  0  0  0.075473  0  1.005778  0  0  0.105465  0.074423  0  1.006739  0
H  H36  1  0.33450137  0.00728133  0.68859226  1  0  0.057389  0  0.943558  0  0  0.073332  0  1.010432  0  0  0.073767  0  1.010711  0  0  0.098875  0.072891  0  1.01029  0
H  H37  1  0.83449906  0.50728119  0.81140617  1  0  0.057432  0  0.943476  0  0  0.073335  0  1.010359  0  0  0.073767  0  1.010636  0  0  0.098879  0.072893  0  1.01022  0
H  H38  1  0.66549768  0.99271778  0.31140717  1  0  0.057394  0  0.943571  0  0  0.073314  0  1.010444  0  0  0.073751  0  1.010725  0  0  0.098859  0.072872  0  1.010303  0
H  H39  1  0.16549884  0.49271597  0.18859151  1  0  0.057376  0  0.943536  0  0  0.073324  0  1.010409  0  0  0.073765  0  1.010692  0  0  0.098859  0.072882  0  1.010266  0
H  H40  1  0.17736934  0.90493413  0.53695932  1  0  0.068088  0  0.94158  0  0  0.086257  0  1.002725  0  0  0.086248  0  1.003659  0  0  0.109866  0.086228  0  1.002103  0
H  H41  1  0.67736860  0.40493499  0.96304256  1  0  0.068073  0  0.9416  0  0  0.086219  0  1.002772  0  0  0.086212  0  1.003707  0  0  0.109852  0.086176  0  1.002163  0
H  H42  1  0.82263184  0.09506693  0.46303923  1  0  0.068058  0  0.941623  0  0  0.086194  0  1.002788  0  0  0.086187  0  1.003721  0  0  0.109848  0.086168  0  1.002155  0
H  H43  1  0.32262877  0.59506801  0.03696210  1  0  0.068083  0  0.941625  0  0  0.086228  0  1.002768  0  0  0.086221  0  1.0037  0  0  0.109859  0.086201  0  1.00214  0
H  H44  1  0.31167652  0.81016361  0.56911216  1  0  0.057297  0  0.936052  0  0  0.073494  0  1.002322  0  0  0.073623  0  1.003178  0  0  0.095713  0.073382  0  1.001698  0
H  H45  1  0.81167365  0.31016338  0.93088617  1  0  0.057316  0  0.936036  0  0  0.073502  0  1.002317  0  0  0.073627  0  1.003174  0  0  0.095716  0.073389  0  1.001686  0
H  H46  1  0.68832558  0.18983648  0.43088639  1  0  0.057218  0  0.936092  0  0  0.073395  0  1.002357  0  0  0.073522  0  1.003215  0  0  0.09567  0.073278  0  1.001731  0
H  H47  1  0.18832533  0.68983475  0.06911412  1  0  0.057228  0  0.936097  0  0  0.0734  0  1.002375  0  0  0.073531  0  1.003226  0  0  0.095684  0.073285  0  1.001749  0
H  H48  1  0.26278152  0.59338113  0.64607592  1  0  0.074801  0  0.935284  0  0  0.096068  0  0.998726  0  0  0.097255  0  0.998476  0  0  0.093043  0.095026  0  0.999294  0
H  H49  1  0.76278351  0.09338161  0.85392525  1  0  0.074781  0  0.935281  0  0  0.09606  0  0.998702  0  0  0.097245  0  0.998457  0  0  0.093041  0.095016  0  0.999271  0
H  H50  1  0.73721844  0.40661700  0.35392438  1  0  0.0748  0  0.935273  0  0  0.096068  0  0.998711  0  0  0.097254  0  0.998461  0  0  0.09304  0.095026  0  0.99928  0
H  H51  1  0.23721852  0.90661750  0.14607592  1  0  0.074787  0  0.935264  0  0  0.096055  0  0.998705  0  0  0.09724  0  0.998455  0  0  0.093042  0.095014  0  0.999276  0
H  H52  1  0.10622968  0.55470384  0.71583105  1  0  0.08932  0  0.946635  0  0  0.113836  0  1.003449  0  0  0.114252  0  1.004209  0  0  0.104706  0.113366  0  1.003223  0
H  H53  1  0.60623441  0.05470311  0.78416978  1  0  0.08934  0  0.946597  0  0  0.113823  0  1.003442  0  0  0.114236  0  1.004207  0  0  0.104719  0.113355  0  1.003214  0
H  H54  1  0.89377074  0.44530013  0.28417012  1  0  0.089349  0  0.946592  0  0  0.113822  0  1.003458  0  0  0.114236  0  1.004218  0  0  0.104707  0.113354  0  1.003233  0
H  H55  1  0.39376983  0.94529892  0.21583052  1  0  0.08932  0  0.946604  0  0  0.113811  0  1.003451  0  0  0.114226  0  1.004208  0  0  0.104685  0.113342  0  1.003229  0
H  H56  1  0.22355573  0.66899237  0.78101751  1  0  0.089713  0  0.944374  0  0  0.11132  0  1.005185  0  0  0.112035  0  1.00567  0  0  0.104505  0.11073  0  1.004974  0
H  H57  1  0.72355833  0.16899141  0.71898380  1  0  0.089688  0  0.944475  0  0  0.111283  0  1.005292  0  0  0.111996  0  1.005781  0  0  0.104482  0.110695  0  1.005077  0
H  H58  1  0.77644553  0.33100966  0.21898453  1  0  0.089668  0  0.944494  0  0  0.11129  0  1.005289  0  0  0.112005  0  1.005773  0  0  0.104488  0.110702  0  1.00508  0
H  H59  1  0.27644476  0.83100868  0.28101737  1  0  0.089678  0  0.944456  0  0  0.111294  0  1.005255  0  0  0.11201  0  1.005736  0  0  0.10449  0.110706  0  1.005046  0
H  H60  1  0.12365562  0.64597140  0.46672892  1  0  0.066109  0  0.958662  0  0  0.084151  0  1.029545  0  0  0.085502  0  1.028711  0  0  0.085839  0.083257  0  1.030074  0
H  H61  1  0.62365704  0.14597271  0.03327225  1  0  0.066165  0  0.958601  0  0  0.084185  0  1.02951  0  0  0.085534  0  1.02868  0  0  0.085863  0.083293  0  1.030038  0
H  H62  1  0.87634335  0.35402673  0.53327400  1  0  0.066087  0  0.958609  0  0  0.084143  0  1.029495  0  0  0.085492  0  1.028659  0  0  0.08584  0.083247  0  1.030025  0
H  H63  1  0.37634308  0.85402738  0.96672717  1  0  0.066126  0  0.958617  0  0  0.084179  0  1.029494  0  0  0.085531  0  1.028656  0  0  0.085865  0.083285  0  1.030024  0
H  H64  1  0.00217475  0.76217000  0.48659873  1  0  0.093655  0  0.965348  0  0  0.11509  0  1.026933  0  0  0.115568  0  1.027692  0  0  0.105929  0.114686  0  1.026469  0
H  H65  1  0.50217505  0.26217026  0.01340082  1  0  0.093642  0  0.96535  0  0  0.115079  0  1.026926  0  0  0.115556  0  1.02769  0  0  0.105922  0.114677  0  1.026464  0
H  H66  1  0.99782353  0.23783203  0.51340244  1  0  0.093665  0  0.965389  0  0  0.115105  0  1.026966  0  0  0.115579  0  1.027725  0  0  0.10592  0.114701  0  1.026504  0
H  H67  1  0.49782407  0.73782983  0.98659773  1  0  0.093654  0  0.965343  0  0  0.115088  0  1.026933  0  0  0.115565  0  1.027692  0  0  0.10592  0.114682  0  1.026474  0
H  H68  1  0.97920603  0.60693028  0.55410406  1  0  0.087356  0  0.949015  0  0  0.109073  0  1.010758  0  0  0.109737  0  1.011021  0  0  0.10309  0.108477  0  1.010747  0
H  H69  1  0.47920594  0.10693132  0.94589660  1  0  0.087326  0  0.949024  0  0  0.109061  0  1.010742  0  0  0.109726  0  1.011008  0  0  0.103089  0.108466  0  1.01073  0
H  H70  1  0.02079714  0.39307078  0.44590060  1  0  0.087335  0  0.949044  0  0  0.109096  0  1.010739  0  0  0.109762  0  1.010999  0  0  0.103108  0.1085  0  1.010729  0
H  H71  1  0.52079326  0.89306973  0.05410369  1  0  0.087331  0  0.949008  0  0  0.109041  0  1.010766  0  0  0.109707  0  1.011026  0  0  0.103081  0.108444  0  1.010757  0
C  C72  1  0.89644899  0.60444357  0.07194448  1  0  -0.471001  0  3.969713  0  0  -0.476241  0  4.222889  0  0  -0.492733  0  4.239498  0  0  -0.170418  -0.465232  0  4.211223  0
C  C73  1  0.39645877  0.10445723  0.42803256  1  0  -0.471268  0  3.969586  0  0  -0.476529  0  4.222783  0  0  -0.493019  0  4.239393  0  0  -0.170513  -0.465518  0  4.211123  0
C  C74  1  0.10354242  0.39555942  0.92805233  1  0  -0.47115  0  3.969725  0  0  -0.476362  0  4.222904  0  0  -0.492853  0  4.23951  0  0  -0.170466  -0.465354  0  4.211239  0
C  C75  1  0.60354744  0.89555747  0.57194941  1  0  -0.471094  0  3.969857  0  0  -0.476304  0  4.223015  0  0  -0.492794  0  4.239624  0  0  -0.170408  -0.465295  0  4.21135  0
C  C76  1  0.93609716  0.67943037  0.97656450  1  0  0.379381  0  3.994252  0  0  0.367454  0  4.261418  0  0  0.384423  0  4.278101  0  0  0.170385  0.356152  0  4.249763  0
C  C77  1  0.43608531  0.17940556  0.52344763  1  0  0.379681  0  3.99432  0  0  0.367761  0  4.261472  0  0  0.384726  0  4.278157  0  0  0.170438  0.356459  0  4.249818  0
C  C78  1  0.06390227  0.32057360  0.02343405  1  0  0.379406  0  3.994618  0  0  0.367473  0  4.26176  0  0  0.384438  0  4.278445  0  0  0.170433  0.356174  0  4.250109  0
C  C79  1  0.56390941  0.82057601  0.47656488  1  0  0.379353  0  3.994524  0  0  0.367417  0  4.261679  0  0  0.384382  0  4.278364  0  0  0.170387  0.356116  0  4.250024  0
C  C80  1  0.77123594  0.61172879  0.11913352  1  0  0.389173  0  3.971525  0  0  0.37973  0  4.2319  0  0  0.396187  0  4.250097  0  0  0.175926  0.368623  0  4.219906  0
C  C81  1  0.27122356  0.11173932  0.38086603  1  0  0.389296  0  3.971568  0  0  0.379864  0  4.231925  0  0  0.396319  0  4.250123  0  0  0.176048  0.368758  0  4.219937  0
C  C82  1  0.22876343  0.38826155  0.88086677  1  0  0.389126  0  3.971499  0  0  0.379676  0  4.231863  0  0  0.39613  0  4.250067  0  0  0.17589  0.368571  0  4.219866  0
C  C83  1  0.72876282  0.88826269  0.61914037  1  0  0.389216  0  3.971425  0  0  0.379781  0  4.231782  0  0  0.396239  0  4.24998  0  0  0.175938  0.368673  0  4.219786  0
C  C84  1  0.15904526  0.03302908  0.88009920  1  0  -0.17503  0  3.713306  0  0  -0.266651  0  3.965866  0  0  -0.264695  0  3.975805  0  0  -0.142139  -0.267638  0  3.958905  0
C  C85  1  0.65904641  0.53302730  0.61989990  1  0  -0.175084  0  3.713322  0  0  -0.266675  0  3.965881  0  0  -0.264722  0  3.975824  0  0  -0.142153  -0.267665  0  3.958919  0
C  C86  1  0.84095501  0.96697295  0.11989760  1  0  -0.174971  0  3.713321  0  0  -0.266575  0  3.965896  0  0  -0.264616  0  3.975834  0  0  -0.142123  -0.267564  0  3.958939  0
C  C87  1  0.34095562  0.46697181  0.38010301  1  0  -0.175032  0  3.713363  0  0  -0.26665  0  3.965906  0  0  -0.264695  0  3.975844  0  0  -0.14215  -0.267639  0  3.958944  0
C  C88  1  0.10107917  0.10009177  0.68680943  1  0  -0.175393  0  3.707717  0  0  -0.267725  0  3.960588  0  0  -0.265977  0  3.970904  0  0  -0.142985  -0.268557  0  3.953364  0
C  C89  1  0.60108060  0.60008872  0.81319064  1  0  -0.17543  0  3.7077  0  0  -0.267742  0  3.960624  0  0  -0.265996  0  3.970942  0  0  -0.142986  -0.26856  0  3.953361  0
C  C90  1  0.89892103  0.89990928  0.31319000  1  0  -0.175343  0  3.707763  0  0  -0.267684  0  3.960623  0  0  -0.265938  0  3.970938  0  0  -0.142962  -0.268513  0  3.953397  0
C  C91  1  0.39892333  0.39990942  0.18681053  1  0  -0.175448  0  3.707751  0  0  -0.26779  0  3.960642  0  0  -0.266042  0  3.970955  0  0  -0.142997  -0.268629  0  3.953431  0
C  C92  1  0.25477306  0.93173597  0.71193277  1  0  -0.030294  0  3.669973  0  0  -0.083677  0  3.924824  0  0  -0.080951  0  3.937066  0  0  -0.067311  -0.085558  0  3.916723  0
C  C93  1  0.75477170  0.43173329  0.78806494  1  0  -0.030332  0  3.669882  0  0  -0.083593  0  3.924639  0  0  -0.080849  0  3.93686  0  0  -0.067309  -0.085479  0  3.916538  0
C  C94  1  0.74522507  0.06826411  0.28806142  1  0  -0.030362  0  3.670008  0  0  -0.083671  0  3.924754  0  0  -0.080953  0  3.937008  0  0  -0.067288  -0.085552  0  3.916653  0
C  C95  1  0.24522621  0.56826387  0.21193797  1  0  -0.030289  0  3.669927  0  0  -0.083654  0  3.924758  0  0  -0.080954  0  3.937035  0  0  -0.06728  -0.085529  0  3.916647  0
C  C96  1  0.21982540  0.84641847  0.60576341  1  0  -0.035429  0  3.665881  0  0  -0.089959  0  3.921774  0  0  -0.087379  0  3.93496  0  0  -0.068926  -0.0917  0  3.912704  0
C  C97  1  0.71982564  0.34642104  0.89423663  1  0  -0.035372  0  3.665784  0  0  -0.089891  0  3.92166  0  0  -0.087315  0  3.934834  0  0  -0.06888  -0.091601  0  3.912589  0
C  C98  1  0.78017655  0.15357967  0.39423427  1  0  -0.035318  0  3.665999  0  0  -0.089772  0  3.921757  0  0  -0.087183  0  3.934933  0  0  -0.06887  -0.091495  0  3.912661  0
C  C99  1  0.28017753  0.65358002  0.10576628  1  0  -0.035371  0  3.666  0  0  -0.089823  0  3.921805  0  0  -0.087228  0  3.934986  0  0  -0.068898  -0.091561  0  3.912712  0
C  C100  1  0.18233840  0.63386046  0.69721892  1  0  -0.168005  0  3.710281  0  0  -0.260207  0  3.962564  0  0  -0.258633  0  3.973765  0  0  -0.13978  -0.261074  0  3.954898  0
C  C101  1  0.68233928  0.13386077  0.80278311  1  0  -0.167974  0  3.710342  0  0  -0.260131  0  3.962611  0  0  -0.258563  0  3.973815  0  0  -0.139776  -0.260991  0  3.95497  0
C  C102  1  0.81766576  0.36614060  0.30278312  1  0  -0.168008  0  3.710335  0  0  -0.260198  0  3.962633  0  0  -0.258624  0  3.973835  0  0  -0.139768  -0.261053  0  3.954953  0
C  C103  1  0.31766481  0.86613932  0.19721806  1  0  -0.167925  0  3.710352  0  0  -0.26013  0  3.96265  0  0  -0.258552  0  3.97385  0  0  -0.139733  -0.260994  0  3.954967  0
C  C104  1  0.05375942  0.68561732  0.52970739  1  0  -0.171549  0  3.711668  0  0  -0.261431  0  3.959801  0  0  -0.259334  0  3.969762  0  0  -0.140401  -0.262631  0  3.952709  0
C  C105  1  0.55376060  0.18561723  0.97029284  1  0  -0.171561  0  3.711676  0  0  -0.261428  0  3.959805  0  0  -0.25934  0  3.96977  0  0  -0.140409  -0.262617  0  3.952723  0
C  C106  1  0.94624368  0.31438277  0.47029291  1  0  -0.171498  0  3.71158  0  0  -0.261445  0  3.959717  0  0  -0.259344  0  3.969674  0  0  -0.14038  -0.26264  0  3.952633  0
C  C107  1  0.44623944  0.81438187  0.02970746  1  0  -0.171511  0  3.711568  0  0  -0.261411  0  3.959727  0  0  -0.259312  0  3.969686  0  0  -0.1404  -0.262615  0  3.95264  0
N  N108  1  0.96962057  0.74255362  0.89429931  1  0  -0.624943  0  2.700287  0  0  -0.590392  0  2.952042  0  0  -0.60393  0  2.956757  0  0  -0.463  -0.581227  0  2.948595  0
N  N109  1  0.46961896  0.24254373  0.60569472  1  0  -0.625135  0  2.700435  0  0  -0.590607  0  2.952227  0  0  -0.604141  0  2.956946  0  0  -0.463019  -0.58144  0  2.948781  0
N  N110  1  0.03037650  0.25744548  0.10568702  1  0  -0.624913  0  2.70049  0  0  -0.590373  0  2.952272  0  0  -0.603906  0  2.956985  0  0  -0.463017  -0.581211  0  2.94883  0
N  N111  1  0.53038200  0.75745441  0.39430383  1  0  -0.624865  0  2.700365  0  0  -0.590335  0  2.952171  0  0  -0.603873  0  2.956887  0  0  -0.463004  -0.581173  0  2.948725  0
N  N112  1  0.66427722  0.61768469  0.15949164  1  0  -0.623402  0  2.690578  0  0  -0.587034  0  2.93739  0  0  -0.600811  0  2.943297  0  0  -0.461483  -0.578115  0  2.933522  0
N  N113  1  0.16427178  0.11768341  0.34050864  1  0  -0.623536  0  2.690901  0  0  -0.587171  0  2.937709  0  0  -0.600945  0  2.943614  0  0  -0.46163  -0.578255  0  2.933847  0
N  N114  1  0.33571847  0.38232220  0.84050604  1  0  -0.623391  0  2.690746  0  0  -0.58701  0  2.937553  0  0  -0.600784  0  2.94347  0  0  -0.461491  -0.578091  0  2.933677  0
N  N115  1  0.83572948  0.88231863  0.65949253  1  0  -0.623463  0  2.690559  0  0  -0.587115  0  2.937395  0  0  -0.600894  0  2.943302  0  0  -0.461551  -0.578196  0  2.933525  0
N  N116  1  0.13720305  0.99055311  0.75910705  1  0  -0.231458  0  3.321025  0  0  -0.14055  0  3.574155  0  0  -0.153636  0  3.593533  0  0  -0.425427  -0.131509  0  3.560245  0
N  N117  1  0.63720089  0.49055416  0.74089151  1  0  -0.23143  0  3.3211  0  0  -0.140587  0  3.574248  0  0  -0.153678  0  3.593626  0  0  -0.425406  -0.131546  0  3.560339  0
N  N118  1  0.86279905  0.00944698  0.24089063  1  0  -0.231404  0  3.320873  0  0  -0.140573  0  3.574056  0  0  -0.153655  0  3.593435  0  0  -0.425437  -0.131533  0  3.560152  0
N  N119  1  0.36279930  0.50944690  0.25910879  1  0  -0.231396  0  3.320884  0  0  -0.140541  0  3.574083  0  0  -0.153619  0  3.593467  0  0  -0.425427  -0.131502  0  3.560173  0
N  N120  1  0.12103383  0.73790988  0.63468559  1  0  -0.227799  0  3.323746  0  0  -0.13866  0  3.582427  0  0  -0.151986  0  3.602095  0  0  -0.418031  -0.128987  0  3.568064  0
N  N121  1  0.62103187  0.23791040  0.86531488  1  0  -0.227855  0  3.323645  0  0  -0.138748  0  3.582402  0  0  -0.152046  0  3.601999  0  0  -0.418063  -0.129118  0  3.568079  0
N  N122  1  0.87896919  0.26208923  0.36531384  1  0  -0.227776  0  3.323741  0  0  -0.138645  0  3.58239  0  0  -0.151974  0  3.60207  0  0  -0.418048  -0.128994  0  3.568051  0
N  N123  1  0.37896726  0.76208968  0.13468716  1  0  -0.227832  0  3.323938  0  0  -0.138673  0  3.582528  0  0  -0.152016  0  3.602238  0  0  -0.418025  -0.128993  0  3.568162  0
