# generated using pymatgen
data_CdH32C28(N3O)4
_symmetry_space_group_name_H-M   'P 1'
_cell_length_a   7.16127505
_cell_length_b   9.05991575
_cell_length_c   12.93158337
_cell_angle_alpha   73.72747896
_cell_angle_beta   87.86478719
_cell_angle_gamma   70.51839106
_symmetry_Int_Tables_number   1
_chemical_formula_structural   CdH32C28(N3O)4
_chemical_formula_sum   'Cd1 H32 C28 N12 O4'
_cell_volume   757.82214309
_cell_formula_units_Z   1
loop_
 _symmetry_equiv_pos_site_id
 _symmetry_equiv_pos_as_xyz
  1  'x, y, z'
loop_
 _atom_site_type_symbol
 _atom_site_label
 _atom_site_symmetry_multiplicity
 _atom_site_fract_x
 _atom_site_fract_y
 _atom_site_fract_z
 _atom_site_occupancy
 _atom_site_pbe_bader_spin_density
 _atom_site_pbe_cm5_charge
 _atom_site_pbe_ddec_charge
 _atom_site_pbe_ddec_spin_density
 _atom_site_pbe_ddec_sum_bond_order
 _atom_site_pbe_magmom
Cd  Cd0  1  0.49999885  0.50000877  0.99999868  1  0  0.833818  0.904303  0  2.408947  0
H  H1  1  0.63948444  0.44658276  0.24120166  1  0  0.120927  0.095018  0  0.994872  0
H  H2  1  0.36053504  0.55340821  0.75879939  1  0  0.120879  0.095014  0  0.994917  0
H  H3  1  0.57067536  0.32912296  0.43094479  1  0  0.116021  0.132747  0  1.027186  0
H  H4  1  0.42933248  0.67086910  0.56905475  1  0  0.116032  0.13276  0  1.027173  0
H  H5  1  0.02731643  0.31245928  0.30568014  1  0  0.114785  0.125576  0  1.024014  0
H  H6  1  0.97269306  0.68753884  0.69431651  1  0  0.114786  0.12554  0  1.024044  0
H  H7  1  0.11889949  0.43338873  0.12170530  1  0  0.110993  0.070902  0  1.035667  0
H  H8  1  0.88110354  0.56662156  0.87828810  1  0  0.111007  0.070892  0  1.035675  0
H  H9  1  0.43055204  0.28652707  0.72880524  1  0  0.094564  0.138739  0  1.007692  0
H  H10  1  0.56945250  0.71346617  0.27119335  1  0  0.094549  0.138727  0  1.00772  0
H  H11  1  0.19967517  0.29852460  0.78653283  1  0  0.091759  0.134783  0  1.028408  0
H  H12  1  0.80032996  0.70147740  0.21346850  1  0  0.091736  0.134743  0  1.028434  0
H  H13  1  0.20460747  0.40568746  0.64817511  1  0  0.087962  0.123884  0  1.05958  0
H  H14  1  0.79539590  0.59431203  0.35182525  1  0  0.087967  0.123905  0  1.059684  0
H  H15  1  0.41524164  0.87616172  0.74725004  1  0  0.088078  0.124727  0  1.062618  0
H  H16  1  0.58474120  0.12384008  0.25274953  1  0  0.088046  0.124638  0  1.062728  0
H  H17  1  0.31977241  0.98210199  0.84457645  1  0  0.096622  0.148938  0  0.99257  0
H  H18  1  0.68023303  0.01789244  0.15542109  1  0  0.096606  0.148881  0  0.992428  0
H  H19  1  0.54536739  0.99064260  0.78585837  1  0  0.094236  0.13759  0  1.001019  0
H  H20  1  0.45462728  0.00934073  0.21414102  1  0  0.09423  0.137608  0  1.00098  0
H  H21  1  0.92876915  0.99975914  0.60154926  1  0  0.096939  0.150688  0  1.015699  0
H  H22  1  0.07122171  0.00024011  0.39844757  1  0  0.096943  0.150682  0  1.015799  0
H  H23  1  0.08697303  0.90060365  0.72159388  1  0  0.09249  0.14067  0  1.014887  0
H  H24  1  0.91301147  0.09939075  0.27840569  1  0  0.092485  0.140704  0  1.014964  0
H  H25  1  0.19192283  0.92523563  0.59307410  1  0  0.089711  0.123923  0  1.057089  0
H  H26  1  0.80806660  0.07476379  0.40692660  1  0  0.089663  0.123861  0  1.057106  0
H  H27  1  0.89089267  0.35284272  0.69985768  1  0  0.085937  0.121321  0  1.059821  0
H  H28  1  0.10911517  0.64716276  0.30013820  1  0  0.085932  0.121339  0  1.059849  0
H  H29  1  0.92355337  0.15567009  0.78986950  1  0  0.097573  0.14834  0  0.97751  0
H  H30  1  0.07643798  0.84434146  0.21012623  1  0  0.097562  0.148351  0  0.977452  0
H  H31  1  0.76571189  0.22804054  0.67017670  1  0  0.092952  0.134424  0  1.031954  0
H  H32  1  0.23428298  0.77197602  0.32982019  1  0  0.092932  0.134365  0  1.031908  0
C  C33  1  0.50456875  0.41647370  0.25942132  1  0  0.053627  0.102881  0  3.936022  0
C  C34  1  0.49543554  0.58352684  0.74057493  1  0  0.053645  0.102816  0  3.936118  0
C  C35  1  0.46581225  0.35012347  0.36518294  1  0  -0.069813  -0.152092  0  3.886249  0
C  C36  1  0.53418621  0.64987093  0.63481476  1  0  -0.069734  -0.151956  0  3.886265  0
C  C37  1  0.29292423  0.30808155  0.38403349  1  0  0.021966  0.09144  0  4.004641  0
C  C38  1  0.70707673  0.69192040  0.61596717  1  0  0.021942  0.091303  0  4.00483  0
C  C39  1  0.16429025  0.34009187  0.29488525  1  0  -0.071722  -0.150577  0  3.910749  0
C  C40  1  0.83570965  0.65991581  0.70510570  1  0  -0.071767  -0.150604  0  3.91078  0
C  C41  1  0.21556672  0.40766226  0.19237846  1  0  0.045876  0.089761  0  3.974669  0
C  C42  1  0.78442737  0.59234948  0.80762103  1  0  0.045956  0.089915  0  3.97455  0
C  C43  1  0.24735728  0.23714740  0.49307659  1  0  0.217743  0.07505  0  3.938664  0
C  C44  1  0.75263773  0.76285201  0.50692321  1  0  0.217701  0.075114  0  3.939169  0
C  C45  1  0.28401281  0.13979918  0.68261001  1  0  0.084856  0.197087  0  3.754176  0
C  C46  1  0.71598144  0.86019533  0.31739085  1  0  0.084827  0.196973  0  3.754086  0
C  C47  1  0.07636018  0.14816379  0.64439656  1  0  0.086555  0.20202  0  3.742911  0
C  C48  1  0.92363523  0.85183800  0.35560117  1  0  0.086607  0.202093  0  3.742982  0
C  C49  1  0.27822508  0.29335088  0.71259461  1  0  -0.247872  -0.45182  0  3.884817  0
C  C50  1  0.72177906  0.70664001  0.28740681  1  0  -0.247856  -0.451786  0  3.884885  0
C  C51  1  0.39788384  0.98724761  0.76976106  1  0  -0.246956  -0.435461  0  3.896639  0
C  C52  1  0.60210637  0.01275660  0.23023627  1  0  -0.246914  -0.435321  0  3.896249  0
C  C53  1  0.07186541  0.98228998  0.63929332  1  0  -0.248274  -0.457335  0  3.86495  0
C  C54  1  0.92812353  0.01771056  0.36070483  1  0  -0.248213  -0.457225  0  3.865194  0
C  C55  1  0.90363422  0.22738026  0.70462553  1  0  -0.245773  -0.4354  0  3.890278  0
C  C56  1  0.09636476  0.77262631  0.29536800  1  0  -0.245718  -0.43534  0  3.890178  0
C  C57  1  0.03007186  0.74622184  0.95951988  1  0  0.305005  0.44665  0  4.273146  0
C  C58  1  0.96993146  0.25378821  0.04049600  1  0  0.305161  0.447031  0  4.272866  0
C  C59  1  0.71979934  0.76272963  0.01018944  1  0  0.305684  0.44401  0  4.264041  0
C  C60  1  0.28020815  0.23727018  0.98981772  1  0  0.305624  0.444002  0  4.263871  0
N  N61  1  0.38357376  0.44342652  0.17408394  1  0  -0.328161  -0.245017  0  3.514885  0
N  N62  1  0.61643595  0.55657789  0.82591521  1  0  -0.328216  -0.245087  0  3.514959  0
N  N63  1  0.38512320  0.15018973  0.57712995  1  0  -0.101481  0.191973  0  3.807661  0
N  N64  1  0.61489737  0.84979536  0.42287775  1  0  -0.101443  0.191987  0  3.807609  0
N  N65  1  0.06308552  0.25256912  0.52867805  1  0  -0.105825  0.189362  0  3.799067  0
N  N66  1  0.93689239  0.74742769  0.47132115  1  0  -0.106009  0.189121  0  3.799314  0
N  N67  1  0.58346154  0.71596811  0.02978062  1  0  -0.3894  -0.538172  0  3.014163  0
N  N68  1  0.41654118  0.28403633  0.97022024  1  0  -0.389487  -0.538228  0  3.014062  0
N  N69  1  0.18441691  0.68394749  0.92700273  1  0  -0.393138  -0.559906  0  3.056658  0
N  N70  1  0.81558076  0.31606597  0.07300714  1  0  -0.393213  -0.560076  0  3.056712  0
N  N71  1  0.86290036  0.82309569  0.99266570  1  0  -0.310527  -0.386819  0  3.476929  0
N  N72  1  0.13710481  0.17688960  0.00734850  1  0  -0.310488  -0.387022  0  3.476443  0
O  O73  1  0.57338569  0.10236557  0.57252386  1  0  -0.168205  -0.356435  0  1.971982  0
O  O74  1  0.42661063  0.89762389  0.42747417  1  0  -0.168291  -0.356534  0  1.971621  0
O  O75  1  0.89759866  0.33243988  0.47318948  1  0  -0.182507  -0.365489  0  1.929668  0
O  O76  1  0.10240087  0.66755184  0.52680336  1  0  -0.182496  -0.365476  0  1.929608  0
