# generated using pymatgen
data_AgH16C22N6O2F3
_symmetry_space_group_name_H-M   'P 1'
_cell_length_a   10.09633706
_cell_length_b   10.99259093
_cell_length_c   11.26601517
_cell_angle_alpha   64.35498251
_cell_angle_beta   77.28130808
_cell_angle_gamma   72.87020322
_symmetry_Int_Tables_number   1
_chemical_formula_structural   AgH16C22N6O2F3
_chemical_formula_sum   'Ag2 H32 C44 N12 O4 F6'
_cell_volume   1070.93334241
_cell_formula_units_Z   2
loop_
 _symmetry_equiv_pos_site_id
 _symmetry_equiv_pos_as_xyz
  1  'x, y, z'
loop_
 _atom_site_type_symbol
 _atom_site_label
 _atom_site_symmetry_multiplicity
 _atom_site_fract_x
 _atom_site_fract_y
 _atom_site_fract_z
 _atom_site_occupancy
 _atom_site_hle17_bader_spin_density
 _atom_site_hle17_ddec_charge
 _atom_site_hle17_ddec_spin_density
 _atom_site_hle17_ddec_sum_bond_order
 _atom_site_hle17_magmom
 _atom_site_hse06_10hf_bader_spin_density
 _atom_site_hse06_10hf_ddec_charge
 _atom_site_hse06_10hf_ddec_spin_density
 _atom_site_hse06_10hf_ddec_sum_bond_order
 _atom_site_hse06_10hf_magmom
 _atom_site_hse06_bader_spin_density
 _atom_site_hse06_ddec_charge
 _atom_site_hse06_ddec_spin_density
 _atom_site_hse06_ddec_sum_bond_order
 _atom_site_hse06_magmom
 _atom_site_pbe_bader_spin_density
 _atom_site_pbe_cm5_charge
 _atom_site_pbe_ddec_charge
 _atom_site_pbe_ddec_spin_density
 _atom_site_pbe_ddec_sum_bond_order
 _atom_site_pbe_magmom
Ag  Ag0  1  0.51034542  0.40971694  0.16751381  1  0  0.549655  0  1.390984  0  0  0.399707  0  1.863802  0  0  0.432113  0  1.808567  0  0  0.446616  0.377468  0  1.902023  0
Ag  Ag1  1  0.48965446  0.59028486  0.83248576  1  0  0.549619  0  1.391007  0  0  0.399673  0  1.863809  0  0  0.432078  0  1.808578  0  0  0.446605  0.377439  0  1.902021  0
H  H2  1  0.05331217  0.04475462  0.68107229  1  0  0.102721  0  0.936845  0  0  0.115358  0  0.993169  0  0  0.118267  0  0.991831  0  0  0.104713  0.112997  0  0.99485  0
H  H3  1  0.94668591  0.95524614  0.31892808  1  0  0.10276  0  0.936806  0  0  0.115413  0  0.99312  0  0  0.118319  0  0.991784  0  0  0.104727  0.113049  0  0.994802  0
H  H4  1  0.11873668  0.36154132  0.26179699  1  0  0.091738  0  0.934768  0  0  0.104475  0  1.003032  0  0  0.104758  0  1.002668  0  0  0.11483  0.103934  0  1.003076  0
H  H5  1  0.88126718  0.63845635  0.73820175  1  0  0.091785  0  0.934751  0  0  0.104485  0  1.003053  0  0  0.104767  0  1.00269  0  0  0.114844  0.103953  0  1.003103  0
H  H6  1  0.00964221  0.25386220  0.38063437  1  0  0.091511  0  0.953323  0  0  0.102074  0  1.025319  0  0  0.102082  0  1.026301  0  0  0.114722  0.102092  0  1.023959  0
H  H7  1  0.99036095  0.74613857  0.61936410  1  0  0.091529  0  0.953327  0  0  0.102113  0  1.025297  0  0  0.102121  0  1.02628  0  0  0.114754  0.102142  0  1.02394  0
H  H8  1  0.83152730  0.35710389  0.54099702  1  0  0.090155  0  0.950304  0  0  0.100547  0  1.013095  0  0  0.102933  0  1.012512  0  0  0.096766  0.098768  0  1.013724  0
H  H9  1  0.16847483  0.64289688  0.45900076  1  0  0.090137  0  0.950308  0  0  0.100535  0  1.013095  0  0  0.10292  0  1.012513  0  0  0.096783  0.098755  0  1.013722  0
H  H10  1  0.18576884  0.52530680  0.31055721  1  0  0.103151  0  0.987308  0  0  0.110764  0  1.057074  0  0  0.113916  0  1.054925  0  0  0.09561  0.108467  0  1.058907  0
H  H11  1  0.81423329  0.47469397  0.68944057  1  0  0.103182  0  0.9873  0  0  0.110797  0  1.057054  0  0  0.113949  0  1.054904  0  0  0.095618  0.108499  0  1.058888  0
H  H12  1  0.08330402  0.62819439  0.09549842  1  0  0.114895  0  0.964038  0  0  0.124398  0  1.025947  0  0  0.126826  0  1.025526  0  0  0.105098  0.12286  0  1.026064  0
H  H13  1  0.91670006  0.37180224  0.90449805  1  0  0.114942  0  0.964014  0  0  0.12444  0  1.025933  0  0  0.126867  0  1.025515  0  0  0.105093  0.122938  0  1.026009  0
H  H14  1  0.19213306  0.91201435  0.35692757  1  0  0.097067  0  0.953417  0  0  0.107193  0  1.01558  0  0  0.110354  0  1.013555  0  0  0.101409  0.104673  0  1.017514  0
H  H15  1  0.80786502  0.08798642  0.64307192  1  0  0.097076  0  0.953426  0  0  0.107202  0  1.015586  0  0  0.110365  0  1.01356  0  0  0.101434  0.10468  0  1.017526  0
H  H16  1  0.61985042  0.70237015  0.94168335  1  0  0.109416  0  0.986593  0  0  0.116055  0  1.057571  0  0  0.119709  0  1.054159  0  0  0.099403  0.113139  0  1.060514  0
H  H17  1  0.38014946  0.29763165  0.05831711  1  0  0.109412  0  0.986579  0  0  0.116054  0  1.057553  0  0  0.119709  0  1.054142  0  0  0.099397  0.113142  0  1.060495  0
H  H18  1  0.77318804  0.86758952  0.81897085  1  0  0.087664  0  0.972893  0  0  0.091055  0  1.04815  0  0  0.09384  0  1.046968  0  0  0.095149  0.088983  0  1.049142  0
H  H19  1  0.22681231  0.13241021  0.18102950  1  0  0.087695  0  0.97288  0  0  0.091043  0  1.048176  0  0  0.093833  0  1.046989  0  0  0.095142  0.08897  0  1.049168  0
H  H20  1  0.99930411  0.83325450  0.89428131  1  0  0.090063  0  0.951712  0  0  0.098432  0  1.017124  0  0  0.101159  0  1.015749  0  0  0.096137  0.096168  0  1.018868  0
H  H21  1  0.00069671  0.16674316  0.10571804  1  0  0.090054  0  0.951687  0  0  0.098427  0  1.017101  0  0  0.101153  0  1.015727  0  0  0.096138  0.096162  0  1.018844  0
H  H22  1  0.32453174  0.00080836  0.78266470  1  0  0.119386  0  0.984722  0  0  0.122214  0  1.057075  0  0  0.126492  0  1.053601  0  0  0.100443  0.119204  0  1.059492  0
H  H23  1  0.67546485  0.99919448  0.21733421  1  0  0.119314  0  0.984816  0  0  0.122178  0  1.057128  0  0  0.126456  0  1.053653  0  0  0.10043  0.119168  0  1.059543  0
H  H24  1  0.47132778  0.43936087  0.45011641  1  0  0.102986  0  0.963872  0  0  0.114113  0  1.027098  0  0  0.116713  0  1.025521  0  0  0.105456  0.11224  0  1.028146  0
H  H25  1  0.52867357  0.56063887  0.54988196  1  0  0.103024  0  0.963875  0  0  0.114132  0  1.027123  0  0  0.116729  0  1.025551  0  0  0.10545  0.112258  0  1.028173  0
H  H26  1  0.30645756  0.89049283  0.64563066  1  0  0.106378  0  0.910279  0  0  0.120797  0  0.974937  0  0  0.12214  0  0.973245  0  0  0.123391  0.119574  0  0.976525  0
H  H27  1  0.69354130  0.10950897  0.35436912  1  0  0.106383  0  0.910264  0  0  0.120799  0  0.974927  0  0  0.122145  0  0.97323  0  0  0.123383  0.119577  0  0.976514  0
H  H28  1  0.35678307  0.89125679  0.48430591  1  0  0.090609  0  0.946842  0  0  0.103585  0  1.012225  0  0  0.103876  0  1.013345  0  0  0.116965  0.103145  0  1.011853  0
H  H29  1  0.64321477  0.10874501  0.51569319  1  0  0.090628  0  0.946811  0  0  0.103598  0  1.012199  0  0  0.103889  0  1.013318  0  0  0.116972  0.103159  0  1.011827  0
H  H30  1  0.38744957  0.15811346  0.85601519  1  0  0.097183  0  0.953392  0  0  0.105709  0  1.01618  0  0  0.108186  0  1.015621  0  0  0.099008  0.103885  0  1.016695  0
H  H31  1  0.61254726  0.84188833  0.14398499  1  0  0.097165  0  0.953391  0  0  0.105741  0  1.016119  0  0  0.108216  0  1.015563  0  0  0.09902  0.103928  0  1.016624  0
H  H32  1  0.46131316  0.37067453  0.69575160  1  0  0.085719  0  0.967628  0  0  0.094497  0  1.035186  0  0  0.097015  0  1.034275  0  0  0.096101  0.092681  0  1.035876  0
H  H33  1  0.53868568  0.62932728  0.30424552  1  0  0.08572  0  0.96764  0  0  0.094499  0  1.035197  0  0  0.097015  0  1.034292  0  0  0.096096  0.092683  0  1.035887  0
C  C34  1  0.89633796  0.55124899  0.12984697  1  0  0.093401  0  3.798297  0  0  0.070987  0  4.039054  0  0  0.083913  0  4.063758  0  0  0.105017  0.068959  0  4.023656  0
C  C35  1  0.10366465  0.44874971  0.87015248  1  0  0.093426  0  3.798252  0  0  0.071012  0  4.039047  0  0  0.083948  0  4.063724  0  0  0.105013  0.068983  0  4.023655  0
C  C36  1  0.03042900  0.02440609  0.60196528  1  0  -0.105247  0  3.73212  0  0  -0.126028  0  3.981145  0  0  -0.128143  0  4.002209  0  0  -0.087102  -0.12488  0  3.967826  0
C  C37  1  0.96956806  0.97559468  0.39803440  1  0  -0.105335  0  3.731993  0  0  -0.126144  0  3.981031  0  0  -0.128257  0  4.002092  0  0  -0.087105  -0.124995  0  3.967711  0
C  C38  1  0.01938512  0.36149659  0.32537703  1  0  -0.056068  0  3.646319  0  0  -0.135557  0  3.89697  0  0  -0.121825  0  3.908684  0  0  -0.045969  -0.138295  0  3.89044  0
C  C39  1  0.98061725  0.63850314  0.67462025  1  0  -0.056094  0  3.64636  0  0  -0.135579  0  3.897076  0  0  -0.121849  0  3.90878  0  0  -0.045996  -0.138366  0  3.890609  0
C  C40  1  0.76717847  0.57047788  0.08778672  1  0  0.110638  0  3.853506  0  0  0.10748  0  4.102463  0  0  0.108143  0  4.125181  0  0  0.089714  0.10725  0  4.085055  0
C  C41  1  0.23282195  0.42952599  0.91221365  1  0  0.110603  0  3.853583  0  0  0.107428  0  4.102575  0  0  0.108086  0  4.125293  0  0  0.089727  0.107197  0  4.085167  0
C  C42  1  0.13888737  0.97527899  0.52115456  1  0  0.065397  0  3.771841  0  0  0.081793  0  4.018825  0  0  0.080907  0  4.042736  0  0  -0.011867  0.082073  0  4.002919  0
C  C43  1  0.86110946  0.02472281  0.47884474  1  0  0.065482  0  3.771626  0  0  0.081911  0  4.018572  0  0  0.081027  0  4.042484  0  0  -0.011841  0.082193  0  4.002666  0
C  C44  1  0.35619247  0.13849874  0.57442645  1  0  0.091119  0  3.79855  0  0  0.073839  0  4.048475  0  0  0.078282  0  4.07071  0  0  0.102872  0.07075  0  4.033418  0
C  C45  1  0.64380638  0.86150306  0.42557244  1  0  0.091063  0  3.798594  0  0  0.073721  0  4.048658  0  0  0.078161  0  4.070896  0  0  0.102821  0.070633  0  4.033596  0
C  C46  1  0.90566420  0.41969959  0.52293687  1  0  -0.102243  0  3.747958  0  0  -0.123366  0  3.996503  0  0  -0.125813  0  4.018953  0  0  -0.094734  -0.121412  0  3.981355  0
C  C47  1  0.09433918  0.58030015  0.47705932  1  0  -0.102249  0  3.747997  0  0  -0.123372  0  3.99653  0  0  -0.125822  0  4.018981  0  0  -0.094785  -0.121416  0  3.981377  0
C  C48  1  0.32674220  0.72986784  0.03661002  1  0  0.491158  0  4.047649  0  0  0.437753  0  4.345667  0  0  0.467913  0  4.342166  0  0  0.188911  0.417371  0  4.346667  0
C  C49  1  0.67325991  0.27012876  0.96339839  1  0  0.491151  0  4.047692  0  0  0.437742  0  4.345691  0  0  0.467905  0  4.342188  0  0  0.188893  0.417359  0  4.34669  0
C  C50  1  0.01027806  0.43237073  0.41653389  1  0  0.06143  0  3.754155  0  0  0.080971  0  3.995681  0  0  0.080057  0  4.018281  0  0  -0.018866  0.08194  0  3.978962  0
C  C51  1  0.98972556  0.56762798  0.58346357  1  0  0.061442  0  3.754276  0  0  0.080983  0  3.995806  0  0  0.08007  0  4.018407  0  0  -0.018882  0.081968  0  3.979088  0
C  C52  1  0.10452362  0.51333002  0.39386638  1  0  -0.117981  0  3.752435  0  0  -0.138024  0  3.998676  0  0  -0.141112  0  4.021393  0  0  -0.097822  -0.136169  0  3.983375  0
C  C53  1  0.89547851  0.48667075  0.60613052  1  0  -0.118058  0  3.752494  0  0  -0.138101  0  3.998732  0  0  -0.141189  0  4.021449  0  0  -0.097844  -0.136242  0  3.983425  0
C  C54  1  0.98367190  0.64433582  0.06246792  1  0  -0.133039  0  3.724484  0  0  -0.150624  0  3.979074  0  0  -0.153854  0  3.997805  0  0  -0.090869  -0.148607  0  3.965125  0
C  C55  1  0.01633390  0.35565771  0.93752862  1  0  -0.133185  0  3.724482  0  0  -0.150755  0  3.979085  0  0  -0.153988  0  3.997818  0  0  -0.090916  -0.148769  0  3.965115  0
C  C56  1  0.10760183  0.95110479  0.41937189  1  0  -0.112018  0  3.750454  0  0  -0.132062  0  4.001428  0  0  -0.134465  0  4.02224  0  0  -0.086885  -0.130029  0  3.987766  0
C  C57  1  0.89239422  0.04889597  0.58062977  1  0  -0.112077  0  3.75042  0  0  -0.13213  0  4.001381  0  0  -0.134536  0  4.022196  0  0  -0.086905  -0.1301  0  3.987721  0
C  C58  1  0.71990891  0.68563377  0.97472306  1  0  -0.131254  0  3.722054  0  0  -0.144461  0  3.9651  0  0  -0.147033  0  3.98526  0  0  -0.087406  -0.142784  0  3.952057  0
C  C59  1  0.28009096  0.31436803  0.02527651  1  0  -0.131202  0  3.722045  0  0  -0.144401  0  3.965072  0  0  -0.146976  0  3.98524  0  0  -0.087366  -0.142729  0  3.952025  0
C  C60  1  0.80626074  0.77766723  0.90762185  1  0  -0.066805  0  3.765794  0  0  -0.087797  0  4.029094  0  0  -0.090116  0  4.051194  0  0  -0.094178  -0.086092  0  4.014017  0
C  C61  1  0.19374164  0.22233250  0.09237810  1  0  -0.066856  0  3.765743  0  0  -0.087803  0  4.029058  0  0  -0.090122  0  4.05115  0  0  -0.094179  -0.086096  0  4.013981  0
C  C62  1  0.93571330  0.75749160  0.95066443  1  0  -0.048939  0  3.742  0  0  -0.073371  0  4.008767  0  0  -0.073946  0  4.029758  0  0  -0.090965  -0.072806  0  3.994885  0
C  C63  1  0.06429001  0.24250399  0.04933440  1  0  -0.048863  0  3.741869  0  0  -0.0733  0  4.008604  0  0  -0.073879  0  4.029603  0  0  -0.090953  -0.072737  0  3.994732  0
C  C64  1  0.39800539  0.26021413  0.48119204  1  0  0.099572  0  3.866573  0  0  0.098177  0  4.114966  0  0  0.098286  0  4.138888  0  0  0.087829  0.097854  0  4.099082  0
C  C65  1  0.60199597  0.73978560  0.51880722  1  0  0.099552  0  3.866585  0  0  0.098105  0  4.115079  0  0  0.098215  0  4.139  0  0  0.087794  0.097783  0  4.09919  0
C  C66  1  0.35127838  0.09764426  0.71129867  1  0  -0.135266  0  3.727995  0  0  -0.154531  0  3.984441  0  0  -0.158139  0  4.002718  0  0  -0.090665  -0.151904  0  3.97192  0
C  C67  1  0.64871821  0.90235857  0.28870024  1  0  -0.135153  0  3.728132  0  0  -0.154424  0  3.984611  0  0  -0.158033  0  4.002891  0  0  -0.090615  -0.1518  0  3.972091  0
C  C68  1  0.24131081  0.85495151  0.07306169  1  0  0.672031  0  3.633683  0  0  0.600758  0  3.979911  0  0  0.627536  0  3.953495  0  0  0.295907  0.581641  0  3.998689  0
C  C69  1  0.75868925  0.14504509  0.92694447  1  0  0.671814  0  3.634095  0  0  0.600563  0  3.980284  0  0  0.627339  0  3.953881  0  0  0.295862  0.581451  0  3.999059  0
C  C70  1  0.43704685  0.34688231  0.52264040  1  0  -0.128361  0  3.746717  0  0  -0.145644  0  3.992879  0  0  -0.147383  0  4.013812  0  0  -0.086601  -0.144341  0  3.978656  0
C  C71  1  0.56295099  0.65311950  0.47735869  1  0  -0.12841  0  3.746617  0  0  -0.145652  0  3.992791  0  0  -0.147391  0  4.013729  0  0  -0.086603  -0.14435  0  3.978564  0
C  C72  1  0.28879026  0.94999522  0.54101273  1  0  -0.056616  0  3.650729  0  0  -0.129266  0  3.90678  0  0  -0.124522  0  3.916293  0  0  -0.041733  -0.132391  0  3.900817  0
C  C73  1  0.71120602  0.05000451  0.45898754  1  0  -0.056696  0  3.650656  0  0  -0.129354  0  3.90671  0  0  -0.124611  0  3.916219  0  0  -0.041727  -0.132474  0  3.900732  0
C  C74  1  0.38910501  0.18499017  0.75067428  1  0  -0.040821  0  3.730758  0  0  -0.059399  0  3.984875  0  0  -0.059811  0  4.006462  0  0  -0.086381  -0.059067  0  3.970229  0
C  C75  1  0.61089181  0.81501163  0.24932502  1  0  -0.040767  0  3.730815  0  0  -0.059383  0  3.984924  0  0  -0.059795  0  4.006512  0  0  -0.086353  -0.059063  0  3.970275  0
C  C76  1  0.43165946  0.30736193  0.65807052  1  0  -0.070696  0  3.758791  0  0  -0.089253  0  4.013988  0  0  -0.092515  0  4.037488  0  0  -0.094719  -0.086879  0  3.99803  0
C  C77  1  0.56833939  0.69263987  0.34192749  1  0  -0.070726  0  3.75876  0  0  -0.089287  0  4.013964  0  0  -0.092547  0  4.037464  0  0  -0.094724  -0.086912  0  3.998007  0
N  N78  1  0.90760143  0.42946456  0.23923725  1  0  0.016794  0  3.52181  0  0  0.128067  0  3.713457  0  0  0.088714  0  3.771241  0  0  -0.12165  0.135028  0  3.697901  0
N  N79  1  0.09240016  0.57053414  0.76076062  1  0  0.016866  0  3.521676  0  0  0.128104  0  3.713341  0  0  0.088765  0  3.771114  0  0  -0.121603  0.135079  0  3.697794  0
N  N80  1  0.70958323  0.46047756  0.17486695  1  0  -0.259616  0  3.228772  0  0  -0.20487  0  3.555751  0  0  -0.217272  0  3.562495  0  0  -0.223858  -0.19628  0  3.548726  0
N  N81  1  0.29041665  0.53952424  0.82513263  1  0  -0.259618  0  3.228822  0  0  -0.204865  0  3.555799  0  0  -0.217267  0  3.562541  0  0  -0.223893  -0.196273  0  3.548774  0
N  N82  1  0.33398142  0.07887091  0.49820040  1  0  0.005308  0  3.499752  0  0  0.08636  0  3.732961  0  0  0.073569  0  3.757648  0  0  -0.126542  0.095156  0  3.715657  0
N  N83  1  0.66601439  0.92113089  0.50179910  1  0  0.00538  0  3.499708  0  0  0.086445  0  3.732937  0  0  0.073655  0  3.757625  0  0  -0.126569  0.095238  0  3.715634  0
N  N84  1  0.39824342  0.26566510  0.35655066  1  0  -0.245948  0  3.164842  0  0  -0.194523  0  3.481828  0  0  -0.205468  0  3.490633  0  0  -0.214558  -0.186902  0  3.475849  0
N  N85  1  0.60175668  0.73433567  0.64344753  1  0  -0.24595  0  3.164811  0  0  -0.194499  0  3.481801  0  0  -0.205445  0  3.490607  0  0  -0.21456  -0.186879  0  3.475818  0
N  N86  1  0.79454549  0.37662215  0.26533139  1  0  -0.07343  0  2.865265  0  0  -0.08912  0  3.138582  0  0  -0.072903  0  3.155064  0  0  -0.079112  -0.093258  0  3.131008  0
N  N87  1  0.20545562  0.62337863  0.73466571  1  0  -0.073465  0  2.865209  0  0  -0.089131  0  3.138524  0  0  -0.07292  0  3.155003  0  0  -0.079116  -0.093269  0  3.130946  0
N  N88  1  0.35960922  0.15667642  0.36779815  1  0  -0.057568  0  2.840337  0  0  -0.059579  0  3.11606  0  0  -0.052574  0  3.126931  0  0  -0.070853  -0.063962  0  3.108164  0
N  N89  1  0.64038760  0.84332539  0.63220026  1  0  -0.057582  0  2.840311  0  0  -0.05958  0  3.116007  0  0  -0.052573  0  3.126879  0  0  -0.07083  -0.063963  0  3.108111  0
O  O90  1  0.32976246  0.61166694  0.12814589  1  0  -0.576123  0  2.115907  0  0  -0.524064  0  2.390776  0  0  -0.549104  0  2.376741  0  0  -0.322616  -0.506329  0  2.399191  0
O  O91  1  0.67024169  0.38832966  0.87186478  1  0  -0.576091  0  2.115887  0  0  -0.524033  0  2.390739  0  0  -0.549073  0  2.376702  0  0  -0.322637  -0.506301  0  2.399156  0
O  O92  1  0.38376171  0.76566369  0.91920926  1  0  -0.564822  0  2.084617  0  0  -0.513896  0  2.345029  0  0  -0.540441  0  2.334603  0  0  -0.317302  -0.495349  0  2.351556  0
O  O93  1  0.61624010  0.23432980  0.08080052  1  0  -0.564788  0  2.084589  0  0  -0.513864  0  2.344982  0  0  -0.540412  0  2.334558  0  0  -0.317218  -0.49531  0  2.35149  0
F  F94  1  0.32969031  0.92713131  0.07596328  1  0  -0.25639  0  1.15308  0  0  -0.207106  0  1.30585  0  0  -0.217351  0  1.291532  0  0  -0.101217  -0.199684  0  1.315665  0
F  F95  1  0.67030928  0.07286737  0.92404122  1  0  -0.25631  0  1.153116  0  0  -0.207061  0  1.305892  0  0  -0.2173  0  1.291585  0  0  -0.101242  -0.199638  0  1.315711  0
F  F96  1  0.15105934  0.94528887  0.98215293  1  0  -0.25026  0  1.173828  0  0  -0.210283  0  1.336797  0  0  -0.219831  0  1.321152  0  0  -0.101585  -0.203594  0  1.347992  0
F  F97  1  0.84894040  0.05470464  0.01785016  1  0  -0.250245  0  1.173916  0  0  -0.21028  0  1.336881  0  0  -0.219827  0  1.321237  0  0  -0.101618  -0.203593  0  1.348075  0
F  F98  1  0.16431633  0.81761930  0.19356369  1  0  -0.247585  0  1.186205  0  0  -0.204282  0  1.350889  0  0  -0.214026  0  1.33557  0  0  -0.095993  -0.197241  0  1.361615  0
F  F99  1  0.83567621  0.18238353  0.80643870  1  0  -0.247532  0  1.186381  0  0  -0.2042  0  1.351031  0  0  -0.213946  0  1.335713  0  0  -0.095936  -0.19716  0  1.361754  0
