# generated using pymatgen
data_ZnFeH19C25N3Cl2
_symmetry_space_group_name_H-M   'P 1'
_cell_length_a   8.55060420
_cell_length_b   16.69112255
_cell_length_c   17.77497162
_cell_angle_alpha   77.05924653
_cell_angle_beta   84.14272305
_cell_angle_gamma   85.70264178
_symmetry_Int_Tables_number   1
_chemical_formula_structural   ZnFeH19C25N3Cl2
_chemical_formula_sum   'Zn4 Fe4 H76 C100 N12 Cl8'
_cell_volume   2455.94050243
_cell_formula_units_Z   4
loop_
 _symmetry_equiv_pos_site_id
 _symmetry_equiv_pos_as_xyz
  1  'x, y, z'
loop_
 _atom_site_type_symbol
 _atom_site_label
 _atom_site_symmetry_multiplicity
 _atom_site_fract_x
 _atom_site_fract_y
 _atom_site_fract_z
 _atom_site_occupancy
 _atom_site_pbe_bader_charge
 _atom_site_pbe_bader_spin_density
 _atom_site_pbe_cm5_charge
 _atom_site_pbe_ddec_charge
 _atom_site_pbe_ddec_spin_density
 _atom_site_pbe_ddec_sum_bond_order
 _atom_site_pbe_magmom
Zn  Zn0  1  0.67335495  0.55447980  0.61217934  1  1.124138  0  0.545553  0.61717  0  2.732915  0
Zn  Zn1  1  0.32664326  0.44551985  0.38782164  1  1.124107  0  0.545551  0.617189  0  2.732938  0
Zn  Zn2  1  0.59412576  0.28402766  0.97900472  1  1.121841  0  0.544225  0.615199  0  2.72841  0
Zn  Zn3  1  0.40587583  0.71597322  0.02099525  1  1.121829  0  0.544264  0.615271  0  2.728447  0
Fe  Fe4  1  0.59311651  0.10795455  0.64889615  1  0.729333  0  0.527474  0.212303  0  4.00429  0
Fe  Fe5  1  0.40688642  0.89204447  0.35110190  1  0.729453  0  0.527465  0.212269  0  4.004389  0
Fe  Fe6  1  0.01488508  0.86257682  0.69622124  1  0.735876  0  0.523615  0.208777  0  4.012472  0
Fe  Fe7  1  0.98511442  0.13742159  0.30377882  1  0.735824  0  0.523573  0.208644  0  4.012701  0
H  H8  1  0.86713043  0.21514305  0.06845404  1  0.114618  0  0.112403  0.091152  0  1.032029  0
H  H9  1  0.13287697  0.78485846  0.93154548  1  0.114596  0  0.112424  0.091198  0  1.032004  0
H  H10  1  0.24424749  0.10918724  0.80329635  1  0.065633  0  0.10823  0.118324  0  1.00723  0
H  H11  1  0.75574848  0.89081117  0.19670389  1  0.065567  0  0.108223  0.118329  0  1.007227  0
H  H12  1  0.77571712  0.60598138  0.02285592  1  0.103752  0  0.109714  0.111181  0  0.999617  0
H  H13  1  0.22428313  0.39402136  0.97714541  1  0.103772  0  0.109668  0.111108  0  0.999663  0
H  H14  1  0.21746581  0.67856456  0.73530216  1  0.09169  0  0.109464  0.119751  0  1.01005  0
H  H15  1  0.78252399  0.32143629  0.26469619  1  0.091663  0  0.109409  0.119736  0  1.010046  0
H  H16  1  0.41875176  0.59948201  0.71940266  1  0.078931  0  0.116142  0.086414  0  1.009288  0
H  H17  1  0.58124277  0.40051886  0.28059713  1  0.078937  0  0.116129  0.086388  0  1.009294  0
H  H18  1  0.59151811  0.52219415  0.11989261  1  0.108616  0  0.102401  0.112388  0  1.020933  0
H  H19  1  0.40847727  0.47780981  0.88010759  1  0.108689  0  0.102386  0.11239  0  1.020938  0
H  H20  1  0.41213540  0.01101057  0.77123326  1  0.057014  0  0.110613  0.131997  0  0.993064  0
H  H21  1  0.58786490  0.98899155  0.22876764  1  0.057029  0  0.110652  0.132031  0  0.993029  0
H  H22  1  0.51712742  0.39388726  0.62567340  1  0.120467  0  0.11295  0.089545  0  1.018952  0
H  H23  1  0.48287197  0.60611240  0.37432808  1  0.12054  0  0.112958  0.089563  0  1.019016  0
H  H24  1  0.06266685  0.29783726  0.48713270  1  0.084456  0  0.107583  0.109111  0  1.019154  0
H  H25  1  0.93734501  0.70216673  0.51286718  1  0.084394  0  0.107594  0.109153  0  1.019137  0
H  H26  1  0.08617678  0.40803023  0.77253807  1  0.132321  0  0.111096  0.110916  0  1.012971  0
H  H27  1  0.91382397  0.59196821  0.22746641  1  0.132429  0  0.111031  0.110811  0  1.013011  0
H  H28  1  0.61623620  0.27044552  0.56436221  1  0.118425  0  0.090721  0.130201  0  1.040603  0
H  H29  1  0.38376923  0.72955165  0.43563329  1  0.118414  0  0.090688  0.130136  0  1.040677  0
H  H30  1  0.82066060  0.68361409  0.90334005  1  0.106406  0  0.100397  0.114327  0  1.039031  0
H  H31  1  0.17933296  0.31638494  0.09666075  1  0.106379  0  0.100421  0.114335  0  1.039073  0
H  H32  1  0.19630526  0.21990854  0.56283641  1  0.094885  0  0.103617  0.120623  0  1.027427  0
H  H33  1  0.80370207  0.78009358  0.43716242  1  0.094957  0  0.103613  0.120613  0  1.027426  0
H  H34  1  0.78522896  0.25433172  0.83668230  1  0.136598  0  0.111671  0.089588  0  1.037979  0
H  H35  1  0.21477126  0.74567101  0.16331735  1  0.136656  0  0.111667  0.089608  0  1.037938  0
H  H36  1  0.74994017  0.51514156  0.45846274  1  0.119061  0  0.105248  0.076999  0  1.046667  0
H  H37  1  0.25006252  0.48486058  0.54154027  1  0.119045  0  0.105215  0.076955  0  1.046672  0
H  H38  1  0.92246520  0.41109220  0.40012943  1  0.139984  0  0.100684  0.110243  0  1.029263  0
H  H39  1  0.07754426  0.58891241  0.59987214  1  0.139933  0  0.100674  0.110226  0  1.029201  0
H  H40  1  0.27325437  0.32940007  0.69263728  1  0.085948  0  0.10588  0.108395  0  1.048689  0
H  H41  1  0.72674756  0.67059837  0.30736713  1  0.085969  0  0.105906  0.108464  0  1.04871  0
H  H42  1  0.80712718  0.41521472  0.89252821  1  0.121131  0  0.11764  0.08991  0  1.007089  0
H  H43  1  0.19286871  0.58478493  0.10747458  1  0.121198  0  0.117671  0.08995  0  1.007046  0
H  H44  1  0.85832130  0.39901538  0.68025740  1  0.121834  0  0.119854  0.091345  0  1.013678  0
H  H45  1  0.14168052  0.60098367  0.31974465  1  0.121852  0  0.119837  0.091253  0  1.01378  0
H  H46  1  0.28440428  0.81382899  0.60988430  1  0.069709  0  0.110581  0.131823  0  0.978739  0
H  H47  1  0.71559591  0.18617373  0.39011422  1  0.06967  0  0.110619  0.131825  0  0.978772  0
H  H48  1  0.25495148  0.17734427  0.90278419  1  0.124847  0  0.105647  0.110938  0  1.00828  0
H  H49  1  0.74504896  0.82265598  0.09721317  1  0.124871  0  0.105619  0.110933  0  1.008313  0
H  H50  1  0.52920681  0.38221560  0.10158594  1  0.122451  0  0.110859  0.087783  0  1.007818  0
H  H51  1  0.47078247  0.61779018  0.89841307  1  0.122466  0  0.110815  0.087694  0  1.007798  0
H  H52  1  0.75480523  0.81396242  0.80533423  1  0.137072  0  0.098332  0.139503  0  1.021197  0
H  H53  1  0.24519417  0.18603724  0.19466781  1  0.137073  0  0.09833  0.139469  0  1.02127  0
H  H54  1  0.02246341  0.72405885  0.63309076  1  0.076264  0  0.100186  0.124163  0  1.026712  0
H  H55  1  0.97753965  0.27593958  0.36691079  1  0.076293  0  0.100175  0.124192  0  1.026605  0
H  H56  1  0.27114128  0.81506421  0.78690285  1  0.075739  0  0.103533  0.134043  0  1.005159  0
H  H57  1  0.72885932  0.18493483  0.21309701  1  0.075669  0  0.103533  0.134035  0  1.005242  0
H  H58  1  0.62459973  0.93467492  0.68539704  1  0.104253  0  0.111302  0.132741  0  1.002051  0
H  H59  1  0.37540086  0.06532475  0.31460550  1  0.104277  0  0.11132  0.132759  0  1.00198  0
H  H60  1  0.15323215  0.17685840  0.03998517  1  0.134253  0  0.10916  0.124541  0  1.004917  0
H  H61  1  0.84677196  0.82314063  0.96001281  1  0.134249  0  0.109163  0.124544  0  1.004905  0
H  H62  1  0.86897771  0.98524021  0.58466776  1  0.09435  0  0.107178  0.125676  0  1.027402  0
H  H63  1  0.13101387  0.01475510  0.41533170  1  0.094113  0  0.107193  0.125667  0  1.027323  0
H  H64  1  0.84649807  0.15702875  0.53872053  1  0.096106  0  0.103308  0.132566  0  1.011464  0
H  H65  1  0.15350647  0.84296596  0.46127612  1  0.096319  0  0.103317  0.132632  0  1.011493  0
H  H66  1  0.61640593  0.01420354  0.53463353  1  0.096802  0  0.106994  0.126752  0  1.011068  0
H  H67  1  0.38359149  0.98579241  0.46536717  1  0.096786  0  0.107005  0.126762  0  1.01108  0
H  H68  1  0.90889912  0.05981564  0.67666311  1  0.082522  0  0.106178  0.122145  0  1.028409  0
H  H69  1  0.09110284  0.94018155  0.32333596  1  0.082012  0  0.106229  0.122244  0  1.02828  0
H  H70  1  0.83426752  0.97188057  0.77651176  1  0.079732  0  0.108494  0.12829  0  1.016047  0
H  H71  1  0.16573186  0.02811908  0.22348916  1  0.079736  0  0.108484  0.128277  0  1.016047  0
H  H72  1  0.71634084  0.11337530  0.78911467  1  0.056384  0  0.107473  0.12461  0  0.987706  0
H  H73  1  0.28366188  0.88662557  0.21088243  1  0.056302  0  0.107511  0.124654  0  0.987658  0
H  H74  1  0.18687079  0.97520688  0.58295260  1  0.078934  0  0.106607  0.130809  0  0.998058  0
H  H75  1  0.81311878  0.02479580  0.41704425  1  0.078755  0  0.106567  0.130811  0  0.998137  0
H  H76  1  0.15403131  0.97318677  0.76353162  1  0.089669  0  0.101742  0.122268  0  1.031329  0
H  H77  1  0.84596685  0.02681287  0.23646655  1  0.089674  0  0.101743  0.122283  0  1.031298  0
H  H78  1  0.53710308  0.24317107  0.72029936  1  0.109413  0  0.100078  0.121837  0  1.018221  0
H  H79  1  0.46290326  0.75682856  0.27969557  1  0.109278  0  0.100061  0.121821  0  1.018342  0
H  H80  1  0.76908103  0.82892462  0.61556453  1  0.069251  0  0.108003  0.12813  0  0.994017  0
H  H81  1  0.23091646  0.17107071  0.38443629  1  0.069315  0  0.108013  0.128134  0  0.993983  0
H  H82  1  0.39936241  0.14088050  0.52719544  1  0.087507  0  0.108547  0.132827  0  1.000102  0
H  H83  1  0.60063851  0.85911544  0.47280338  1  0.08741  0  0.108544  0.13281  0  1.000172  0
C  C84  1  0.35677393  0.09581713  0.65698288  1  -0.086222  0  -0.0745  0.005959  0  4.015721  0
C  C85  1  0.64322779  0.90418252  0.34301678  1  -0.086865  0  -0.07451  0.005867  0  4.015559  0
C  C86  1  0.07635932  0.21231535  0.77691652  1  0.483372  0  0.116332  0.206358  0  4.06363  0
C  C87  1  0.92363895  0.78768368  0.22308403  1  0.483415  0  0.116381  0.206436  0  4.063507  0
C  C88  1  0.91699136  0.21412978  0.00977708  1  0.495204  0  0.047146  0.090803  0  3.904357  0
C  C89  1  0.08301265  0.78587049  0.99022289  1  0.49519  0  0.047093  0.090721  0  3.904508  0
C  C90  1  0.04808992  0.27144592  0.64827142  1  0.527813  0  0.121707  0.213479  0  4.02589  0
C  C91  1  0.95191638  0.72855497  0.35172886  1  0.527695  0  0.121681  0.213375  0  4.026044  0
C  C92  1  0.97018541  0.33776878  0.59198161  1  0.025037  0  0.006659  0.010947  0  3.937942  0
C  C93  1  0.02981946  0.66223458  0.40801878  1  0.025034  0  0.006671  0.010938  0  3.937942  0
C  C94  1  0.91859659  0.56379480  0.88853226  1  0.494186  0  0.119449  0.219734  0  4.033823  0
C  C95  1  0.08140038  0.43620546  0.11146866  1  0.494218  0  0.119324  0.219578  0  4.033933  0
C  C96  1  0.12663812  0.56110403  0.79558014  1  0.51171  0  0.113535  0.204885  0  4.06558  0
C  C97  1  0.87335891  0.43889561  0.20442090  1  0.511672  0  0.113554  0.20493  0  4.065638  0
C  C98  1  0.80833647  0.51690178  0.94924004  1  0.016891  0  0.003196  0.003075  0  3.954571  0
C  C99  1  0.19165807  0.48309910  0.05076031  1  0.01696  0  0.003185  0.003115  0  3.9546  0
C  C100  1  0.19159032  0.15469770  0.75763589  1  -0.014017  0  -0.083579  -0.220819  0  3.89969  0
C  C101  1  0.80840792  0.84530132  0.24236297  1  -0.014022  0  -0.083604  -0.220892  0  3.899701  0
C  C102  1  0.02654245  0.21260715  0.85893463  1  -0.029279  0  0.002474  0.00646  0  3.973189  0
C  C103  1  0.97345923  0.78739248  0.14106279  1  -0.029246  0  0.002401  0.006282  0  3.973267  0
C  C104  1  0.02202036  0.69292923  0.81842003  1  -0.10885  0  0.014052  0.157581  0  3.985819  0
C  C105  1  0.97797662  0.30707104  0.18158200  1  -0.108845  0  0.014036  0.157553  0  3.985766  0
C  C106  1  0.74472108  0.54666156  0.01426076  1  -0.064496  0  -0.057413  -0.05874  0  3.9033  0
C  C107  1  0.25527569  0.45334055  0.98573977  1  -0.064487  0  -0.057369  -0.058613  0  3.903218  0
C  C108  1  0.13347252  0.64673278  0.78019372  1  -0.021281  0  -0.083714  -0.218587  0  3.898748  0
C  C109  1  0.86652334  0.35326686  0.21980739  1  -0.021326  0  -0.083671  -0.218567  0  3.89874  0
C  C110  1  0.37749019  0.54096157  0.71386800  1  0.465107  0  0.050927  0.045879  0  3.898943  0
C  C111  1  0.62250546  0.45903992  0.28613216  1  0.464372  0  0.051032  0.04609  0  3.898828  0
C  C112  1  0.64251017  0.49921604  0.06962831  1  0.002335  0  -0.082714  -0.112718  0  3.98353  0
C  C113  1  0.35748417  0.50078668  0.93037221  1  0.002377  0  -0.082675  -0.112799  0  3.983499  0
C  C114  1  0.23762044  0.15558457  0.67937728  1  0.007609  0  0.01226  0.144507  0  4.000439  0
C  C115  1  0.76238362  0.84441508  0.32062170  1  0.007741  0  0.012324  0.144634  0  4.000188  0
C  C116  1  0.43376520  0.02810416  0.70856445  1  -0.133061  0  -0.155831  -0.192964  0  3.985256  0
C  C117  1  0.56623640  0.97189672  0.29143609  1  -0.133101  0  -0.155842  -0.192929  0  3.985163  0
C  C118  1  0.01571644  0.78298165  0.80122543  1  -0.028248  0  -0.07573  0.006651  0  4.017468  0
C  C119  1  0.98428293  0.21701800  0.19877492  1  -0.02801  0  -0.075709  0.006693  0  4.017287  0
C  C120  1  0.43636592  0.42492497  0.66273586  1  0.42982  0  0.047152  0.088812  0  3.923692  0
C  C121  1  0.56363114  0.57507468  0.33726687  1  0.429865  0  0.04717  0.088889  0  3.923712  0
C  C122  1  0.23409216  0.51152867  0.75090432  1  0.049239  0  0.003782  0.002822  0  3.966821  0
C  C123  1  0.76590599  0.48847160  0.24909709  1  0.050351  0  0.00373  0.002625  0  3.966957  0
C  C124  1  0.98776798  0.34284900  0.51175226  1  -0.001458  0  -0.056899  -0.055007  0  3.905772  0
C  C125  1  0.01223800  0.65715498  0.48824850  1  -0.001515  0  -0.056839  -0.054976  0  3.905711  0
C  C126  1  0.19591426  0.43339853  0.74369384  1  -0.017936  0  -0.055598  -0.04537  0  3.878942  0
C  C127  1  0.80408398  0.56660114  0.25630883  1  -0.018455  0  -0.055567  -0.045279  0  3.878982  0
C  C128  1  0.66984797  0.22379806  0.60865769  1  -0.138475  0  -0.158166  -0.141283  0  3.970884  0
C  C129  1  0.33015740  0.77619973  0.39133825  1  -0.138457  0  -0.15804  -0.140998  0  3.970684  0
C  C130  1  0.91217622  0.64992972  0.87370457  1  0.030014  0  -0.083269  -0.2075  0  3.863294  0
C  C131  1  0.08781950  0.35007115  0.12629572  1  0.030128  0  -0.08329  -0.207481  0  3.86335  0
C  C132  1  0.16285309  0.21583970  0.62416217  1  -0.051943  0  -0.079881  -0.201541  0  3.856352  0
C  C133  1  0.83715437  0.78416119  0.37583693  1  -0.051941  0  -0.079865  -0.201494  0  3.856248  0
C  C134  1  0.87035455  0.23556644  0.87995267  1  0.491389  0  0.05287  0.055009  0  3.889486  0
C  C135  1  0.12964710  0.76443382  0.12004687  1  0.4913  0  0.052907  0.055056  0  3.889639  0
C  C136  1  0.81391457  0.46386606  0.49393744  1  0.438134  0  0.043043  0.090364  0  3.926076  0
C  C137  1  0.18608832  0.53613423  0.50606597  1  0.438152  0  0.043105  0.090421  0  3.925815  0
C  C138  1  0.90819147  0.40595310  0.46259098  1  -0.06198  0  -0.08255  -0.116949  0  3.972496  0
C  C139  1  0.09181348  0.59404965  0.53741066  1  -0.061895  0  -0.08266  -0.117053  0  3.972314  0
C  C140  1  0.29871414  0.38993563  0.69959212  1  0.003074  0  -0.080133  -0.106461  0  3.963429  0
C  C141  1  0.70128536  0.61006342  0.30041174  1  0.003004  0  -0.080083  -0.106445  0  3.963506  0
C  C142  1  0.76327072  0.43991256  0.94295904  1  0.49463  0  0.055833  0.064319  0  3.882264  0
C  C143  1  0.23672383  0.56008832  0.05704187  1  0.494399  0  0.055823  0.064257  0  3.882301  0
C  C144  1  0.87428114  0.39934594  0.61858589  1  0.463744  0  0.056505  0.063887  0  3.866257  0
C  C145  1  0.12572285  0.60065496  0.38141677  1  0.463858  0  0.056502  0.06399  0  3.866253  0
C  C146  1  0.16316102  0.83809832  0.60639231  1  -0.162052  0  -0.152959  -0.140391  0  3.994181  0
C  C147  1  0.83683826  0.16190193  0.39360624  1  -0.162024  0  -0.152952  -0.140396  0  3.99416  0
C  C148  1  0.13040619  0.19129000  0.91729491  1  0.003062  0  -0.058797  -0.062105  0  3.915523  0
C  C149  1  0.86959556  0.80870903  0.08270320  1  0.003126  0  -0.058755  -0.062062  0  3.915627  0
C  C150  1  0.60661916  0.42272540  0.05969284  1  0.44423  0  0.042875  0.083168  0  3.928617  0
C  C151  1  0.39337159  0.57727793  0.94030718  1  0.444037  0  0.042929  0.083395  0  3.928371  0
C  C152  1  0.87362508  0.83509909  0.79794939  1  -0.222826  0  -0.152205  -0.186803  0  3.969593  0
C  C153  1  0.12637542  0.16490118  0.20205190  1  -0.223076  0  -0.152236  -0.186791  0  3.969701  0
C  C154  1  0.02608033  0.79066933  0.61722597  1  -0.149689  0  -0.157136  -0.145217  0  3.996178  0
C  C155  1  0.97392150  0.20932909  0.38277283  1  -0.149653  0  -0.15715  -0.145269  0  3.996063  0
C  C156  1  0.14739682  0.83558053  0.78702372  1  -0.154053  0  -0.156943  -0.194118  0  3.98267  0
C  C157  1  0.85260136  0.16441911  0.21297614  1  -0.153999  0  -0.156906  -0.194049  0  3.982575  0
C  C158  1  0.54607491  0.98686933  0.66298206  1  -0.140043  0  -0.149849  -0.127023  0  3.977778  0
C  C159  1  0.45392585  0.01312848  0.33701918  1  -0.139834  0  -0.149893  -0.127067  0  3.977798  0
C  C160  1  0.07482255  0.19205387  0.99360728  1  -0.067395  0  -0.07902  -0.113001  0  3.954463  0
C  C161  1  0.92518158  0.80794517  0.00639183  1  -0.067392  0  -0.079  -0.112961  0  3.954577  0
C  C162  1  0.94320581  0.92886617  0.59281253  1  -0.116695  0  -0.154573  -0.142532  0  3.985253  0
C  C163  1  0.05678551  0.07113161  0.40718697  1  -0.116109  0  -0.154609  -0.142558  0  3.985064  0
C  C164  1  0.79129315  0.16344734  0.59500352  1  -0.133685  0  -0.156033  -0.136384  0  3.979866  0
C  C165  1  0.20871237  0.83654922  0.40499324  1  -0.133663  0  -0.155992  -0.136491  0  3.979919  0
C  C166  1  0.54194754  0.02890342  0.58343924  1  -0.146139  0  -0.154333  -0.139267  0  4.007638  0
C  C167  1  0.45805225  0.97109254  0.41656246  1  -0.146051  0  -0.154374  -0.13929  0  4.007632  0
C  C168  1  0.82390154  0.11191350  0.66821657  1  -0.155076  0  -0.156618  -0.149376  0  4.00874  0
C  C169  1  0.17610275  0.88808367  0.33178068  1  -0.154555  0  -0.156684  -0.149451  0  4.008735  0
C  C170  1  0.91652643  0.91858464  0.78300814  1  -0.080623  0  -0.154237  -0.139071  0  4.002396  0
C  C171  1  0.08347517  0.08141625  0.21699240  1  -0.080535  0  -0.154236  -0.139084  0  4.002427  0
C  C172  1  0.72242435  0.14014616  0.72731763  1  -0.149704  0  -0.152474  -0.139982  0  4.002415  0
C  C173  1  0.27757967  0.85985348  0.27267911  1  -0.149802  0  -0.152579  -0.140109  0  4.00249  0
C  C174  1  0.11166553  0.92365021  0.59147972  1  -0.123966  0  -0.154405  -0.138563  0  3.98045  0
C  C175  1  0.88832682  0.07634880  0.40851890  1  -0.123906  0  -0.154389  -0.138549  0  3.98047  0
C  C176  1  0.08495186  0.91907630  0.77658674  1  -0.175534  0  -0.156963  -0.135726  0  3.994164  0
C  C177  1  0.91504736  0.08092457  0.22341223  1  -0.1756  0  -0.156922  -0.135691  0  3.994085  0
C  C178  1  0.62762321  0.20940913  0.69053839  1  -0.169849  0  -0.151864  -0.127899  0  3.967173  0
C  C179  1  0.37238314  0.79059051  0.30945710  1  -0.169937  0  -0.151899  -0.127967  0  3.967326  0
C  C180  1  0.89028658  0.84669023  0.60876625  1  -0.168908  0  -0.156225  -0.147596  0  3.995472  0
C  C181  1  0.10971186  0.15330694  0.39123300  1  -0.169236  0  -0.156188  -0.147477  0  3.995422  0
C  C182  1  0.42619576  0.09592714  0.57933218  1  -0.194622  0  -0.154249  -0.187047  0  3.964871  0
C  C183  1  0.57380387  0.90407004  0.42066757  1  -0.194227  0  -0.154223  -0.186997  0  3.964918  0
N  N184  1  0.00433266  0.26938117  0.72364875  1  -1.170545  0  -0.313705  -0.350829  0  3.307878  0
N  N185  1  0.99566781  0.73061909  0.27635085  1  -1.170539  0  -0.313685  -0.350754  0  3.30777  0
N  N186  1  0.02171514  0.51990461  0.84928198  1  -1.168245  0  -0.313005  -0.349425  0  3.301295  0
N  N187  1  0.97828066  0.48009566  0.15071956  1  -1.168256  0  -0.312913  -0.34931  0  3.301181  0
N  N188  1  0.47504159  0.49914823  0.67030066  1  -1.261231  0  -0.334185  -0.209078  0  3.620116  0
N  N189  1  0.52495414  0.50085264  0.32970019  1  -1.261291  0  -0.334285  -0.209306  0  3.620153  0
N  N190  1  0.66530952  0.39419721  0.99671249  1  -1.266428  0  -0.333672  -0.219425  0  3.614814  0
N  N191  1  0.33468479  0.60580614  0.00328959  1  -1.266211  0  -0.3337  -0.219508  0  3.614778  0
N  N192  1  0.79899197  0.46076078  0.57080942  1  -1.254875  0  -0.333489  -0.218929  0  3.609776  0
N  N193  1  0.20100993  0.53923766  0.42919332  1  -1.254896  0  -0.333468  -0.218917  0  3.609683  0
N  N194  1  0.81732913  0.23583594  0.95364299  1  -1.301159  0  -0.335387  -0.215418  0  3.614494  0
N  N195  1  0.18267234  0.76416618  0.04635784  1  -1.301223  0  -0.335415  -0.215442  0  3.614664  0
Cl  Cl196  1  0.59706712  0.64912891  0.51012327  1  -0.673943  0  -0.324412  -0.512149  0  1.21608  0
Cl  Cl197  1  0.40293573  0.35087137  0.48987733  1  -0.673973  0  -0.324423  -0.512149  0  1.216061  0
Cl  Cl198  1  0.79225533  0.59894950  0.69891712  1  -0.666706  0  -0.344917  -0.500949  0  1.181267  0
Cl  Cl199  1  0.20774019  0.40105323  0.30108334  1  -0.666675  0  -0.344899  -0.500947  0  1.181282  0
Cl  Cl200  1  0.47269438  0.30692785  0.87043413  1  -0.667621  0  -0.328042  -0.494562  0  1.178967  0
Cl  Cl201  1  0.52730506  0.69307119  0.12956635  1  -0.667614  0  -0.32805  -0.494578  0  1.17897  0
Cl  Cl202  1  0.48689460  0.21733544  0.09290619  1  -0.675956  0  -0.341529  -0.51125  0  1.142199  0
Cl  Cl203  1  0.51310714  0.78266422  0.90709460  1  -0.675966  0  -0.341524  -0.511261  0  1.142229  0
