# generated using pymatgen
data_CdH10C7(SN2)2
_symmetry_space_group_name_H-M   'P 1'
_cell_length_a   8.74978818
_cell_length_b   10.88742738
_cell_length_c   12.19553854
_cell_angle_alpha   110.58169734
_cell_angle_beta   89.99996393
_cell_angle_gamma   89.99996748
_symmetry_Int_Tables_number   1
_chemical_formula_structural   CdH10C7(SN2)2
_chemical_formula_sum   'Cd4 H40 C28 S8 N16'
_cell_volume   1087.62551150
_cell_formula_units_Z   4
loop_
 _symmetry_equiv_pos_site_id
 _symmetry_equiv_pos_as_xyz
  1  'x, y, z'
loop_
 _atom_site_type_symbol
 _atom_site_label
 _atom_site_symmetry_multiplicity
 _atom_site_fract_x
 _atom_site_fract_y
 _atom_site_fract_z
 _atom_site_occupancy
 _atom_site_hle17_bader_spin_density
 _atom_site_hle17_ddec_charge
 _atom_site_hle17_ddec_spin_density
 _atom_site_hle17_ddec_sum_bond_order
 _atom_site_hle17_magmom
 _atom_site_hse06_10hf_bader_charge
 _atom_site_hse06_10hf_bader_spin_density
 _atom_site_hse06_10hf_ddec_charge
 _atom_site_hse06_10hf_ddec_spin_density
 _atom_site_hse06_10hf_ddec_sum_bond_order
 _atom_site_hse06_10hf_magmom
 _atom_site_hse06_bader_spin_density
 _atom_site_hse06_ddec_charge
 _atom_site_hse06_ddec_spin_density
 _atom_site_hse06_ddec_sum_bond_order
 _atom_site_hse06_magmom
 _atom_site_pbe_bader_spin_density
 _atom_site_pbe_cm5_charge
 _atom_site_pbe_ddec_charge
 _atom_site_pbe_ddec_spin_density
 _atom_site_pbe_ddec_sum_bond_order
 _atom_site_pbe_magmom
Cd  Cd0  1  0.70243240  0.53496180  0.95672703  1  0  0.856182  0  1.934165  0  1.078169  0  0.691945  0  2.372386  0  0  0.732802  0  2.342706  0  0  0.625554  0.663393  0  2.392611  0
Cd  Cd1  1  0.20243175  0.96503899  0.54327278  1  0  0.856204  0  1.934129  0  1.078187  0  0.691963  0  2.372353  0  0  0.732821  0  2.342672  0  0  0.625553  0.663403  0  2.392601  0
Cd  Cd2  1  0.29756816  0.46503891  0.04327253  1  0  0.856169  0  1.934146  0  1.078175  0  0.691927  0  2.372367  0  0  0.732786  0  2.342688  0  0  0.625544  0.663367  0  2.392612  0
Cd  Cd3  1  0.79756767  0.03496172  0.45672761  1  0  0.856176  0  1.93417  0  1.078201  0  0.691937  0  2.372387  0  0  0.732789  0  2.342713  0  0  0.625559  0.663388  0  2.392615  0
H  H4  1  0.50611791  0.69770742  0.88937660  1  0  0.269021  0  0.94192  0  0.438446  0  0.257334  0  1.006649  0  0  0.262684  0  1.003925  0  0  0.271762  0.253569  0  1.008528  0
H  H5  1  0.00611731  0.80229449  0.61062365  1  0  0.268995  0  0.941959  0  0.438447  0  0.257305  0  1.006695  0  0  0.262654  0  1.003973  0  0  0.271767  0.25354  0  1.008573  0
H  H6  1  0.49388266  0.30229329  0.11062296  1  0  0.268974  0  0.941937  0  0.438444  0  0.257286  0  1.00668  0  0  0.262636  0  1.003957  0  0  0.271737  0.25352  0  1.008558  0
H  H7  1  0.99388211  0.19770622  0.38937674  1  0  0.269007  0  0.941929  0  0.438448  0  0.25732  0  1.006659  0  0  0.26267  0  1.003936  0  0  0.271765  0.253556  0  1.008539  0
H  H8  1  0.66506227  0.78130420  0.93556316  1  0  0.293552  0  0.919595  0  0.45291  0  0.282134  0  0.980173  0  0  0.288067  0  0.9762  0  0  0.285398  0.278008  0  0.982825  0
H  H9  1  0.16506178  0.71869662  0.56443668  1  0  0.293579  0  0.919575  0  0.452922  0  0.282156  0  0.980158  0  0  0.288089  0  0.976183  0  0  0.285408  0.27803  0  0.982811  0
H  H10  1  0.33493829  0.21869651  0.06443641  1  0  0.293569  0  0.919577  0  0.452924  0  0.282165  0  0.980143  0  0  0.288099  0  0.976167  0  0  0.285425  0.278039  0  0.982795  0
H  H11  1  0.83493878  0.28130409  0.43556453  1  0  0.293559  0  0.919569  0  0.452886  0  0.282141  0  0.980142  0  0  0.288074  0  0.97617  0  0  0.2854  0.278016  0  0.982796  0
H  H12  1  0.90334368  0.35937428  0.79020401  1  0  0.267783  0  0.961922  0  0.423125  0  0.25584  0  1.027536  0  0  0.260925  0  1.025682  0  0  0.263016  0.252195  0  1.028922  0
H  H13  1  0.40334426  0.14062635  0.70979563  1  0  0.267788  0  0.961893  0  0.423118  0  0.255846  0  1.02751  0  0  0.260932  0  1.025656  0  0  0.263022  0.252203  0  1.028894  0
H  H14  1  0.09665574  0.64062643  0.20979556  1  0  0.267778  0  0.961915  0  0.423122  0  0.255836  0  1.027532  0  0  0.260922  0  1.025678  0  0  0.263015  0.252193  0  1.028918  0
H  H15  1  0.59665630  0.85937436  0.29020476  1  0  0.267791  0  0.961885  0  0.42312  0  0.255847  0  1.027495  0  0  0.260932  0  1.025641  0  0  0.263022  0.252204  0  1.028879  0
H  H16  1  0.98744050  0.49929710  0.85489170  1  0  0.268881  0  0.953274  0  0.441814  0  0.258525  0  1.017214  0  0  0.263902  0  1.014601  0  0  0.264379  0.254495  0  1.019524  0
H  H17  1  0.48744009  0.00070346  0.64510788  1  0  0.268906  0  0.953235  0  0.441764  0  0.25855  0  1.017178  0  0  0.263926  0  1.014565  0  0  0.264392  0.25452  0  1.019488  0
H  H18  1  0.01256006  0.50070361  0.14510786  1  0  0.268881  0  0.953257  0  0.441759  0  0.258525  0  1.017201  0  0  0.263902  0  1.014587  0  0  0.264394  0.254496  0  1.01951  0
H  H19  1  0.51255933  0.99929725  0.35489251  1  0  0.268898  0  0.953223  0  0.441817  0  0.258545  0  1.017163  0  0  0.263922  0  1.014549  0  0  0.264394  0.254515  0  1.019473  0
H  H20  1  0.64834653  0.76884516  0.74400421  1  0  0.039425  0  0.970544  0  0.040635  0  0.049986  0  1.047918  0  0  0.050581  0  1.047982  0  0  0.085423  0.049497  0  1.048001  0
H  H21  1  0.14834700  0.73115469  0.75599532  1  0  0.039497  0  0.97053  0  0.040611  0  0.050036  0  1.047921  0  0  0.05063  0  1.047986  0  0  0.085446  0.049547  0  1.048005  0
H  H22  1  0.35165403  0.23115457  0.25599505  1  0  0.039445  0  0.97059  0  0.040617  0  0.050015  0  1.047952  0  0  0.050608  0  1.048015  0  0  0.085429  0.049526  0  1.048036  0
H  H23  1  0.85165356  0.26884602  0.24400506  1  0  0.039494  0  0.970516  0  0.04061  0  0.050045  0  1.0479  0  0  0.050639  0  1.047963  0  0  0.085436  0.049556  0  1.047983  0
H  H24  1  0.59034863  0.60230731  0.69968505  1  0  0.046035  0  0.948189  0  0.036362  0  0.064015  0  1.01225  0  0  0.062944  0  1.014648  0  0  0.094568  0.064617  0  1.010779  0
H  H25  1  0.09034895  0.89769356  0.80031566  1  0  0.04602  0  0.948208  0  0.036366  0  0.064047  0  1.012212  0  0  0.062976  0  1.014607  0  0  0.094565  0.06465  0  1.01074  0
H  H26  1  0.40965193  0.39769340  0.30031452  1  0  0.046005  0  0.948238  0  0.036364  0  0.064009  0  1.012276  0  0  0.062936  0  1.014674  0  0  0.094571  0.064612  0  1.010805  0
H  H27  1  0.90965161  0.10230715  0.19968555  1  0  0.046012  0  0.948233  0  0.036374  0  0.064024  0  1.012263  0  0  0.062952  0  1.01466  0  0  0.094567  0.064627  0  1.010791  0
H  H28  1  0.90718365  0.69773122  0.80045883  1  0  0.078198  0  0.938344  0  0.048211  0  0.097841  0  0.99691  0  0  0.098168  0  0.99831  0  0  0.092719  0.097578  0  0.995933  0
H  H29  1  0.40718413  0.80227041  0.69954033  1  0  0.078186  0  0.938369  0  0.048209  0  0.097853  0  0.9969  0  0  0.09818  0  0.9983  0  0  0.09272  0.097589  0  0.995923  0
H  H30  1  0.09281691  0.30226949  0.19954074  1  0  0.078194  0  0.938391  0  0.04822  0  0.097855  0  0.996917  0  0  0.098182  0  0.998316  0  0  0.092734  0.097592  0  0.995939  0
H  H31  1  0.59281644  0.19773129  0.30046037  1  0  0.078184  0  0.938384  0  0.048199  0  0.097837  0  0.996921  0  0  0.098164  0  0.998322  0  0  0.092718  0.097575  0  0.995945  0
H  H32  1  0.86128891  0.65320073  0.65052764  1  0  0.074521  0  0.951767  0  0.036666  0  0.091326  0  1.015021  0  0  0.092065  0  1.015301  0  0  0.091211  0.090597  0  1.015053  0
H  H33  1  0.36128922  0.84679994  0.84947206  1  0  0.07447  0  0.951724  0  0.036678  0  0.091263  0  1.015002  0  0  0.092  0  1.015283  0  0  0.091179  0.090533  0  1.015033  0
H  H34  1  0.13871166  0.34679998  0.34947193  1  0  0.074474  0  0.951671  0  0.036681  0  0.091248  0  1.014969  0  0  0.091986  0  1.015248  0  0  0.091171  0.090519  0  1.015001  0
H  H35  1  0.63871134  0.15320175  0.15052863  1  0  0.074472  0  0.951762  0  0.036678  0  0.091264  0  1.015025  0  0  0.092002  0  1.015307  0  0  0.091183  0.090535  0  1.015055  0
H  H36  1  0.77647322  0.42811491  0.65509678  1  0  0.052842  0  0.945893  0  0.046622  0  0.069291  0  1.014064  0  0  0.068756  0  1.015321  0  0  0.095009  0.069494  0  1.013396  0
H  H37  1  0.27647259  0.07188580  0.84490212  1  0  0.052851  0  0.945899  0  0.04668  0  0.069296  0  1.014058  0  0  0.068761  0  1.015314  0  0  0.095004  0.069501  0  1.013389  0
H  H38  1  0.22352620  0.57188580  0.34490279  1  0  0.052835  0  0.945927  0  0.046618  0  0.069307  0  1.014069  0  0  0.068773  0  1.015327  0  0  0.095014  0.069511  0  1.0134  0
H  H39  1  0.72352683  0.92811491  0.15509744  1  0  0.052853  0  0.945906  0  0.046619  0  0.069293  0  1.01407  0  0  0.068762  0  1.015328  0  0  0.094999  0.069496  0  1.013401  0
H  H40  1  0.97368027  0.46347645  0.65519867  1  0  0.04793  0  0.932861  0  0.044246  0  0.062781  0  1.000395  0  0  0.063067  0  1.000427  0  0  0.089884  0.062374  0  1.000655  0
H  H41  1  0.47367852  0.03652412  0.84480010  1  0  0.04794  0  0.932845  0  0.044289  0  0.062768  0  1.000381  0  0  0.063053  0  1.000414  0  0  0.089884  0.062363  0  1.000635  0
H  H42  1  0.02631915  0.53652328  0.34480059  1  0  0.047939  0  0.932854  0  0.044246  0  0.06279  0  1.000394  0  0  0.063076  0  1.000427  0  0  0.089889  0.062383  0  1.000653  0
H  H43  1  0.52632091  0.96347659  0.15519946  1  0  0.047935  0  0.932838  0  0.044186  0  0.062782  0  1.000362  0  0  0.06307  0  1.000395  0  0  0.08988  0.062375  0  1.00062  0
C  C44  1  0.38017557  0.42901125  0.78576575  1  0  0.159611  0  3.807844  0  -0.173039  0  0.149886  0  4.094053  0  0  0.168871  0  4.109485  0  0  0.012799  0.137424  0  4.082661  0
C  C45  1  0.88017754  0.07098645  0.71423380  1  0  0.159518  0  3.807891  0  -0.173048  0  0.149808  0  4.094078  0  0  0.168787  0  4.109509  0  0  0.012752  0.137343  0  4.082684  0
C  C46  1  0.61982271  0.57098750  0.21423320  1  0  0.159599  0  3.807859  0  -0.173056  0  0.149878  0  4.094062  0  0  0.16886  0  4.109491  0  0  0.012788  0.137413  0  4.08267  0
C  C47  1  0.11982073  0.92901229  0.28576761  1  0  0.159587  0  3.807905  0  -0.173031  0  0.149854  0  4.094122  0  0  0.168839  0  4.109552  0  0  0.012791  0.13739  0  4.082734  0
C  C48  1  0.39577944  0.39852094  0.66325989  1  0  -0.180144  0  3.947717  0  0.212202  0  -0.158826  0  4.191724  0  0  -0.172422  0  4.209089  0  0  -0.040231  -0.149814  0  4.180043  0
C  C49  1  0.89577900  0.10147772  0.83673995  1  0  -0.180078  0  3.947659  0  0.21218  0  -0.158789  0  4.191685  0  0  -0.172361  0  4.209047  0  0  -0.040204  -0.149762  0  4.179995  0
C  C50  1  0.60422113  0.60147780  0.33673988  1  0  -0.180175  0  3.947699  0  0.212188  0  -0.158867  0  4.191713  0  0  -0.172448  0  4.209075  0  0  -0.040224  -0.149845  0  4.180026  0
C  C51  1  0.10421813  0.89851808  0.16326053  1  0  -0.180179  0  3.947659  0  0.212261  0  -0.158857  0  4.19167  0  0  -0.17245  0  4.209031  0  0  -0.04023  -0.149832  0  4.179969  0
C  C52  1  0.49555677  0.29796170  0.59748478  1  0  0.313608  0  3.814826  0  0.844219  0  0.292404  0  4.086259  0  0  0.308443  0  4.101593  0  0  0.182221  0.281446  0  4.076012  0
C  C53  1  0.99555507  0.20203592  0.90251305  1  0  0.313591  0  3.814799  0  0.844159  0  0.292397  0  4.086228  0  0  0.308424  0  4.101568  0  0  0.182192  0.281432  0  4.075981  0
C  C54  1  0.50444493  0.70203902  0.40251479  1  0  0.31366  0  3.814933  0  0.844218  0  0.29246  0  4.086359  0  0  0.308492  0  4.101694  0  0  0.182252  0.281498  0  4.076113  0
C  C55  1  0.00444093  0.79796184  0.09748723  1  0  0.313585  0  3.814768  0  0.844182  0  0.292372  0  4.08621  0  0  0.308413  0  4.101541  0  0  0.182182  0.281412  0  4.075955  0
C  C56  1  0.31473976  0.46741318  0.60305148  1  0  0.291278  0  3.817812  0  0.845618  0  0.273982  0  4.088792  0  0  0.287646  0  4.105444  0  0  0.176483  0.264682  0  4.077685  0
C  C57  1  0.81474047  0.03258751  0.89694822  1  0  0.291242  0  3.817785  0  0.84558  0  0.273954  0  4.088767  0  0  0.287606  0  4.105429  0  0  0.176443  0.264647  0  4.07766  0
C  C58  1  0.68525966  0.53258557  0.39694665  1  0  0.291276  0  3.817718  0  0.845562  0  0.273976  0  4.088705  0  0  0.287631  0  4.105365  0  0  0.176451  0.264672  0  4.0776  0
C  C59  1  0.18526924  0.96741320  0.10305135  1  0  0.291455  0  3.817995  0  0.845886  0  0.274163  0  4.088958  0  0  0.287825  0  4.105604  0  0  0.176568  0.264862  0  4.077854  0
C  C60  1  0.66643728  0.67610969  0.75927764  1  0  0.087586  0  3.639688  0  0.293031  0  0.030702  0  3.904344  0  0  0.035292  0  3.917713  0  0  -0.082104  0.027752  0  3.894969  0
C  C61  1  0.16643656  0.82388720  0.74072260  1  0  0.08755  0  3.639693  0  0.293179  0  0.03066  0  3.904315  0  0  0.035253  0  3.917677  0  0  -0.082122  0.027711  0  3.894941  0
C  C62  1  0.33356443  0.32388808  0.24072182  1  0  0.08756  0  3.639758  0  0.293114  0  0.030657  0  3.904395  0  0  0.035255  0  3.917753  0  0  -0.082114  0.027709  0  3.895021  0
C  C63  1  0.83356400  0.17611351  0.25927861  1  0  0.087539  0  3.639698  0  0.293116  0  0.030598  0  3.904413  0  0  0.035194  0  3.917767  0  0  -0.082106  0.027649  0  3.895039  0
C  C64  1  0.83232246  0.63439364  0.73088448  1  0  -0.162348  0  3.658419  0  -0.020509  0  -0.198257  0  3.910778  0  0  -0.200943  0  3.9248  0  0  -0.169709  -0.196247  0  3.901133  0
C  C65  1  0.33232055  0.86560608  0.76911493  1  0  -0.162269  0  3.658332  0  -0.020566  0  -0.198191  0  3.910672  0  0  -0.200877  0  3.924691  0  0  -0.169665  -0.196181  0  3.901025  0
C  C66  1  0.16767810  0.36560707  0.26911509  1  0  -0.162287  0  3.658303  0  -0.02057  0  -0.198169  0  3.910639  0  0  -0.200856  0  3.92466  0  0  -0.169686  -0.196159  0  3.900996  0
C  C67  1  0.66767887  0.13439365  0.23088514  1  0  -0.162296  0  3.65842  0  -0.020581  0  -0.198174  0  3.910735  0  0  -0.200857  0  3.924757  0  0  -0.169687  -0.196164  0  3.901091  0
C  C68  1  0.86813596  0.49024596  0.70749628  1  0  0.086044  0  3.636996  0  0.293226  0  0.028198  0  3.905603  0  0  0.033562  0  3.917713  0  0  -0.083567  0.024686  0  3.897285  0
C  C69  1  0.36813542  0.00975470  0.79250256  1  0  0.086016  0  3.636981  0  0.293146  0  0.02822  0  3.905516  0  0  0.033579  0  3.917632  0  0  -0.083542  0.024707  0  3.897196  0
C  C70  1  0.13186346  0.50975476  0.29250329  1  0  0.086045  0  3.637002  0  0.293221  0  0.028179  0  3.905607  0  0  0.033535  0  3.917729  0  0  -0.083553  0.024667  0  3.897289  0
C  C71  1  0.63186514  0.99024601  0.20749701  1  0  0.08601  0  3.637043  0  0.293299  0  0.028197  0  3.905585  0  0  0.033542  0  3.917721  0  0  -0.083546  0.024684  0  3.897267  0
S  S72  1  0.48898620  0.34279587  0.85304680  1  0  -0.420323  0  2.17557  0  -0.306596  0  -0.366549  0  2.516589  0  0  -0.386029  0  2.512561  0  0  -0.184148  -0.352916  0  2.519103  0
S  S73  1  0.98898475  0.15720371  0.64695246  1  0  -0.420291  0  2.175551  0  -0.306586  0  -0.366514  0  2.516548  0  0  -0.385994  0  2.512523  0  0  -0.184125  -0.35288  0  2.519065  0
S  S74  1  0.51101550  0.65720386  0.14695327  1  0  -0.420307  0  2.17559  0  -0.306585  0  -0.366533  0  2.516604  0  0  -0.386014  0  2.51258  0  0  -0.184138  -0.352901  0  2.51912  0
S  S75  1  0.01101239  0.84279601  0.35304761  1  0  -0.420312  0  2.17559  0  -0.306671  0  -0.366527  0  2.516603  0  0  -0.386006  0  2.512574  0  0  -0.184138  -0.352891  0  2.51912  0
S  S76  1  0.25842397  0.55049772  0.86747088  1  0  -0.376111  0  2.085186  0  -0.255253  0  -0.333698  0  2.413528  0  0  -0.352493  0  2.410346  0  0  -0.16307  -0.320372  0  2.41544  0
S  S77  1  0.75842461  0.94950205  0.63252858  1  0  -0.376061  0  2.085222  0  -0.255246  0  -0.333659  0  2.413573  0  0  -0.352447  0  2.410379  0  0  -0.163049  -0.320337  0  2.415488  0
S  S78  1  0.74157545  0.44950201  0.13252838  1  0  -0.376107  0  2.085189  0  -0.255251  0  -0.333699  0  2.413541  0  0  -0.352491  0  2.410355  0  0  -0.16307  -0.320377  0  2.415456  0
S  S79  1  0.24157481  0.05049768  0.36747067  1  0  -0.376125  0  2.085204  0  -0.255269  0  -0.33372  0  2.413561  0  0  -0.352516  0  2.410377  0  0  -0.163071  -0.320395  0  2.415481  0
N  N80  1  0.57724566  0.21298406  0.54301851  1  0  -0.443387  0  2.691568  0  -1.251797  0  -0.403333  0  2.949569  0  0  -0.417547  0  2.9586  0  0  -0.325039  -0.393624  0  2.94365  0
N  N81  1  0.07724592  0.28701484  0.95697909  1  0  -0.443378  0  2.691555  0  -1.251715  0  -0.403309  0  2.949524  0  0  -0.417525  0  2.958563  0  0  -0.325  -0.393598  0  2.943606  0
N  N82  1  0.42275719  0.78701371  0.45697849  1  0  -0.443398  0  2.691713  0  -1.251756  0  -0.403345  0  2.94971  0  0  -0.41756  0  2.958742  0  0  -0.325055  -0.393636  0  2.943794  0
N  N83  1  0.92275007  0.71298293  0.04301709  1  0  -0.443392  0  2.691435  0  -1.251834  0  -0.403339  0  2.949454  0  0  -0.41756  0  2.958494  0  0  -0.325032  -0.393629  0  2.943531  0
N  N84  1  0.24866274  0.52557726  0.55323236  1  0  -0.417192  0  2.612593  0  -1.220612  0  -0.385613  0  2.839885  0  0  -0.396734  0  2.850759  0  0  -0.305536  -0.378118  0  2.832528  0
N  N85  1  0.74866308  0.97442252  0.94676874  1  0  -0.417193  0  2.61257  0  -1.220583  0  -0.385621  0  2.839871  0  0  -0.396742  0  2.850751  0  0  -0.305523  -0.378126  0  2.832513  0
N  N86  1  0.75133668  0.47442051  0.44676792  1  0  -0.4172  0  2.612471  0  -1.220574  0  -0.385619  0  2.839768  0  0  -0.39674  0  2.850647  0  0  -0.305517  -0.378124  0  2.832412  0
N  N87  1  0.25133291  0.02557132  0.05323522  1  0  -0.417265  0  2.612946  0  -1.220806  0  -0.385715  0  2.840271  0  0  -0.396832  0  2.851141  0  0  -0.305592  -0.378221  0  2.832916  0
N  N88  1  0.62274816  0.69270131  0.88125099  1  0  -0.619701  0  3.102859  0  -1.184784  0  -0.558017  0  3.340515  0  0  -0.578527  0  3.342844  0  0  -0.635933  -0.543555  0  3.338324  0
N  N89  1  0.12274870  0.80729954  0.61874887  1  0  -0.619743  0  3.102856  0  -1.184876  0  -0.558063  0  3.340533  0  0  -0.578577  0  3.342862  0  0  -0.635981  -0.543601  0  3.338344  0
N  N90  1  0.37725126  0.30729842  0.11874827  1  0  -0.619649  0  3.102783  0  -1.184812  0  -0.557988  0  3.340447  0  0  -0.578503  0  3.342776  0  0  -0.635945  -0.543526  0  3.338254  0
N  N91  1  0.87725186  0.19270117  0.38125151  1  0  -0.619683  0  3.102785  0  -1.184784  0  -0.557984  0  3.340454  0  0  -0.578496  0  3.342779  0  0  -0.635951  -0.543522  0  3.338267  0
N  N92  1  0.88619122  0.45882964  0.81566330  1  0  -0.613304  0  3.131092  0  -1.162919  0  -0.551908  0  3.369697  0  0  -0.573083  0  3.372668  0  0  -0.641095  -0.537175  0  3.367734  0
N  N93  1  0.38618961  0.04117100  0.68433717  1  0  -0.613323  0  3.131104  0  -1.162874  0  -0.551942  0  3.369706  0  0  -0.573119  0  3.372678  0  0  -0.641111  -0.537207  0  3.367742  0
N  N94  1  0.11380934  0.54117009  0.18433678  1  0  -0.613279  0  3.131094  0  -1.162864  0  -0.551893  0  3.369722  0  0  -0.573068  0  3.372694  0  0  -0.641099  -0.537159  0  3.367758  0
N  N95  1  0.61380981  0.95882873  0.31566291  1  0  -0.613312  0  3.131043  0  -1.162923  0  -0.551925  0  3.369668  0  0  -0.573099  0  3.372645  0  0  -0.64112  -0.537191  0  3.367707  0
