# generated using pymatgen
data_NiH24C32N2O7
_symmetry_space_group_name_H-M   'P 1'
_cell_length_a   11.15160046
_cell_length_b   11.71863254
_cell_length_c   13.89627260
_cell_angle_alpha   69.96270300
_cell_angle_beta   67.00362703
_cell_angle_gamma   76.54677118
_symmetry_Int_Tables_number   1
_chemical_formula_structural   NiH24C32N2O7
_chemical_formula_sum   'Ni2 H48 C64 N4 O14'
_cell_volume   1560.20083963
_cell_formula_units_Z   2
loop_
 _symmetry_equiv_pos_site_id
 _symmetry_equiv_pos_as_xyz
  1  'x, y, z'
loop_
 _atom_site_type_symbol
 _atom_site_label
 _atom_site_symmetry_multiplicity
 _atom_site_fract_x
 _atom_site_fract_y
 _atom_site_fract_z
 _atom_site_occupancy
 _atom_site_hle17_ddec_charge
 _atom_site_hle17_ddec_spin_density
 _atom_site_hle17_ddec_sum_bond_order
 _atom_site_hle17_magmom
 _atom_site_hse06_10hf_ddec_charge
 _atom_site_hse06_10hf_ddec_spin_density
 _atom_site_hse06_10hf_ddec_sum_bond_order
 _atom_site_hse06_10hf_magmom
 _atom_site_hse06_ddec_charge
 _atom_site_hse06_ddec_spin_density
 _atom_site_hse06_ddec_sum_bond_order
 _atom_site_hse06_magmom
 _atom_site_pbe_cm5_charge
 _atom_site_pbe_ddec_charge
 _atom_site_pbe_ddec_spin_density
 _atom_site_pbe_ddec_sum_bond_order
 _atom_site_pbe_magmom
Ni  Ni0  1  0.33797028  0.36076049  0.44954453  1  0.753253  1.862865  2.104858  1.472  0.755538  1.864078  2.507749  1.594  0.856333  1.929609  2.423281  1.688  0.645381  0.686093  1.811895  2.566311  1.515
Ni  Ni1  1  0.66202770  0.63923545  0.55045535  1  0.753346  -1.86287  2.104767  -1.472  0.755606  -1.86408  2.507674  -1.594  0.856403  -1.929612  2.423203  -1.688  0.645404  0.686156  -1.811103  2.566247  -1.515
H  H2  1  0.05828312  0.18122934  0.79040323  1  0.100547  0.000317  0.948024  0.0  0.109953  0.0003  1.008738  0.0  0.11408  0.000195  1.004888  0.0  0.106891  0.107058  0.000429  1.011262  0.0
H  H3  1  0.94172243  0.81877013  0.20960036  1  0.10053  -0.00032  0.947947  0.0  0.109944  -0.0003  1.008659  0.0  0.114071  -0.000195  1.004812  0.0  0.106873  0.107052  -0.000417  1.011184  0.0
H  H4  1  0.60725633  0.27629355  0.41932243  1  0.091805  0.000863  0.954328  0.002  0.096743  0.000676  1.022908  0.002  0.099173  0.000481  1.020234  0.001  0.123122  0.094622  0.000902  1.025418  0.002
H  H5  1  0.39274028  0.72370691  0.58068165  1  0.091769  -0.000862  0.954134  -0.002  0.096761  -0.000676  1.022672  -0.002  0.099191  -0.000481  1.019994  -0.001  0.123117  0.094666  -0.000878  1.025199  -0.002
H  H6  1  0.94288273  0.87694482  0.41335989  1  0.118422  6.3e-05  0.96056  0.0  0.128361  -1.4e-05  1.0244  0.0  0.131944  7e-06  1.022057  0.0  0.107588  0.125699  -3.8e-05  1.026247  0.0
H  H7  1  0.05710723  0.12306209  0.58664238  1  0.118424  -6e-05  0.960571  0.0  0.128369  1.4e-05  1.02439  0.0  0.131952  -7e-06  1.022047  0.0  0.107582  0.125709  4.4e-05  1.02625  0.0
H  H8  1  0.94566075  0.52834687  0.18206734  1  0.113321  5.9e-05  0.95511  0.0  0.124628  1.8e-05  1.015939  0.0  0.127455  1.4e-05  1.015162  0.0  0.107406  0.122505  1.7e-05  1.016789  0.0
H  H9  1  0.05434132  0.47164810  0.81793436  1  0.113431  -6.2e-05  0.955129  0.0  0.12471  -1.8e-05  1.015984  0.0  0.127537  -1.4e-05  1.015206  0.0  0.107449  0.122578  -2e-05  1.016832  0.0
H  H10  1  0.39087219  0.12013414  0.96503999  1  0.109791  -4e-06  0.943048  0.0  0.121785  1e-05  0.997851  0.0  0.125081  6e-06  0.997045  0.0  0.105248  0.1194  8e-06  0.998606  0.0
H  H11  1  0.60913599  0.87986806  0.03496268  1  0.109764  5e-06  0.943311  0.0  0.121772  -1e-05  0.998082  0.0  0.125056  -6e-06  0.997292  0.0  0.105258  0.119406  -2.4e-05  0.998823  0.0
H  H12  1  0.33730197  0.80863244  0.42592194  1  0.115683  0.000254  0.947515  0.0  0.124303  0.000322  1.010585  0.0  0.128429  0.000231  1.007767  0.0  0.111427  0.121169  0.000397  1.01293  0.001
H  H13  1  0.66269300  0.19136616  0.57408681  1  0.115657  -0.000251  0.947345  0.0  0.124246  -0.000322  1.010463  0.0  0.128378  -0.000231  1.007649  0.0  0.111383  0.121107  -0.000392  1.012812  -0.001
H  H14  1  0.41575998  0.54038630  0.22598293  1  0.080383  0.000927  0.934487  0.002  0.088276  0.000746  0.996724  0.001  0.090691  0.00054  0.99448  0.001  0.118649  0.086237  0.000948  0.99897  0.001
H  H15  1  0.58424535  0.45960503  0.77401585  1  0.080319  -0.000932  0.934515  -0.002  0.088215  -0.000745  0.996757  -0.001  0.090629  -0.00054  0.994515  -0.001  0.118607  0.086168  -0.000955  0.998999  -0.001
H  H16  1  0.44419848  0.21888020  0.76413983  1  0.095282  0.000293  0.949836  0.0  0.104709  0.000263  1.012639  0.0  0.107722  0.00017  1.010723  0.0  0.103185  0.102571  0.000366  1.013998  0.0
H  H17  1  0.55580190  0.78112939  0.23585898  1  0.09536  -0.000291  0.950014  0.0  0.104795  -0.000263  1.012764  0.0  0.107805  -0.00017  1.010851  0.0  0.103196  0.102643  -0.000369  1.014122  0.0
H  H18  1  0.44072414  0.60194644  0.41271950  1  0.091556  0.000932  0.95329  0.002  0.095971  0.000706  1.022312  0.001  0.098829  0.00054  1.019786  0.001  0.116042  0.09393  0.000854  1.024175  0.001
H  H19  1  0.55927446  0.39805487  0.58728872  1  0.091599  -0.00093  0.953276  -0.002  0.096008  -0.000706  1.022276  -0.001  0.098878  -0.000539  1.019745  -0.001  0.116033  0.093964  -0.000851  1.024145  -0.001
H  H20  1  0.08042897  0.47064410  0.53371379  1  0.084151  0.000877  0.960915  0.002  0.091376  0.00069  1.026715  0.001  0.093572  0.000485  1.024345  0.001  0.117937  0.089353  0.000903  1.029238  0.002
H  H21  1  0.91956381  0.52936197  0.46627988  1  0.084148  -0.000868  0.960849  -0.002  0.091368  -0.000691  1.026657  -0.001  0.093566  -0.000485  1.024283  -0.001  0.117925  0.089341  -0.000902  1.029178  -0.002
H  H22  1  0.62812273  0.59018047  0.07337860  1  0.113926  0.0003  0.93283  0.0  0.12525  0.0004  0.987503  0.0  0.128808  0.000278  0.986365  0.0  0.111507  0.122576  0.000525  0.988704  0.0
H  H23  1  0.37188117  0.40979807  0.92662428  1  0.113873  -0.000298  0.932754  0.0  0.125166  -0.0004  0.987472  0.0  0.128726  -0.000278  0.986329  0.0  0.111442  0.122486  -0.000531  0.988672  0.0
H  H24  1  0.37536595  0.02053791  0.32563805  1  0.105208  0.000288  0.933515  0.0  0.115723  0.000294  0.991504  0.0  0.119699  0.000183  0.988145  0.0  0.108535  0.112796  0.000395  0.993917  0.0
H  H25  1  0.62461766  0.97945713  0.67437184  1  0.105235  -0.000292  0.933342  0.0  0.115705  -0.000294  0.991386  0.0  0.11968  -0.000183  0.988028  0.0  0.108513  0.112775  -0.000398  0.993812  0.0
H  H26  1  0.82646535  0.31799139  0.27974321  1  0.114082  0.000309  0.953673  0.0  0.12175  0.000382  1.016643  0.0  0.125341  0.000271  1.01571  0.0  0.108318  0.119102  0.000508  1.017517  0.0
H  H27  1  0.17353212  0.68200263  0.72026673  1  0.11406  -0.000313  0.953701  0.0  0.121725  -0.000382  1.016652  0.0  0.125314  -0.000272  1.015724  0.0  0.108363  0.119114  -0.000491  1.017516  0.0
H  H28  1  0.00079739  0.09059232  0.99308636  1  0.114615  -1e-05  0.953483  0.0  0.12565  1.1e-05  1.010459  0.0  0.129055  5e-06  1.009138  0.0  0.107576  0.123279  3.7e-05  1.011408  0.0
H  H29  1  0.99920879  0.90939993  0.00691116  1  0.114604  1.1e-05  0.953422  0.0  0.12564  -1.1e-05  1.010394  0.0  0.129043  -5e-06  1.009076  0.0  0.107584  0.123291  -2.1e-05  1.011355  0.0
H  H30  1  0.31604686  0.92459534  0.21512734  1  0.108782  3e-05  0.942063  0.0  0.120178  2.7e-05  0.999304  0.0  0.123372  2.2e-05  0.998298  0.0  0.104192  0.117996  3e-05  1.000046  0.0
H  H31  1  0.68395899  0.07540052  0.78487285  1  0.10878  -3e-05  0.942052  0.0  0.120192  -2.7e-05  0.99928  0.0  0.123377  -2.2e-05  0.998283  0.0  0.104187  0.118016  -6.5e-05  1.000039  0.0
H  H32  1  0.13292609  0.34983846  0.23069857  1  0.089349  0.000362  0.981689  0.0  0.097986  0.000318  1.048999  0.0  0.10099  0.000211  1.046736  0.0  0.100362  0.095962  0.000413  1.050401  0.0
H  H33  1  0.86708630  0.65015835  0.76929274  1  0.089362  -0.000363  0.981649  0.0  0.098006  -0.000318  1.048956  0.0  0.101008  -0.00021  1.046694  0.0  0.100376  0.095965  -0.000423  1.050351  0.0
H  H34  1  0.95968262  0.67431006  0.54873118  1  0.122681  0.00033  0.979391  0.0  0.130693  0.00034  1.042194  0.0  0.134587  0.000269  1.041005  0.0  0.107608  0.127605  0.000402  1.043634  0.0
H  H35  1  0.04031548  0.32569967  0.45125610  1  0.122762  -0.000319  0.979258  0.0  0.130756  -0.00034  1.042077  0.0  0.13465  -0.000268  1.040892  0.0  0.107639  0.127663  -0.000402  1.043527  0.0
H  H36  1  0.85054985  0.47665900  0.78894980  1  0.092895  -0.000143  0.959148  0.0  0.108593  -0.000135  1.026395  0.0  0.110472  -6.8e-05  1.024356  0.0  0.097373  0.107059  -0.000213  1.027971  0.0
H  H37  1  0.14945311  0.52333687  0.21105207  1  0.09291  0.000138  0.959073  0.0  0.108608  0.000134  1.026332  0.0  0.110486  6.8e-05  1.024293  0.0  0.097397  0.107068  0.000213  1.027912  0.0
H  H38  1  0.75219676  0.35528887  0.87401827  1  0.096112  -1.4e-05  0.914375  0.0  0.116855  -3.6e-05  0.969435  0.0  0.117404  -2.4e-05  0.968855  0.0  0.107935  0.116484  -4.9e-05  0.969804  0.0
H  H39  1  0.24780863  0.64471067  0.12597959  1  0.096141  1.5e-05  0.914328  0.0  0.116877  3.6e-05  0.969396  0.0  0.117427  2.5e-05  0.968819  0.0  0.107934  0.116507  5.2e-05  0.969771  0.0
H  H40  1  0.92486053  0.33014669  0.85032845  1  0.079113  -3.2e-05  0.972615  0.0  0.095022  -1.7e-05  1.041905  0.0  0.095078  -1.4e-05  1.042287  0.0  0.095395  0.094872  -2.3e-05  1.04172  0.0
H  H41  1  0.07513915  0.66985108  0.14966891  1  0.079112  3.2e-05  0.97261  0.0  0.09504  1.7e-05  1.041892  0.0  0.095098  1.4e-05  1.042272  0.0  0.095356  0.09488  2.3e-05  1.041705  0.0
H  H42  1  0.26048883  0.05551021  0.59044588  1  0.104245  -0.000112  0.956841  0.0  0.119804  -8e-05  1.020886  0.0  0.121172  -8.6e-05  1.020188  0.0  0.100578  0.118481  -7.7e-05  1.021758  0.0
H  H43  1  0.73950304  0.94449758  0.40955767  1  0.104282  0.000107  0.95681  0.0  0.11984  8e-05  1.02086  0.0  0.121209  8.6e-05  1.020162  0.0  0.100567  0.118505  7.9e-05  1.021729  0.0
H  H44  1  0.30311667  0.90997939  0.67599893  1  0.098919  2.4e-05  0.923031  0.0  0.11809  8e-06  0.981215  0.0  0.118731  1.1e-05  0.980859  0.0  0.106192  0.117535  2.8e-05  0.981621  0.0
H  H45  1  0.69687247  0.09002660  0.32400532  1  0.098982  -2.4e-05  0.923113  0.0  0.118193  -8e-06  0.98124  0.0  0.118834  -1.1e-05  0.980885  0.0  0.106218  0.117615  1.3e-05  0.981653  0.0
H  H46  1  0.13790608  0.98342307  0.71441743  1  0.076658  -2e-05  0.940711  0.0  0.092028  -5e-06  1.009391  0.0  0.092597  -5e-06  1.008698  0.0  0.092464  0.091687  -2e-06  1.009763  0.0
H  H47  1  0.86208302  0.01658293  0.28558538  1  0.076723  1.7e-05  0.940688  0.0  0.092079  5e-06  1.009379  0.0  0.092646  4e-06  1.008691  0.0  0.092442  0.09172  -2e-06  1.009756  0.0
H  H48  1  0.07810494  0.25833822  0.11706432  1  0.111618  -6e-06  0.957739  0.0  0.119647  1.9e-05  1.021684  0.0  0.121891  1.2e-05  1.022718  0.0  0.104111  0.118153  4.4e-05  1.020995  0.0
H  H49  1  0.92190502  0.74165579  0.88293505  1  0.11152  4e-06  0.957669  0.0  0.119569  -1.9e-05  1.021617  0.0  0.1218  -1.2e-05  1.022662  0.0  0.104036  0.118055  -5e-06  1.020915  0.0
C  C50  1  0.25462583  0.20519581  0.76534184  1  -0.080285  0.003295  3.783408  0.004  -0.056723  0.001667  4.009926  0.002  -0.066158  0.001226  4.032712  0.001  -0.025795  -0.050989  0.002199  3.995211  0.002
C  C51  1  0.74537251  0.79481296  0.23465068  1  -0.080357  -0.003312  3.78357  -0.004  -0.056824  -0.001671  4.010116  -0.002  -0.066209  -0.001227  4.032835  -0.001  -0.025817  -0.0511  -0.002144  3.995393  -0.002
C  C52  1  0.28561633  0.26279782  0.64635328  1  0.610983  -0.00676  3.902258  -0.011  0.571883  -0.001224  4.197566  -0.005  0.608962  -0.001328  4.194678  -0.004  0.192854  0.545774  -0.001271  4.198365  -0.006
C  C53  1  0.71439361  0.73720444  0.35364232  1  0.611095  0.006762  3.902106  0.012  0.572015  0.001226  4.197379  0.005  0.609082  0.00133  4.194485  0.004  0.192863  0.545896  0.001329  4.198174  0.006
C  C54  1  0.13805759  0.76188508  0.48661183  1  0.127714  -0.011867  3.751635  -0.013  0.138522  -0.003951  3.981813  -0.005  0.146624  -0.003703  4.000082  -0.004  0.013898  0.132331  -0.004998  3.970136  -0.006
C  C55  1  0.86194081  0.23812366  0.51338284  1  0.127707  0.011882  3.751417  0.013  0.138493  0.003952  3.981618  0.005  0.146621  0.003705  3.999849  0.004  0.013893  0.132294  0.005021  3.969948  0.006
C  C56  1  0.29325045  0.25000186  0.34710250  1  0.60678  -0.007194  3.891791  -0.012  0.566046  -0.001257  4.192834  -0.005  0.602777  -0.001371  4.190533  -0.004  0.19058  0.540223  -0.001371  4.193174  -0.006
C  C57  1  0.70674517  0.74999861  0.65290118  1  0.606674  0.007199  3.891819  0.012  0.565928  0.001257  4.192895  0.005  0.602655  0.001369  4.190599  0.004  0.190468  0.54009  0.001404  4.193172  0.006
C  C58  1  0.13006085  0.16792882  0.82966485  1  -0.053388  -0.000945  3.764303  -0.001  -0.076948  0.000245  4.016416  0.0  -0.074288  4e-05  4.034941  0.0  -0.082197  -0.078386  0.000367  4.003788  0.0
C  C59  1  0.86993951  0.83207168  0.17033223  1  -0.053312  0.000967  3.764257  0.001  -0.076874  -0.000243  4.016355  0.0  -0.07423  -3.9e-05  4.034864  0.0  -0.082124  -0.078295  -0.00034  4.003724  0.0
C  C60  1  0.25920189  0.19144412  0.28310959  1  -0.073615  0.003755  3.775357  0.004  -0.049698  0.001924  4.003247  0.002  -0.058628  0.001415  4.0256  0.001  -0.0222  -0.044296  0.002505  3.988827  0.003
C  C61  1  0.74079804  0.80856003  0.71688660  1  -0.073627  -0.003752  3.775317  -0.004  -0.049697  -0.001928  4.003172  -0.002  -0.058626  -0.001415  4.025525  -0.001  -0.022246  -0.044295  -0.00248  3.988716  -0.003
C  C62  1  0.61698132  0.34720852  0.34267156  1  0.13801  -0.011264  3.684758  -0.013  0.107225  -0.002497  3.945181  -0.004  0.11715  -0.003037  3.962243  -0.005  0.050984  0.099951  -0.002443  3.934945  -0.004
C  C63  1  0.38301475  0.65278829  0.65733374  1  0.138152  0.011265  3.684399  0.013  0.10731  0.002497  3.94482  0.004  0.117236  0.003037  3.961877  0.005  0.051067  0.100047  0.002507  3.934645  0.004
C  C64  1  0.96705276  0.93148329  0.45153141  1  -0.211435  -0.002721  3.740548  -0.003  -0.241491  -0.000675  3.998558  -0.001  -0.244828  -0.000734  4.017718  -0.001  -0.103949  -0.23951  -0.000731  3.986231  -0.001
C  C65  1  0.03294413  0.06852267  0.54846886  1  -0.211559  0.002715  3.740572  0.003  -0.241625  0.00067  3.998556  0.001  -0.24496  0.000738  4.017715  0.001  -0.103972  -0.239661  0.000748  3.986274  0.001
C  C66  1  0.97116662  0.51522058  0.10217518  1  -0.222128  -0.001927  3.76474  -0.002  -0.250053  -0.000468  4.023639  -0.001  -0.253655  -0.000512  4.04297  -0.001  -0.104918  -0.247909  -0.000555  4.011169  -0.001
C  C67  1  0.02884450  0.48476339  0.89782595  1  -0.222206  0.00194  3.764688  0.002  -0.250078  0.000472  4.023651  0.001  -0.25368  0.00051  4.042981  0.001  -0.105016  -0.247932  0.000553  4.01118  0.001
C  C68  1  0.31850964  0.13419182  0.92616730  1  -0.195579  0.001016  3.77012  0.001  -0.216017  0.000199  4.021209  0.0  -0.223293  0.000246  4.042262  0.0  -0.103271  -0.211014  0.000214  4.006821  0.0
C  C69  1  0.68149767  0.86580685  0.07382514  1  -0.195359  -0.001035  3.770308  -0.001  -0.215793  -0.0002  4.021374  0.0  -0.22306  -0.000245  4.042443  0.0  -0.103211  -0.210821  -0.000235  4.006974  0.0
C  C70  1  0.06917028  0.88389354  0.49418915  1  -0.036544  0.003464  3.781048  0.004  -0.028009  0.000884  4.022781  0.001  -0.031631  0.000945  4.045586  0.001  -0.017574  -0.025212  0.001035  4.007462  0.001
C  C71  1  0.93083044  0.11611242  0.50580770  1  -0.036428  -0.003464  3.780739  -0.004  -0.027873  -0.000881  4.022527  -0.001  -0.031502  -0.000945  4.045333  -0.001  -0.017529  -0.02507  -0.00105  4.007227  -0.001
C  C72  1  0.27530242  0.73771832  0.44885800  1  -0.165397  0.011179  3.717099  0.013  -0.187168  0.003435  3.971568  0.004  -0.194012  0.003462  3.988362  0.004  -0.084182  -0.182676  0.003819  3.961192  0.005
C  C73  1  0.72469352  0.26228851  0.55114736  1  -0.165325  -0.011191  3.716777  -0.013  -0.187041  -0.003435  3.971151  -0.004  -0.193903  -0.003464  3.987956  -0.004  -0.084091  -0.182541  -0.003802  3.960766  -0.005
C  C74  1  0.10184126  0.95354082  0.54380450  1  0.222036  -0.002588  3.796264  -0.003  0.206181  -0.000652  4.06113  -0.001  0.215942  -0.000733  4.077711  -0.001  0.078498  0.199269  -0.000754  4.05  -0.001
C  C75  1  0.89815446  0.04646523  0.45618893  1  0.221926  0.00259  3.796216  0.003  0.205953  0.000654  4.061165  0.001  0.215695  0.000729  4.077751  0.001  0.078363  0.199048  0.000756  4.050037  0.001
C  C76  1  0.87461929  0.48267662  0.07857823  1  -0.03493  0.002452  3.779106  0.003  -0.029305  0.000554  4.023888  0.001  -0.031304  0.000611  4.044488  0.001  -0.018264  -0.027807  0.000718  4.010277  0.001
C  C77  1  0.12538609  0.51730734  0.92142839  1  -0.035052  -0.002457  3.779156  -0.003  -0.029503  -0.000559  4.024017  -0.001  -0.031502  -0.000609  4.044615  -0.001  -0.018296  -0.028024  -0.000652  4.010396  -0.001
C  C78  1  0.50997636  0.49415958  0.23342091  1  0.116791  -0.011375  3.71741  -0.013  0.091608  -0.002894  3.97322  -0.004  0.100825  -0.003272  3.990839  -0.005  0.044396  0.08467  -0.003138  3.962851  -0.004
C  C79  1  0.49002416  0.50583175  0.76658161  1  0.11692  0.011393  3.717282  0.014  0.091713  0.002894  3.973064  0.004  0.100928  0.003273  3.990685  0.005  0.044396  0.084773  0.003144  3.962655  0.004
C  C80  1  0.34797264  0.18868669  0.81481331  1  -0.041601  -0.001034  3.754164  -0.001  -0.064481  0.000188  4.001178  0.0  -0.062023  -1e-06  4.021533  0.0  -0.081103  -0.065685  0.000265  3.987092  0.0
C  C81  1  0.65201520  0.81133028  0.18518752  1  -0.041913  0.001043  3.754388  0.001  -0.064794  -0.000185  4.001374  0.0  -0.062349  0.0  4.021706  0.0  -0.081256  -0.066005  -0.000255  3.98728  0.0
C  C82  1  0.33418006  0.62135009  0.44102502  1  0.111939  -0.01104  3.709884  -0.013  0.08425  -0.002751  3.973269  -0.004  0.093295  -0.00317  3.991101  -0.005  0.040024  0.077139  -0.002882  3.963131  -0.004
C  C83  1  0.66581502  0.37865583  0.55898088  1  0.111789  0.011044  3.709771  0.013  0.084147  0.002752  3.973081  0.004  0.093177  0.003172  3.990929  0.005  0.039984  0.077023  0.002885  3.962956  0.004
C  C84  1  0.13239699  0.54980610  0.50784748  1  0.122383  -0.011107  3.70395  -0.013  0.096931  -0.002612  3.954605  -0.004  0.106537  -0.003134  3.972176  -0.005  0.040635  0.090054  -0.002641  3.943906  -0.004
C  C85  1  0.86759940  0.45019444  0.49214873  1  0.122437  0.011089  3.704101  0.013  0.097009  0.002611  3.954763  0.004  0.106616  0.003136  3.972331  0.005  0.040626  0.09012  0.002647  3.944056  0.004
C  C86  1  0.62763968  0.52103951  0.14949527  1  -0.152138  0.011024  3.709818  0.013  -0.172722  0.003299  3.957286  0.004  -0.179165  0.003342  3.974304  0.004  -0.080276  -0.168815  0.003617  3.947182  0.005
C  C87  1  0.37235917  0.47894911  0.85050712  1  -0.152154  -0.011034  3.709705  -0.013  -0.172681  -0.003298  3.957166  -0.004  -0.179124  -0.003342  3.974187  -0.004  -0.080228  -0.16879  -0.003578  3.947031  -0.005
C  C88  1  0.31004736  0.07111261  0.27989018  1  -0.03877  -0.001102  3.731729  -0.001  -0.064063  0.000248  3.982644  0.0  -0.061739  2.4e-05  4.002137  0.0  -0.076297  -0.065249  0.00025  3.969256  0.0
C  C89  1  0.68995891  0.92888871  0.72011121  1  -0.038859  0.001097  3.731903  0.001  -0.064113  -0.000246  3.982816  0.0  -0.061789  -2.5e-05  4.002308  0.0  -0.076281  -0.065294  -0.000219  3.969447  0.0
C  C90  1  0.73868424  0.37110378  0.26387270  1  -0.15606  0.011323  3.689308  0.013  -0.173061  0.003666  3.93045  0.005  -0.180527  0.003665  3.948345  0.005  -0.080375  -0.168503  0.004024  3.919532  0.005
C  C91  1  0.26131500  0.62889117  0.73613353  1  -0.156054  -0.011319  3.689131  -0.013  -0.173002  -0.003664  3.930257  -0.005  -0.180468  -0.003666  3.948149  -0.005  -0.080328  -0.168428  -0.003976  3.919364  -0.005
C  C92  1  0.19382236  0.09656646  0.98884003  1  0.282821  -0.001654  3.802587  -0.002  0.274515  -0.000519  4.064619  -0.001  0.286071  -0.000475  4.080039  -0.001  0.085712  0.266674  -0.000724  4.054024  -0.001
C  C93  1  0.80618108  0.90343309  0.01115847  1  0.28286  0.001669  3.802849  0.002  0.274534  0.00052  4.064946  0.001  0.286067  0.000474  4.080373  0.001  0.085695  0.266685  0.000702  4.054348  0.001
C  C94  1  0.74582913  0.45903779  0.16418248  1  0.129058  -0.012131  3.757733  -0.014  0.141317  -0.00398  3.988094  -0.005  0.148675  -0.003693  4.006469  -0.004  0.01606  0.135556  -0.005018  3.976557  -0.006
C  C95  1  0.25417022  0.54094627  0.83581960  1  0.129119  0.012132  3.757626  0.014  0.141338  0.003979  3.988068  0.005  0.148698  0.003694  4.006441  0.004  0.015979  0.135573  0.00507  3.976501  0.006
C  C96  1  0.09853528  0.11570681  0.94150245  1  -0.186177  0.001064  3.759487  0.001  -0.209266  0.000234  4.016019  0.0  -0.215658  0.00027  4.035228  0.0  -0.102361  -0.205048  0.00031  4.002992  0.001
C  C97  1  0.90146248  0.88430007  0.05849728  1  -0.186159  -0.001085  3.759457  -0.001  -0.209227  -0.000235  4.015977  0.0  -0.215618  -0.00027  4.035196  0.0  -0.102323  -0.205008  -0.000265  4.002962  -0.001
C  C98  1  0.27796278  0.01814282  0.21851195  1  -0.186221  0.001187  3.757846  0.001  -0.209541  0.000242  4.016668  0.0  -0.216352  0.00029  4.037563  0.0  -0.101648  -0.204896  0.000309  4.00222  0.001
C  C99  1  0.72203609  0.98185402  0.78148810  1  -0.186157  -0.001177  3.757957  -0.001  -0.209481  -0.000241  4.016775  0.0  -0.21629  -0.000289  4.037678  0.0  -0.101595  -0.204823  -0.000336  4.002372  -0.001
C  C100  1  0.19587241  0.08711429  0.15975772  1  0.275802  -0.001819  3.800787  -0.002  0.267294  -0.000571  4.063755  -0.001  0.278055  -0.000519  4.079445  -0.001  0.082366  0.25997  -0.000757  4.053046  -0.001
C  C101  1  0.80413705  0.91288429  0.84024124  1  0.27579  0.001814  3.800653  0.002  0.267282  0.000568  4.063676  0.001  0.278036  0.000519  4.079352  0.001  0.082362  0.259966  0.000759  4.052992  0.001
C  C102  1  0.17437362  0.25767130  0.22539030  1  -0.045079  -0.001047  3.75172  -0.001  -0.070632  0.00022  4.000292  0.0  -0.068183  1.4e-05  4.019834  0.0  -0.084707  -0.07189  0.000358  3.986717  0.0
C  C103  1  0.82562766  0.74232186  0.77461145  1  -0.044932  0.001046  3.751716  0.001  -0.070482  -0.000217  4.000279  0.0  -0.068034  -1.4e-05  4.019819  0.0  -0.08458  -0.071751  -0.00038  3.986671  0.0
C  C104  1  0.06645886  0.66376441  0.51636978  1  -0.16826  0.01107  3.690604  0.013  -0.18185  0.003593  3.927627  0.005  -0.189518  0.003607  3.945029  0.005  -0.086936  -0.177037  0.003916  3.917248  0.005
C  C105  1  0.93353838  0.33624528  0.48362212  1  -0.168384  -0.011094  3.690693  -0.013  -0.181974  -0.003593  3.927753  -0.005  -0.18965  -0.003609  3.945143  -0.005  -0.086994  -0.177158  -0.003889  3.917386  -0.005
C  C106  1  0.83714604  0.39726957  0.86166738  1  -0.072962  -9.2e-05  3.633686  0.0  -0.166828  -0.000115  3.892205  0.0  -0.160045  -6.3e-05  3.895237  0.0  -0.138074  -0.171285  -0.000187  3.890226  0.0
C  C107  1  0.16285767  0.60272725  0.13832965  1  -0.073039  9.8e-05  3.633695  0.0  -0.166938  0.000118  3.89224  0.0  -0.160157  6.4e-05  3.89527  0.0  -0.138104  -0.171388  0.000177  3.890274  0.0
C  C108  1  0.90370155  0.46709773  0.97509717  1  0.215652  -0.001815  3.80998  -0.002  0.19999  -0.000451  4.076616  -0.001  0.209552  -0.000498  4.092555  -0.001  0.077331  0.193117  -0.000565  4.066126  -0.001
C  C109  1  0.09630355  0.53288808  0.02490685  1  0.21573  0.001813  3.810226  0.002  0.200126  0.000453  4.0768  0.001  0.209687  0.000498  4.092738  0.001  0.077317  0.193253  0.000572  4.066303  0.001
C  C110  1  0.22579452  0.96779656  0.64549395  1  -0.080029  4.3e-05  3.620714  0.0  -0.174135  4.1e-05  3.879668  0.0  -0.16747  1.5e-05  3.883341  0.0  -0.141279  -0.178483  7.4e-05  3.877245  0.0
C  C111  1  0.77419655  0.03220855  0.35450559  1  -0.08018  -3e-05  3.620672  0.0  -0.174372  -4e-05  3.879613  0.0  -0.16772  -1.5e-05  3.883271  0.0  -0.141315  -0.1787  -4.4e-05  3.877179  0.0
C  C112  1  0.14292443  0.20666914  0.16297740  1  -0.186961  0.001173  3.761644  0.001  -0.207709  0.000256  4.015329  0.0  -0.214659  0.000294  4.036782  0.0  -0.103611  -0.202976  0.000327  4.00058  0.001
C  C113  1  0.85708500  0.79332770  0.83701343  1  -0.186983  -0.001167  3.761746  -0.001  -0.207745  -0.000254  4.015435  0.0  -0.214687  -0.000293  4.036901  0.0  -0.103654  -0.203018  -0.000251  4.000675  -0.001
N  N114  1  0.26427532  0.52822376  0.46939167  1  -0.291942  0.06566  3.355595  0.094  -0.251622  0.041702  3.648979  0.062  -0.281967  0.034331  3.669036  0.052  -0.33912  -0.231406  0.047967  3.635985  0.069
N  N115  1  0.73572553  0.47178217  0.53060947  1  -0.29188  -0.065661  3.355605  -0.094  -0.251621  -0.041703  3.649033  -0.062  -0.281967  -0.034336  3.669091  -0.052  -0.339107  -0.231394  -0.047905  3.636027  -0.069
N  N116  1  0.50439298  0.40847554  0.32864504  1  -0.289197  0.063358  3.370359  0.09  -0.247087  0.039851  3.663347  0.059  -0.277028  0.033136  3.682714  0.05  -0.338852  -0.227545  0.045516  3.651593  0.065
N  N117  1  0.49560799  0.59152036  0.67135603  1  -0.289377  -0.063371  3.370268  -0.09  -0.24724  -0.039855  3.663269  -0.059  -0.277182  -0.03314  3.68263  -0.05  -0.338816  -0.227664  -0.045438  3.651516  -0.065
O  O118  1  0.36692057  0.19213711  0.40311583  1  -0.565493  0.054486  1.911143  0.08  -0.542301  0.03557  2.146188  0.055  -0.57924  0.025976  2.14004  0.042  -0.310148  -0.514367  0.045221  2.148829  0.068
O  O119  1  0.63307231  0.80786979  0.59688548  1  -0.56553  -0.054487  1.910883  -0.08  -0.542318  -0.035574  2.14591  -0.055  -0.579262  -0.025975  2.13977  -0.042  -0.310154  -0.514398  -0.045175  2.148528  -0.068
O  O120  1  0.24578667  0.36206588  0.34534372  1  -0.598376  0.066798  1.99217  0.099  -0.576068  0.041776  2.255599  0.065  -0.618346  0.031001  2.249752  0.05  -0.320417  -0.543906  0.051752  2.25761  0.078
O  O121  1  0.75420678  0.63794466  0.65465709  1  -0.598294  -0.066787  1.992243  -0.099  -0.575987  -0.041766  2.255705  -0.065  -0.618259  -0.030995  2.249856  -0.05  -0.320422  -0.543861  -0.051732  2.25773  -0.078
O  O122  1  0.19751650  0.28020231  0.60361207  1  -0.592053  0.053927  1.962901  0.079  -0.566661  0.035577  2.215395  0.055  -0.604868  0.026503  2.209227  0.042  -0.317029  -0.53793  0.04446  2.217869  0.066
O  O123  1  0.80248903  0.71980453  0.39638439  1  -0.592061  -0.053908  1.96301  -0.079  -0.566664  -0.03557  2.21547  -0.055  -0.604873  -0.026499  2.209307  -0.042  -0.317036  -0.537923  -0.044401  2.217927  -0.066
O  O124  1  0.40010122  0.29532982  0.58664785  1  -0.587563  0.057084  1.965684  0.084  -0.562944  0.036963  2.220887  0.057  -0.602659  0.027461  2.213594  0.044  -0.315223  -0.532643  0.046054  2.223964  0.069
O  O125  1  0.59989899  0.70467247  0.41335164  1  -0.587631  -0.057102  1.965473  -0.084  -0.56302  -0.036971  2.220694  -0.057  -0.60274  -0.027465  2.213399  -0.044  -0.315235  -0.532755  -0.046055  2.223787  -0.069
O  O126  1  0.19821533  0.90098860  0.58850050  1  -0.261173  -0.000364  2.368853  0.0  -0.184301  -0.000122  2.610543  0.0  -0.203154  -0.000138  2.615158  0.0  -0.186894  -0.170813  -0.000127  2.606797  0.0
O  O127  1  0.80177535  0.09902015  0.41149957  1  -0.261161  0.000363  2.368836  0.0  -0.184126  0.000122  2.610471  0.0  -0.20294  0.000139  2.615066  0.0  -0.186788  -0.170654  0.0002  2.60672  0.0
O  O128  1  0.16295364  0.03453037  0.09875418  1  -0.313199  -0.000166  2.297284  0.0  -0.250732  -6.9e-05  2.518564  0.0  -0.266252  -6.7e-05  2.516799  0.0  -0.168699  -0.239466  -6.6e-05  2.51897  0.0
O  O129  1  0.83705586  0.96546732  0.90124286  1  -0.313218  0.000168  2.297404  0.0  -0.250795  6.9e-05  2.518757  0.0  -0.266273  6.7e-05  2.516966  0.0  -0.16869  -0.239526  0.000105  2.519169  0.0
O  O130  1  0.80607533  0.43164746  0.95899107  1  -0.255769  -0.000217  2.345506  0.0  -0.183226  -6.2e-05  2.583198  0.0  -0.200289  -6.9e-05  2.585643  0.0  -0.192843  -0.171085  -0.000113  2.58122  0.0
O  O131  1  0.19392579  0.56834663  0.04100830  1  -0.255741  0.000216  2.345699  0.0  -0.183182  6.1e-05  2.583345  0.0  -0.200239  6.9e-05  2.585787  0.0  -0.1928  -0.171064  0.000113  2.581382  0.0
