# generated using pymatgen
data_ZnH14C18N2O5
_symmetry_space_group_name_H-M   'P 1'
_cell_length_a   9.09497112
_cell_length_b   10.17930300
_cell_length_c   10.48769671
_cell_angle_alpha   103.79877513
_cell_angle_beta   113.48449129
_cell_angle_gamma   100.86834956
_symmetry_Int_Tables_number   1
_chemical_formula_structural   ZnH14C18N2O5
_chemical_formula_sum   'Zn2 H28 C36 N4 O10'
_cell_volume   819.81890542
_cell_formula_units_Z   2
loop_
 _symmetry_equiv_pos_site_id
 _symmetry_equiv_pos_as_xyz
  1  'x, y, z'
loop_
 _atom_site_type_symbol
 _atom_site_label
 _atom_site_symmetry_multiplicity
 _atom_site_fract_x
 _atom_site_fract_y
 _atom_site_fract_z
 _atom_site_occupancy
 _atom_site_hle17_bader_spin_density
 _atom_site_hle17_ddec_charge
 _atom_site_hle17_ddec_spin_density
 _atom_site_hle17_ddec_sum_bond_order
 _atom_site_hle17_magmom
 _atom_site_hse06_10hf_bader_spin_density
 _atom_site_hse06_10hf_ddec_charge
 _atom_site_hse06_10hf_ddec_spin_density
 _atom_site_hse06_10hf_ddec_sum_bond_order
 _atom_site_hse06_10hf_magmom
 _atom_site_hse06_bader_spin_density
 _atom_site_hse06_ddec_charge
 _atom_site_hse06_ddec_spin_density
 _atom_site_hse06_ddec_sum_bond_order
 _atom_site_hse06_magmom
 _atom_site_pbe_bader_spin_density
 _atom_site_pbe_cm5_charge
 _atom_site_pbe_ddec_charge
 _atom_site_pbe_ddec_spin_density
 _atom_site_pbe_ddec_sum_bond_order
 _atom_site_pbe_magmom
Zn  Zn0  1  0.41215036  0.17756606  0.34336424  1  0  1.040983  0  1.805162  0  0  0.857821  0  2.264019  0  0  0.907011  0  2.207248  0  0  0.681933  0.823137  0  2.303533  0
Zn  Zn1  1  0.58784968  0.82243338  0.65663578  1  0  1.040959  0  1.805174  0  0  0.857805  0  2.264033  0  0  0.907023  0  2.207271  0  0  0.681921  0.82312  0  2.303527  0
H  H2  1  0.27028103  0.43558892  0.41791209  1  0  0.093947  0  0.962405  0  0  0.101025  0  1.026533  0  0  0.10381  0  1.023999  0  0  0.11962  0.098839  0  1.028477  0
H  H3  1  0.72971822  0.56441159  0.58208789  1  0  0.093959  0  0.962407  0  0  0.101039  0  1.02653  0  0  0.103824  0  1.023997  0  0  0.119619  0.098851  0  1.02847  0
H  H4  1  0.98831820  0.46787120  0.35365790  1  0  0.118975  0  0.94489  0  0  0.127944  0  1.002767  0  0  0.131677  0  1.001266  0  0  0.111512  0.125489  0  1.003381  0
H  H5  1  0.01168345  0.53212932  0.64634387  1  0  0.118989  0  0.944865  0  0  0.127949  0  1.002753  0  0  0.131682  0  1.001254  0  0  0.11151  0.125494  0  1.003367  0
H  H6  1  0.72633312  0.24818436  0.19743547  1  0  0.103448  0  0.950393  0  0  0.11399  0  1.00841  0  0  0.116332  0  1.007252  0  0  0.109031  0.112167  0  1.009414  0
H  H7  1  0.27366772  0.75181721  0.80256435  1  0  0.10342  0  0.950387  0  0  0.113963  0  1.008401  0  0  0.116302  0  1.007246  0  0  0.109022  0.112141  0  1.009405  0
H  H8  1  0.76346293  0.01421724  0.11017905  1  0  0.113254  0  0.9379  0  0  0.126951  0  0.991297  0  0  0.130208  0  0.989792  0  0  0.112383  0.124679  0  0.992531  0
H  H9  1  0.23653591  0.98578538  0.88981938  1  0  0.113221  0  0.937913  0  0  0.126924  0  0.991306  0  0  0.13018  0  0.989803  0  0  0.112373  0.124651  0  0.992539  0
H  H10  1  0.81063795  0.82924495  0.03338413  1  0  0.109514  0  0.98723  0  0  0.115719  0  1.055734  0  0  0.118898  0  1.054649  0  0  0.106138  0.113382  0  1.056662  0
H  H11  1  0.18936250  0.17075556  0.96661627  1  0  0.109532  0  0.987169  0  0  0.11571  0  1.055704  0  0  0.118888  0  1.05462  0  0  0.106149  0.113375  0  1.056629  0
H  H12  1  0.88807172  0.61092121  0.97087315  1  0  0.087072  0  0.941975  0  0  0.101452  0  0.996716  0  0  0.103299  0  0.995992  0  0  0.107533  0.100311  0  0.996679  0
H  H13  1  0.11192713  0.38907822  0.02912645  1  0  0.087087  0  0.941961  0  0  0.10147  0  0.996698  0  0  0.103317  0  0.995974  0  0  0.10754  0.100331  0  0.996665  0
H  H14  1  0.19738223  0.62977689  0.07380555  1  0  0.095672  0  0.960468  0  0  0.10684  0  1.019593  0  0  0.108997  0  1.02017  0  0  0.106821  0.105606  0  1.018539  0
H  H15  1  0.80261782  0.37022255  0.92619352  1  0  0.095673  0  0.960471  0  0  0.106841  0  1.019594  0  0  0.108997  0  1.020172  0  0  0.106814  0.105604  0  1.01854  0
H  H16  1  0.41318551  0.87096824  0.23904925  1  0  0.091104  0  0.954251  0  0  0.09822  0  1.019915  0  0  0.101124  0  1.016775  0  0  0.120291  0.096002  0  1.022427  0
H  H17  1  0.58681374  0.12903227  0.76095169  1  0  0.09109  0  0.954231  0  0  0.098213  0  1.019899  0  0  0.101115  0  1.016757  0  0  0.120285  0.095996  0  1.022411  0
H  H18  1  0.10560838  0.26182856  0.63688969  1  0  0.095914  0  0.952352  0  0  0.104286  0  1.01651  0  0  0.107694  0  1.014815  0  0  0.099317  0.101711  0  1.018068  0
H  H19  1  0.89439366  0.73816981  0.36310982  1  0  0.095945  0  0.952292  0  0  0.104355  0  1.016416  0  0  0.107763  0  1.014719  0  0  0.099336  0.101779  0  1.017982  0
H  H20  1  0.69109279  0.87640166  0.35608805  1  0  0.092833  0  0.976267  0  0  0.102697  0  1.042323  0  0  0.105827  0  1.039802  0  0  0.098411  0.100446  0  1.044168  0
H  H21  1  0.30891085  0.12359780  0.64391417  1  0  0.092925  0  0.976149  0  0  0.102727  0  1.042278  0  0  0.105877  0  1.039733  0  0  0.09843  0.100478  0  1.044125  0
H  H22  1  0.44773782  0.23967846  0.94766066  1  0  0.097699  0  0.949542  0  0  0.10767  0  1.011968  0  0  0.111612  0  1.009063  0  0  0.104732  0.104848  0  1.014063  0
H  H23  1  0.55226183  0.76031993  0.05234185  1  0  0.097689  0  0.949582  0  0  0.10766  0  1.012006  0  0  0.111601  0  1.009102  0  0  0.104724  0.104835  0  1.014103  0
H  H24  1  0.54003915  0.65521789  0.24100018  1  0  0.101298  0  0.98741  0  0  0.111579  0  1.050161  0  0  0.115001  0  1.047793  0  0  0.105835  0.108779  0  1.05237  0
H  H25  1  0.45995850  0.34478156  0.75900092  1  0  0.101317  0  0.98743  0  0  0.111612  0  1.050163  0  0  0.115034  0  1.047796  0  0  0.105826  0.108809  0  1.052368  0
H  H26  1  0.51274530  0.38585447  0.59646825  1  0  0.424333  0  0.884915  0  0  0.392501  0  0.950669  0  0  0.403676  0  0.934511  0  0  0.288042  0.384619  0  0.962075  0
H  H27  1  0.48725355  0.61414498  0.40353231  1  0  0.424329  0  0.884916  0  0  0.392495  0  0.950672  0  0  0.403671  0  0.934512  0  0  0.288045  0.384615  0  0.962076  0
H  H28  1  0.64949032  0.30529202  0.58498904  1  0  0.409023  0  0.908689  0  0  0.376265  0  0.976309  0  0  0.388549  0  0.958798  0  0  0.281538  0.367798  0  0.988285  0
H  H29  1  0.35050893  0.69470848  0.41501094  1  0  0.409062  0  0.908628  0  0  0.376305  0  0.976254  0  0  0.388592  0  0.958741  0  0  0.281559  0.367836  0  0.988235  0
C  C30  1  0.15483000  0.34508303  0.34884811  1  0  0.143959  0  3.67452  0  0  0.112374  0  3.926078  0  0  0.119174  0  3.944228  0  0  0.053597  0.108208  0  3.912908  0
C  C31  1  0.84517045  0.65491748  0.65115229  1  0  0.143923  0  3.674503  0  0  0.11234  0  3.926054  0  0  0.119143  0  3.944204  0  0  0.053588  0.108178  0  3.912879  0
C  C32  1  0.99600173  0.36163045  0.31337430  1  0  -0.111053  0  3.694632  0  0  -0.122818  0  3.943658  0  0  -0.12964  0  3.964234  0  0  -0.075982  -0.118291  0  3.928844  0
C  C33  1  0.00399872  0.63837006  0.68662515  1  0  -0.111054  0  3.694575  0  0  -0.122811  0  3.943584  0  0  -0.129633  0  3.964158  0  0  -0.075967  -0.118288  0  3.928774  0
C  C34  1  0.85312722  0.24121566  0.22622595  1  0  0.002551  0  3.712093  0  0  -0.015712  0  3.962681  0  0  -0.012852  0  3.982317  0  0  -0.062755  -0.017343  0  3.949872  0
C  C35  1  0.14687322  0.75878484  0.77377254  1  0  0.0026  0  3.711991  0  0  -0.015651  0  3.962568  0  0  -0.012788  0  3.982204  0  0  -0.062741  -0.017291  0  3.94977  0
C  C36  1  0.87366321  0.10930106  0.17766102  1  0  -0.130211  0  3.688749  0  0  -0.150149  0  3.937127  0  0  -0.15695  0  3.958881  0  0  -0.073117  -0.146292  0  3.923691  0
C  C37  1  0.12633604  0.89069943  0.82233610  1  0  -0.13012  0  3.688673  0  0  -0.150077  0  3.937069  0  0  -0.156879  0  3.958824  0  0  -0.073107  -0.146227  0  3.923614  0
C  C38  1  0.03693733  0.10084820  0.21721717  1  0  0.168008  0  3.773508  0  0  0.165142  0  4.013664  0  0  0.170833  0  4.036182  0  0  0.120599  0.16115  0  3.999222  0
C  C39  1  0.96306151  0.89915123  0.78278052  1  0  0.1679  0  3.773611  0  0  0.164999  0  4.013753  0  0  0.17069  0  4.036272  0  0  0.120579  0.161045  0  3.999252  0
C  C40  1  0.07102873  0.96509454  0.17183540  1  0  0.179217  0  3.754207  0  0  0.172766  0  3.996249  0  0  0.17924  0  4.017628  0  0  0.124435  0.168515  0  3.982303  0
C  C41  1  0.92897171  0.03490596  0.82816309  1  0  0.179133  0  3.754223  0  0  0.172837  0  3.996073  0  0  0.179313  0  4.01745  0  0  0.124442  0.168573  0  3.982113  0
C  C42  1  0.94302007  0.83507740  0.07945655  1  0  -0.134515  0  3.683516  0  0  -0.155875  0  3.93766  0  0  -0.163211  0  3.959386  0  0  -0.077872  -0.151  0  3.92382  0
C  C43  1  0.05697918  0.16492310  0.92054248  1  0  -0.134432  0  3.683476  0  0  -0.155811  0  3.937585  0  0  -0.163148  0  3.95931  0  0  -0.077863  -0.150941  0  3.923749  0
C  C44  1  0.98687698  0.71268616  0.04338849  1  0  0.012957  0  3.708671  0  0  -0.007148  0  3.958814  0  0  -0.003055  0  3.976947  0  0  -0.059884  -0.009244  0  3.946012  0
C  C45  1  0.01312306  0.28731329  0.95661153  1  0  0.012897  0  3.708703  0  0  -0.00722  0  3.958859  0  0  -0.003127  0  3.976992  0  0  -0.059922  -0.009325  0  3.946066  0
C  C46  1  0.15693935  0.72230418  0.09948632  1  0  -0.105526  0  3.724802  0  0  -0.118644  0  3.976993  0  0  -0.125303  0  3.99872  0  0  -0.077433  -0.114831  0  3.962166  0
C  C47  1  0.84306030  0.27769420  0.90051427  1  0  -0.105523  0  3.724823  0  0  -0.11863  0  3.97701  0  0  -0.125287  0  3.998735  0  0  -0.077408  -0.114813  0  3.962182  0
C  C48  1  0.27797010  0.85521917  0.19016152  1  0  0.154488  0  3.667906  0  0  0.121725  0  3.917747  0  0  0.128878  0  3.935148  0  0  0.059531  0.116662  0  3.907276  0
C  C49  1  0.72202915  0.14478133  0.80983846  1  0  0.154524  0  3.667809  0  0  0.121749  0  3.917698  0  0  0.128907  0  3.935094  0  0  0.059535  0.116681  0  3.907228  0
C  C50  1  0.76281011  0.15792052  0.48672810  1  0  0.647062  0  3.903795  0  0  0.595822  0  4.198623  0  0  0.629838  0  4.191755  0  0  0.202922  0.572622  0  4.203109  0
C  C51  1  0.23719194  0.84207786  0.51327237  1  0  0.647076  0  3.903689  0  0  0.595822  0  4.198536  0  0  0.629837  0  4.191669  0  0  0.202925  0.572616  0  4.203031  0
C  C52  1  0.88613313  0.07690216  0.49429737  1  0  -0.062078  0  3.758895  0  0  -0.040435  0  3.993291  0  0  -0.046622  0  4.015523  0  0  -0.021971  -0.036365  0  3.978579  0
C  C53  1  0.11387052  0.92309728  0.50570294  1  0  -0.062  0  3.758716  0  0  -0.040339  0  3.993094  0  0  -0.046527  0  4.015332  0  0  -0.021898  -0.036267  0  3.97839  0
C  C54  1  0.06054815  0.14721159  0.57735739  1  0  -0.078556  0  3.752981  0  0  -0.1021  0  4.005812  0  0  -0.10326  0  4.027014  0  0  -0.090557  -0.10137  0  3.99211  0
C  C55  1  0.93945470  0.85278573  0.42264312  1  0  -0.078666  0  3.75285  0  0  -0.102261  0  4.00574  0  0  -0.103421  0  4.026936  0  0  -0.090622  -0.101531  0  3.992044  0
C  C56  1  0.82702477  0.92937512  0.41768001  1  0  -0.0785  0  3.738138  0  0  -0.103602  0  3.992646  0  0  -0.104711  0  4.013099  0  0  -0.091163  -0.102603  0  3.978678  0
C  C57  1  0.17297888  0.07062433  0.58232126  1  0  -0.078686  0  3.738146  0  0  -0.10374  0  3.992633  0  0  -0.104864  0  4.013077  0  0  -0.09122  -0.102746  0  3.978669  0
C  C58  1  0.48131096  0.37763829  0.21905316  1  0  0.634863  0  3.915369  0  0  0.584498  0  4.208787  0  0  0.618266  0  4.20123  0  0  0.207001  0.561618  0  4.213048  0
C  C59  1  0.51868909  0.62236116  0.78094781  1  0  0.63488  0  3.915426  0  0  0.584505  0  4.208852  0  0  0.618276  0  4.201295  0  0  0.207001  0.561628  0  4.213108  0
C  C60  1  0.49302021  0.44073240  0.10643462  1  0  -0.063175  0  3.760151  0  0  -0.039744  0  3.990205  0  0  -0.045962  0  4.012293  0  0  -0.019046  -0.035699  0  3.975382  0
C  C61  1  0.50697984  0.55926704  0.89356635  1  0  -0.063225  0  3.760212  0  0  -0.039768  0  3.990238  0  0  -0.045994  0  4.012339  0  0  -0.019041  -0.035721  0  3.975409  0
C  C62  1  0.47047374  0.35375586  0.97003660  1  0  -0.076458  0  3.744326  0  0  -0.100094  0  3.99485  0  0  -0.101053  0  4.015077  0  0  -0.084467  -0.099244  0  3.981192  0
C  C63  1  0.52952671  0.64624466  0.02996571  1  0  -0.076417  0  3.744337  0  0  -0.100065  0  3.994856  0  0  -0.101022  0  4.015083  0  0  -0.084448  -0.099211  0  3.981199  0
C  C64  1  0.52305244  0.58766337  0.13539076  1  0  -0.083569  0  3.738286  0  0  -0.105327  0  3.9829  0  0  -0.106343  0  4.003067  0  0  -0.086145  -0.104483  0  3.969659  0
C  C65  1  0.47694761  0.41233608  0.86461116  1  0  -0.083584  0  3.738373  0  0  -0.105357  0  3.982975  0  0  -0.106372  0  4.003146  0  0  -0.086137  -0.104509  0  3.969725  0
N  N66  1  0.17458526  0.21825208  0.30165345  1  0  -0.362741  0  3.262563  0  0  -0.291561  0  3.527868  0  0  -0.310832  0  3.545872  0  0  -0.317252  -0.278051  0  3.515424  0
N  N67  1  0.82541518  0.78174842  0.69834600  1  0  -0.3627  0  3.262593  0  0  -0.291537  0  3.527939  0  0  -0.310812  0  3.545942  0  0  -0.31727  -0.278047  0  3.515479  0
N  N68  1  0.23567819  0.97303353  0.22492250  1  0  -0.348235  0  3.257313  0  0  -0.27226  0  3.524824  0  0  -0.290713  0  3.539251  0  0  -0.32  -0.260398  0  3.515914  0
N  N69  1  0.76432225  0.02696698  0.77507695  1  0  -0.348201  0  3.257134  0  0  -0.27231  0  3.52466  0  0  -0.290772  0  3.539094  0  0  -0.320014  -0.260443  0  3.515744  0
O  O70  1  0.52735017  0.29008360  0.56584240  1  0  -0.841179  0  1.947522  0  0  -0.776217  0  2.170399  0  0  -0.799398  0  2.132706  0  0  -0.580951  -0.759662  0  2.196835  0
O  O71  1  0.47264867  0.70991584  0.43415624  1  0  -0.841204  0  1.947456  0  0  -0.776236  0  2.17034  0  0  -0.799428  0  2.132649  0  0  -0.580978  -0.759681  0  2.196775  0
O  O72  1  0.60913257  0.09080295  0.38721076  1  0  -0.646988  0  2.040881  0  0  -0.575314  0  2.299206  0  0  -0.604081  0  2.286753  0  0  -0.326255  -0.554996  0  2.307133  0
O  O73  1  0.39086828  0.90919543  0.61279024  1  0  -0.646975  0  2.040852  0  0  -0.57528  0  2.299158  0  0  -0.604052  0  2.286714  0  0  -0.326228  -0.554956  0  2.307081  0
O  O74  1  0.81593986  0.28422232  0.57784328  1  0  -0.632069  0  1.944864  0  0  -0.579504  0  2.162316  0  0  -0.603869  0  2.153904  0  0  -0.325722  -0.562335  0  2.167434  0
O  O75  1  0.18406099  0.71577606  0.42215677  1  0  -0.632086  0  1.94483  0  0  -0.579527  0  2.162302  0  0  -0.60389  0  2.153884  0  0  -0.325744  -0.562356  0  2.167431  0
O  O76  1  0.44479351  0.24099865  0.18178789  1  0  -0.637609  0  2.028461  0  0  -0.572155  0  2.291775  0  0  -0.599127  0  2.277169  0  0  -0.32261  -0.552934  0  2.301067  0
O  O77  1  0.55520814  0.75900187  0.81821388  1  0  -0.637618  0  2.028442  0  0  -0.572162  0  2.291753  0  0  -0.59914  0  2.277152  0  0  -0.32261  -0.552943  0  2.301041  0
O  O78  1  0.50469621  0.45684758  0.34257601  1  0  -0.625681  0  2.019638  0  0  -0.568587  0  2.247701  0  0  -0.59292  0  2.237386  0  0  -0.308018  -0.551395  0  2.254531  0
O  O79  1  0.49530384  0.54315187  0.65742591  1  0  -0.625672  0  2.019673  0  0  -0.56858  0  2.247738  0  0  -0.592917  0  2.237428  0  0  -0.308026  -0.551392  0  2.254568  0
