# generated using pymatgen
data_CuH28C46(N3O2)4
_symmetry_space_group_name_H-M   'P 1'
_cell_length_a   7.42299420
_cell_length_b   10.92293961
_cell_length_c   12.85111059
_cell_angle_alpha   110.55572344
_cell_angle_beta   91.07521693
_cell_angle_gamma   96.94122793
_symmetry_Int_Tables_number   1
_chemical_formula_structural   CuH28C46(N3O2)4
_chemical_formula_sum   'Cu1 H28 C46 N12 O8'
_cell_volume   966.38581766
_cell_formula_units_Z   1
loop_
 _symmetry_equiv_pos_site_id
 _symmetry_equiv_pos_as_xyz
  1  'x, y, z'
loop_
 _atom_site_type_symbol
 _atom_site_label
 _atom_site_symmetry_multiplicity
 _atom_site_fract_x
 _atom_site_fract_y
 _atom_site_fract_z
 _atom_site_occupancy
 _atom_site_pbe_bader_spin_density
 _atom_site_pbe_cm5_charge
 _atom_site_pbe_ddec_charge
 _atom_site_pbe_ddec_spin_density
 _atom_site_pbe_ddec_sum_bond_order
 _atom_site_pbe_magmom
Cu  Cu0  1  0.00000052  0.50000220  0.49999880  1  0  0.700382  0.694511  0  2.137758  0
H  H1  1  0.73773894  0.82336187  0.45684458  1  0  0.108176  0.117357  0  1.006538  0
H  H2  1  0.26226261  0.17664426  0.54315983  1  0  0.108207  0.117405  0  1.006573  0
H  H3  1  0.37475533  0.65881111  0.53860324  1  0  0.123835  0.106517  0  0.996902  0
H  H4  1  0.62525021  0.34118706  0.46139349  1  0  0.123833  0.106535  0  0.996894  0
H  H5  1  0.66604213  0.67281298  0.64708079  1  0  0.109691  0.131438  0  1.04884  0
H  H6  1  0.33396030  0.32718325  0.35291765  1  0  0.109702  0.131432  0  1.048803  0
H  H7  1  0.67135952  0.53837630  0.77221751  1  0  0.116949  0.119535  0  0.990841  0
H  H8  1  0.32864058  0.46162191  0.22778224  1  0  0.116955  0.119562  0  0.990824  0
H  H9  1  0.10814435  0.39349036  0.66716663  1  0  0.122649  0.097725  0  1.050065  0
H  H10  1  0.89185498  0.60651081  0.33283318  1  0  0.122637  0.097733  0  1.050072  0
H  H11  1  0.12442422  0.01677991  0.92541308  1  0  0.107382  0.097651  0  1.045463  0
H  H12  1  0.87557450  0.98321832  0.07458820  1  0  0.107382  0.097629  0  1.045496  0
H  H13  1  0.82552630  0.86741647  0.89019886  1  0  0.108872  0.107995  0  1.018132  0
H  H14  1  0.17447233  0.13258072  0.10979745  1  0  0.108865  0.107965  0  1.018173  0
H  H15  1  0.57483063  0.90574215  0.77365923  1  0  0.116901  0.088075  0  1.034174  0
H  H16  1  0.42516605  0.09425899  0.22633819  1  0  0.116901  0.088041  0  1.034246  0
H  H17  1  0.89617340  0.21903624  0.73215775  1  0  0.125442  0.101836  0  0.98942  0
H  H18  1  0.10382894  0.78096693  0.26784582  1  0  0.125454  0.101818  0  0.989429  0
H  H19  1  0.49865412  0.15914535  0.06287999  1  0  0.104885  0.099735  0  1.030299  0
H  H20  1  0.50134683  0.84084987  0.93711579  1  0  0.104907  0.09974  0  1.030303  0
H  H21  1  0.75675199  0.18056441  0.20334191  1  0  0.10826  0.128168  0  1.022226  0
H  H22  1  0.24325029  0.81943081  0.79665468  1  0  0.108255  0.128188  0  1.022191  0
H  H23  1  0.03673078  0.33209980  0.21172655  1  0  0.110067  0.08088  0  1.017036  0
H  H24  1  0.96326915  0.66789741  0.78827213  1  0  0.110107  0.080962  0  1.016919  0
H  H25  1  0.83137477  0.44341927  0.96056443  1  0  0.10756  0.073759  0  1.059603  0
H  H26  1  0.16862635  0.55657695  0.03943242  1  0  0.107529  0.073678  0  1.059686  0
H  H27  1  0.57277226  0.07337677  0.67933319  1  0  0.286302  0.291107  0  1.054899  0
H  H28  1  0.42722907  0.92662840  0.32067249  1  0  0.286282  0.291087  0  1.054988  0
C  C29  1  0.01318544  0.76250296  0.55373889  1  0  0.204245  0.574323  0  4.227118  0
C  C30  1  0.98681607  0.23749522  0.44625776  1  0  0.204207  0.574277  0  4.227186  0
C  C31  1  0.01320331  0.88786966  0.52920043  1  0  -0.00082  -0.02024  0  3.915531  0
C  C32  1  0.98679654  0.11213449  0.47080259  1  0  -0.00086  -0.020277  0  3.915728  0
C  C33  1  0.85406987  0.90044496  0.47636560  1  0  -0.078226  -0.11601  0  3.944235  0
C  C34  1  0.14593072  0.09956315  0.52363858  1  0  -0.078217  -0.116069  0  3.944398  0
C  C35  1  0.16080532  0.98945790  0.55340310  1  0  -0.010741  -0.057832  0  3.961405  0
C  C36  1  0.83919462  0.01054620  0.44659524  1  0  -0.01072  -0.057889  0  3.961489  0
C  C37  1  0.32817144  0.98417369  0.61676051  1  0  0.222938  0.576405  0  4.138382  0
C  C38  1  0.67182857  0.01583146  0.38324358  1  0  0.222907  0.576384  0  4.138541  0
C  C39  1  0.38451949  0.60156555  0.59228574  1  0  0.059261  0.113586  0  3.886302  0
C  C40  1  0.61548775  0.39843461  0.40771315  1  0  0.059211  0.113492  0  3.886438  0
C  C41  1  0.54467375  0.61010740  0.65454400  1  0  -0.081681  -0.134572  0  3.9388  0
C  C42  1  0.45533157  0.38988981  0.34545478  1  0  -0.081637  -0.134435  0  3.938642  0
C  C43  1  0.54849886  0.53587059  0.72311119  1  0  -0.050003  -0.033166  0  3.879768  0
C  C44  1  0.45150104  0.46412664  0.27688905  1  0  -0.050026  -0.033295  0  3.879813  0
C  C45  1  0.38906001  0.45651784  0.72888541  1  0  0.001448  -0.037054  0  3.953055  0
C  C46  1  0.61093601  0.54348039  0.27111582  1  0  0.001417  -0.037001  0  3.952926  0
C  C47  1  0.23387972  0.45409052  0.66432965  1  0  0.05572  0.06656  0  3.897211  0
C  C48  1  0.76612097  0.54591063  0.33566941  1  0  0.05571  0.066493  0  3.897045  0
C  C49  1  0.37512867  0.37413903  0.79897540  1  0  0.263616  0.388466  0  4.031994  0
C  C50  1  0.62487179  0.62586117  0.20102571  1  0  0.263671  0.388535  0  4.031884  0
C  C51  1  0.49357077  0.29776309  0.92480261  1  0  0.261134  0.394181  0  3.999267  0
C  C52  1  0.50642684  0.70223610  0.07519659  1  0  0.261122  0.394169  0  3.999286  0
C  C53  1  0.20435724  0.21979433  0.84934852  1  0  0.264171  0.392908  0  4.025423  0
C  C54  1  0.79563854  0.78020983  0.15065521  1  0  0.264167  0.39282  0  4.025496  0
C  C55  1  0.03193121  0.13063634  0.83359010  1  0  0.00191  -0.039438  0  3.951767  0
C  C56  1  0.96806707  0.86936684  0.16641417  1  0  0.001873  -0.039477  0  3.951755  0
C  C57  1  0.01037634  0.03032423  0.87809950  1  0  -0.053942  -0.042162  0  3.907137  0
C  C58  1  0.98962125  0.96967497  0.12190049  1  0  -0.053919  -0.042109  0  3.90705  0
C  C59  1  0.84555823  0.94803076  0.85850603  1  0  -0.077707  -0.114358  0  3.973428  0
C  C60  1  0.15443956  0.05196942  0.14149347  1  0  -0.077674  -0.114329  0  3.973378  0
C  C61  1  0.70668052  0.96762807  0.79444571  1  0  0.05681  0.100002  0  3.911022  0
C  C62  1  0.29331866  0.03237208  0.20555147  1  0  0.056787  0.100059  0  3.911135  0
C  C63  1  0.88507421  0.14317418  0.76951833  1  0  0.068508  0.079727  0  3.887543  0
C  C64  1  0.11492412  0.85682897  0.23048360  1  0  0.06849  0.079765  0  3.887535  0
C  C65  1  0.64453040  0.30101143  0.00265790  1  0  -0.011078  -0.058545  0  3.96682  0
C  C66  1  0.35546874  0.69898875  0.99734162  1  0  -0.011065  -0.058529  0  3.966798  0
C  C67  1  0.62546886  0.22407111  0.07023440  1  0  -0.068377  -0.063715  0  3.948019  0
C  C68  1  0.37452975  0.77592609  0.92976270  1  0  -0.068385  -0.063695  0  3.948043  0
C  C69  1  0.76759190  0.23450998  0.14612705  1  0  -0.089835  -0.135859  0  3.966669  0
C  C70  1  0.23240768  0.76548525  0.85386949  1  0  -0.08986  -0.135954  0  3.966726  0
C  C71  1  0.92555616  0.32058448  0.15070838  1  0  0.043126  0.091936  0  3.973474  0
C  C72  1  0.07444244  0.67941273  0.84928949  1  0  0.043124  0.091936  0  3.973367  0
C  C73  1  0.81046058  0.38302872  0.01264598  1  0  0.048066  0.072083  0  3.917894  0
C  C74  1  0.18954051  0.61696751  0.98735243  1  0  0.048064  0.072196  0  3.917936  0
N  N75  1  0.23174130  0.52291422  0.59600937  1  0  -0.338506  -0.225419  0  3.597558  0
N  N76  1  0.76826342  0.47708694  0.40399054  1  0  -0.338468  -0.225375  0  3.597626  0
N  N77  1  0.21465348  0.29908472  0.78993773  1  0  -0.302135  -0.407139  0  3.271772  0
N  N78  1  0.78534464  0.70091746  0.21006469  1  0  -0.302153  -0.407122  0  3.271839  0
N  N79  1  0.33939424  0.21545483  0.91862658  1  0  -0.306126  -0.408748  0  3.183527  0
N  N80  1  0.66060003  0.78454834  0.08137605  1  0  -0.30614  -0.408753  0  3.183553  0
N  N81  1  0.51914069  0.37750341  0.86503168  1  0  -0.302253  -0.40136  0  3.187887  0
N  N82  1  0.48085840  0.62249680  0.13497019  1  0  -0.30222  -0.401341  0  3.187784  0
N  N83  1  0.72730983  0.06342222  0.75096811  1  0  -0.303952  -0.208399  0  3.473846  0
N  N84  1  0.27268987  0.93658092  0.24903229  1  0  -0.303944  -0.208437  0  3.473902  0
N  N85  1  0.94913167  0.39267156  0.08478377  1  0  -0.324986  -0.271531  0  3.319432  0
N  N86  1  0.05086806  0.60732468  0.91521540  1  0  -0.32499  -0.271599  0  3.31939  0
O  O87  1  0.08377147  0.67025957  0.47860523  1  0  -0.32163  -0.528025  0  2.301456  0
O  O88  1  0.91623349  0.32974255  0.52139185  1  0  -0.321589  -0.528028  0  2.301487  0
O  O89  1  0.93089823  0.74682008  0.63287441  1  0  -0.312405  -0.554119  0  2.205933  0
O  O90  1  0.06910289  0.25317613  0.36712244  1  0  -0.31244  -0.554118  0  2.205975  0
O  O91  1  0.46033131  0.08208979  0.62938319  1  0  -0.333596  -0.475274  0  2.337826  0
O  O92  1  0.53966477  0.91791640  0.37062502  1  0  -0.333541  -0.475216  0  2.337891  0
O  O93  1  0.33629220  0.89652992  0.65655476  1  0  -0.290104  -0.506172  0  2.166848  0
O  O94  1  0.66370337  0.10347328  0.34345024  1  0  -0.290118  -0.506182  0  2.166928  0
