# generated using pymatgen
data_ZnH8C13SN3ClO3
_symmetry_space_group_name_H-M   'P 1'
_cell_length_a   7.13478403
_cell_length_b   8.42391252
_cell_length_c   11.80569405
_cell_angle_alpha   89.99974451
_cell_angle_beta   89.99940834
_cell_angle_gamma   108.91975540
_symmetry_Int_Tables_number   1
_chemical_formula_structural   ZnH8C13SN3ClO3
_chemical_formula_sum   'Zn2 H16 C26 S2 N6 Cl2 O6'
_cell_volume   671.22052500
_cell_formula_units_Z   2
loop_
 _symmetry_equiv_pos_site_id
 _symmetry_equiv_pos_as_xyz
  1  'x, y, z'
loop_
 _atom_site_type_symbol
 _atom_site_label
 _atom_site_symmetry_multiplicity
 _atom_site_fract_x
 _atom_site_fract_y
 _atom_site_fract_z
 _atom_site_occupancy
 _atom_site_hle17_bader_spin_density
 _atom_site_hle17_ddec_charge
 _atom_site_hle17_ddec_spin_density
 _atom_site_hle17_ddec_sum_bond_order
 _atom_site_hle17_magmom
 _atom_site_hse06_10hf_bader_spin_density
 _atom_site_hse06_10hf_ddec_charge
 _atom_site_hse06_10hf_ddec_spin_density
 _atom_site_hse06_10hf_ddec_sum_bond_order
 _atom_site_hse06_10hf_magmom
 _atom_site_hse06_bader_spin_density
 _atom_site_hse06_ddec_charge
 _atom_site_hse06_ddec_spin_density
 _atom_site_hse06_ddec_sum_bond_order
 _atom_site_hse06_magmom
 _atom_site_pbe_bader_spin_density
 _atom_site_pbe_cm5_charge
 _atom_site_pbe_ddec_charge
 _atom_site_pbe_ddec_spin_density
 _atom_site_pbe_ddec_sum_bond_order
 _atom_site_pbe_magmom
Zn  Zn0  1  0.23324095  0.50118095  0.36111567  1  0  0.987302  0  1.922856  0  0  0.813142  0  2.374111  0  0  0.857215  0  2.325919  0  0  0.637717  0.782556  0  2.406885  0
Zn  Zn1  1  0.73322796  0.50117342  0.63888584  1  0  0.987322  0  1.922812  0  0  0.813189  0  2.37403  0  0  0.857264  0  2.325836  0  0  0.637762  0.782607  0  2.406807  0
H  H2  1  0.90600343  0.40784924  0.23560458  1  0  0.419587  0  0.874354  0  0  0.388154  0  0.944378  0  0  0.398332  0  0.929559  0  0  0.292622  0.38099  0  0.95479  0
H  H3  1  0.40598669  0.40783583  0.76440197  1  0  0.419448  0  0.874515  0  0  0.387971  0  0.944618  0  0  0.398156  0  0.929791  0  0  0.292533  0.38081  0  0.955024  0
H  H4  1  0.87097021  0.52276006  0.33370887  1  0  0.401677  0  0.89547  0  0  0.371699  0  0.968  0  0  0.381726  0  0.953498  0  0  0.264731  0.364624  0  0.97821  0
H  H5  1  0.37095590  0.52274905  0.66630094  1  0  0.401594  0  0.895487  0  0  0.37159  0  0.968143  0  0  0.381617  0  0.953642  0  0  0.264705  0.364517  0  0.978349  0
H  H6  1  0.24807655  0.81304705  0.50869560  1  0  0.083223  0  0.971409  0  0  0.085371  0  1.045599  0  0  0.088249  0  1.042852  0  0  0.102989  0.083207  0  1.047684  0
H  H7  1  0.74808018  0.81305124  0.49131752  1  0  0.083228  0  0.971368  0  0  0.085425  0  1.045522  0  0  0.088307  0  1.042771  0  0  0.10303  0.083263  0  1.047598  0
H  H8  1  0.41330482  0.12837638  0.49667481  1  0  0.11801  0  0.950806  0  0  0.125528  0  1.011129  0  0  0.128388  0  1.011292  0  0  0.107413  0.123456  0  1.011245  0
H  H9  1  0.91331277  0.12837412  0.50334445  1  0  0.117967  0  0.951034  0  0  0.125505  0  1.011288  0  0  0.128366  0  1.011448  0  0  0.10737  0.123404  0  1.011462  0
H  H10  1  0.63761615  0.24513696  0.33569560  1  0  0.099364  0  0.978601  0  0  0.107022  0  1.045926  0  0  0.110437  0  1.04252  0  0  0.101015  0.104381  0  1.048562  0
H  H11  1  0.13761574  0.24511835  0.66431501  1  0  0.099364  0  0.978729  0  0  0.107014  0  1.04603  0  0  0.110417  0  1.042643  0  0  0.10102  0.104402  0  1.048638  0
H  H12  1  0.74062640  0.67969101  0.93987588  1  0  0.102671  0  0.968484  0  0  0.10904  0  1.034781  0  0  0.111757  0  1.033283  0  0  0.108047  0.107049  0  1.035904  0
H  H13  1  0.24063457  0.67964553  0.06010468  1  0  0.102566  0  0.968671  0  0  0.108974  0  1.0349  0  0  0.111691  0  1.033403  0  0  0.108009  0.10698  0  1.03602  0
H  H14  1  0.55944415  0.37111458  0.98167293  1  0  0.124995  0  0.950531  0  0  0.129786  0  1.013737  0  0  0.134164  0  1.011155  0  0  0.11285  0.126626  0  1.015772  0
H  H15  1  0.05945894  0.37108087  0.01829631  1  0  0.124959  0  0.950829  0  0  0.129658  0  1.014104  0  0  0.13403  0  1.011533  0  0  0.112857  0.126497  0  1.016142  0
H  H16  1  0.35769120  0.29854477  0.15714704  1  0  0.093897  0  0.931395  0  0  0.101569  0  0.992944  0  0  0.104459  0  0.990578  0  0  0.12224  0.099445  0  0.99468  0
H  H17  1  0.85768942  0.29852725  0.84283732  1  0  0.093941  0  0.931279  0  0  0.101619  0  0.992833  0  0  0.104505  0  0.990472  0  0  0.122259  0.099494  0  0.99457  0
C  C18  1  0.34741705  0.87211495  0.43957767  1  0  0.148335  0  3.679294  0  0  0.11139  0  3.938905  0  0  0.121752  0  3.952623  0  0  0.053274  0.104641  0  3.929703  0
C  C19  1  0.84742085  0.87212587  0.56042780  1  0  0.148317  0  3.679084  0  0  0.111289  0  3.938748  0  0  0.121645  0  3.952465  0  0  0.053154  0.104553  0  3.929523  0
C  C20  1  0.44033795  0.04515197  0.43303606  1  0  -0.095172  0  3.692676  0  0  -0.106361  0  3.94514  0  0  -0.113044  0  3.963863  0  0  -0.075135  -0.102428  0  3.932924  0
C  C21  1  0.94034610  0.04515273  0.56697395  1  0  -0.095098  0  3.692913  0  0  -0.106305  0  3.945459  0  0  -0.11299  0  3.964182  0  0  -0.075049  -0.102373  0  3.933223  0
C  C22  1  0.56585367  0.11021480  0.34250294  1  0  0.013022  0  3.640424  0  0  -0.017011  0  3.889307  0  0  -0.010806  0  3.904038  0  0  -0.055743  -0.0208  0  3.879591  0
C  C23  1  0.06585500  0.11020758  0.65751028  1  0  0.012948  0  3.640802  0  0  -0.017085  0  3.889657  0  0  -0.010872  0  3.904391  0  0  -0.055763  -0.020891  0  3.879929  0
C  C24  1  0.59637264  0.00164572  0.26040280  1  0  -0.09281  0  3.752982  0  0  -0.080301  0  3.993501  0  0  -0.091155  0  4.016948  0  0  -0.00893  -0.07355  0  3.978073  0
C  C25  1  0.09638213  0.00163749  0.73960379  1  0  -0.092777  0  3.753306  0  0  -0.080258  0  3.993757  0  0  -0.091112  0  4.017203  0  0  -0.00879  -0.073511  0  3.978348  0
C  C26  1  0.49644481  0.82870530  0.27295847  1  0  0.172775  0  3.758795  0  0  0.153562  0  4.010151  0  0  0.162337  0  4.02834  0  0  0.128623  0.14773  0  3.998021  0
C  C27  1  0.99646036  0.82869534  0.72703256  1  0  0.172657  0  3.759015  0  0  0.153528  0  4.010171  0  0  0.162306  0  4.028361  0  0  0.128572  0.147686  0  3.998051  0
C  C28  1  0.52200441  0.70799775  0.19023663  1  0  0.154988  0  3.764332  0  0  0.142546  0  4.009981  0  0  0.15054  0  4.026997  0  0  0.124279  0.137235  0  3.998602  0
C  C29  1  0.02198208  0.70798256  0.80976398  1  0  0.15496  0  3.764534  0  0  0.142552  0  4.010116  0  0  0.150567  0  4.027161  0  0  0.124279  0.137226  0  3.998721  0
C  C30  1  0.64315332  0.76141833  0.09428328  1  0  -0.086375  0  3.734206  0  0  -0.071457  0  3.966583  0  0  -0.080589  0  3.987681  0  0  -0.007701  -0.065784  0  3.952739  0
C  C31  1  0.14316738  0.76137795  0.90570786  1  0  -0.086188  0  3.73404  0  0  -0.071238  0  3.966289  0  0  -0.08046  0  3.987511  0  0  -0.007556  -0.065496  0  3.952349  0
C  C32  1  0.65469416  0.63925569  0.01678947  1  0  0.006047  0  3.649133  0  0  -0.022467  0  3.897783  0  0  -0.016883  0  3.914384  0  0  -0.054308  -0.025926  0  3.886587  0
C  C33  1  0.15469585  0.63920817  0.98319858  1  0  0.006163  0  3.649422  0  0  -0.022379  0  3.897931  0  0  -0.016764  0  3.914544  0  0  -0.054162  -0.025861  0  3.886722  0
C  C34  1  0.55536847  0.47087827  0.03911745  1  0  -0.093147  0  3.667783  0  0  -0.107655  0  3.925832  0  0  -0.114804  0  3.944946  0  0  -0.070493  -0.103166  0  3.913138  0
C  C35  1  0.05536514  0.47083859  0.96086336  1  0  -0.093263  0  3.668368  0  0  -0.107661  0  3.92638  0  0  -0.114805  0  3.945485  0  0  -0.070635  -0.103171  0  3.913687  0
C  C36  1  0.44020360  0.42882910  0.13705878  1  0  0.163923  0  3.636198  0  0  0.128887  0  3.893346  0  0  0.137646  0  3.907918  0  0  0.065852  0.12324  0  3.883429  0
C  C37  1  0.94020920  0.42880250  0.86292629  1  0  0.164118  0  3.636013  0  0  0.129069  0  3.893219  0  0  0.137831  0  3.907792  0  0  0.065962  0.123421  0  3.8833  0
C  C38  1  0.72895110  0.06783254  0.16281204  1  0  0.329403  0  3.716014  0  0  0.305368  0  3.981842  0  0  0.327488  0  3.980572  0  0  0.155082  0.290443  0  3.982439  0
C  C39  1  0.22895237  0.06781063  0.83719258  1  0  0.329352  0  3.715914  0  0  0.305283  0  3.981748  0  0  0.327405  0  3.980477  0  0  0.155086  0.290358  0  3.982367  0
C  C40  1  0.75124764  0.94264316  0.07318602  1  0  0.315955  0  3.742836  0  0  0.294829  0  4.013862  0  0  0.316044  0  4.01243  0  0  0.148498  0.280381  0  4.014686  0
C  C41  1  0.25123665  0.94260768  0.92681735  1  0  0.31591  0  3.742502  0  0  0.294778  0  4.013526  0  0  0.316014  0  4.012113  0  0  0.148288  0.280305  0  4.014345  0
C  C42  1  0.09270229  0.11109643  0.30037151  1  0  0.28596  0  4.033148  0  0  0.264216  0  4.33583  0  0  0.288084  0  4.357423  0  0  0.155807  0.248291  0  4.320045  0
C  C43  1  0.59270173  0.11109441  0.69963052  1  0  0.285979  0  4.032895  0  0  0.264233  0  4.335588  0  0  0.288098  0  4.357182  0  0  0.155811  0.248312  0  4.319794  0
S  S44  1  0.01065534  0.91972903  0.25580811  1  0  -0.215008  0  2.095527  0  0  -0.198489  0  2.395688  0  0  -0.230573  0  2.405811  0  0  -0.068623  -0.175806  0  2.388157  0
S  S45  1  0.51067160  0.91972515  0.74420207  1  0  -0.214919  0  2.095402  0  0  -0.1984  0  2.395584  0  0  -0.230483  0  2.405706  0  0  -0.068525  -0.175712  0  2.388053  0
N  N46  1  0.37608056  0.76670973  0.36132143  1  0  -0.34734  0  3.297854  0  0  -0.268874  0  3.558181  0  0  -0.28814  0  3.573398  0  0  -0.316569  -0.25597  0  3.547861  0
N  N47  1  0.87607945  0.76671472  0.63867994  1  0  -0.347308  0  3.29776  0  0  -0.268795  0  3.557955  0  0  -0.288059  0  3.573172  0  0  -0.316561  -0.255892  0  3.54763  0
N  N48  1  0.42146307  0.54494738  0.20969310  1  0  -0.336769  0  3.252148  0  0  -0.264289  0  3.512662  0  0  -0.281559  0  3.527327  0  0  -0.312526  -0.252728  0  3.502652  0
N  N49  1  0.92146611  0.54493296  0.79030020  1  0  -0.336959  0  3.252268  0  0  -0.264648  0  3.512999  0  0  -0.281911  0  3.527643  0  0  -0.31272  -0.253084  0  3.502988  0
N  N50  1  0.15046095  0.25119179  0.33376514  1  0  -0.537639  0  2.988946  0  0  -0.473664  0  3.285088  0  0  -0.503062  0  3.29403  0  0  -0.382555  -0.453304  0  3.278216  0
N  N51  1  0.65044091  0.25118523  0.66623265  1  0  -0.537724  0  2.988813  0  0  -0.473741  0  3.284965  0  0  -0.503134  0  3.293901  0  0  -0.382628  -0.453384  0  3.278092  0
Cl  Cl52  1  0.12569731  0.49981255  0.55125056  1  0  -0.580375  0  1.015349  0  0  -0.524897  0  1.302295  0  0  -0.54099  0  1.278875  0  0  -0.268659  -0.513135  0  1.318317  0
Cl  Cl53  1  0.62569157  0.49981980  0.44875423  1  0  -0.580409  0  1.015352  0  0  -0.524939  0  1.302289  0  0  -0.541034  0  1.278867  0  0  -0.268669  -0.513176  0  1.318303  0
O  O54  1  0.81358624  0.22000110  0.14891736  1  0  -0.44065  0  2.030721  0  0  -0.389605  0  2.242909  0  0  -0.406434  0  2.239128  0  0  -0.237446  -0.37824  0  2.24541  0
O  O55  1  0.31358121  0.21998158  0.85108873  1  0  -0.440564  0  2.030482  0  0  -0.38954  0  2.242757  0  0  -0.406373  0  2.238986  0  0  -0.237441  -0.378172  0  2.245264  0
O  O56  1  0.84612505  0.99280568  0.98586639  1  0  -0.405466  0  1.954181  0  0  -0.376781  0  2.170919  0  0  -0.390577  0  2.168121  0  0  -0.248517  -0.367346  0  2.172631  0
O  O57  1  0.34611104  0.99277342  0.01413701  1  0  -0.405479  0  1.953937  0  0  -0.3768  0  2.170658  0  0  -0.390616  0  2.167896  0  0  -0.248455  -0.367364  0  2.172378  0
O  O58  1  0.97006877  0.51386619  0.27717735  1  0  -0.790342  0  1.920182  0  0  -0.730203  0  2.119861  0  0  -0.749931  0  2.088164  0  0  -0.573823  -0.716051  0  2.141446  0
O  O59  1  0.47005663  0.51385576  0.72283266  1  0  -0.790153  0  1.92019  0  0  -0.729942  0  2.120085  0  0  -0.74968  0  2.088377  0  0  -0.573755  -0.715813  0  2.141704  0
