# generated using pymatgen
data_CuH5C9(NO)4
_symmetry_space_group_name_H-M   'P 1'
_cell_length_a   10.12223299
_cell_length_b   10.25193888
_cell_length_c   12.77393176
_cell_angle_alpha   113.66235120
_cell_angle_beta   114.38602057
_cell_angle_gamma   89.99661067
_symmetry_Int_Tables_number   1
_chemical_formula_structural   CuH5C9(NO)4
_chemical_formula_sum   'Cu4 H20 C36 N16 O16'
_cell_volume   1083.79625787
_cell_formula_units_Z   4
loop_
 _symmetry_equiv_pos_site_id
 _symmetry_equiv_pos_as_xyz
  1  'x, y, z'
loop_
 _atom_site_type_symbol
 _atom_site_label
 _atom_site_symmetry_multiplicity
 _atom_site_fract_x
 _atom_site_fract_y
 _atom_site_fract_z
 _atom_site_occupancy
 _atom_site_hle17_ddec_charge
 _atom_site_hle17_ddec_spin_density
 _atom_site_hle17_ddec_sum_bond_order
 _atom_site_hle17_magmom
 _atom_site_hse06_10hf_ddec_charge
 _atom_site_hse06_10hf_ddec_spin_density
 _atom_site_hse06_10hf_ddec_sum_bond_order
 _atom_site_hse06_10hf_magmom
 _atom_site_hse06_ddec_charge
 _atom_site_hse06_ddec_spin_density
 _atom_site_hse06_ddec_sum_bond_order
 _atom_site_hse06_magmom
 _atom_site_pbe_cm5_charge
 _atom_site_pbe_ddec_charge
 _atom_site_pbe_ddec_spin_density
 _atom_site_pbe_ddec_sum_bond_order
 _atom_site_pbe_magmom
Cu  Cu0  1  0.97061120  0.55293776  0.31015989  1  0.831653  0.677342  1.846368  0.484  0.797526  0.787824  2.238765  0.615  0.88337  0.873345  2.176304  0.705  0.771132  0.744795  0.711934  2.282786  0.543
Cu  Cu1  1  0.52950650  0.24277070  0.68998386  1  0.83153  -0.67753  1.848182  -0.484  0.798373  -0.788026  2.239266  -0.615  0.883613  -0.873519  2.177601  -0.705  0.771129  0.7461  -0.712113  2.282754  -0.543
Cu  Cu2  1  0.02940438  0.44705059  0.68983385  1  0.831645  0.677354  1.846558  0.484  0.797474  0.787831  2.239039  0.615  0.883359  0.873345  2.176543  0.705  0.771201  0.744889  0.711937  2.282925  0.543
Cu  Cu3  1  0.47048523  0.75722697  0.31002167  1  0.831598  -0.677522  1.848373  -0.484  0.798324  -0.78802  2.239514  -0.615  0.883584  -0.873517  2.177872  -0.705  0.771221  0.746116  -0.712112  2.28294  -0.543
H  H4  1  0.97894345  0.04148535  0.65495590  1  0.338869  -0.0002  0.83194  0.0  0.326898  -0.000158  0.878782  0.0  0.334868  -0.000106  0.872878  0.0  0.339354  0.321066  -0.000144  0.883338  0.0
H  H5  1  0.52080844  0.38623911  0.34502641  1  0.337728  0.000201  0.832399  0.0  0.325848  0.000158  0.879015  0.0  0.333832  0.000107  0.873125  0.0  0.339122  0.319993  0.000115  0.883555  0.0
H  H6  1  0.02106955  0.95852662  0.34503665  1  0.338836  -0.000201  0.832141  0.0  0.326907  -0.000157  0.878923  0.0  0.334874  -0.000106  0.873018  0.0  0.339401  0.321072  -0.000144  0.883478  0.0
H  H7  1  0.47918738  0.61378739  0.65498416  1  0.337757  0.000201  0.832381  0.0  0.325936  0.000158  0.878922  0.0  0.333917  0.000107  0.873032  0.0  0.339154  0.320081  0.000115  0.883469  0.0
H  H8  1  0.07411340  0.29786005  0.35171201  1  0.093082  0.001045  0.938161  0.002  0.099994  0.000842  1.002731  0.001  0.100584  0.000601  1.002119  0.001  0.120938  0.099347  0.00101  1.003299  0.002
H  H9  1  0.42512081  0.94630792  0.64822991  1  0.093413  -0.001049  0.93764  -0.002  0.100064  -0.000844  1.002786  -0.001  0.100637  -0.000602  1.002174  -0.001  0.120848  0.099421  -0.001007  1.003373  -0.002
H  H10  1  0.92596217  0.70215260  0.64829441  1  0.093038  0.001046  0.938469  0.002  0.099984  0.000841  1.003028  0.001  0.100568  0.0006  1.002411  0.001  0.120899  0.099337  0.00101  1.003601  0.002
H  H11  1  0.57485598  0.05370021  0.35177855  1  0.093366  -0.001047  0.937602  -0.002  0.099984  -0.000844  1.002808  -0.001  0.100557  -0.000601  1.002193  -0.001  0.120846  0.099342  -0.001007  1.003396  -0.002
H  H12  1  0.09128705  0.05062818  0.21942234  1  0.106991  0.000627  0.967327  0.001  0.117295  0.000556  1.027449  0.001  0.119615  0.000405  1.027358  0.0  0.109777  0.11551  0.000653  1.027802  0.001
H  H13  1  0.40767477  0.83141290  0.78043496  1  0.108028  -0.000627  0.967659  -0.001  0.117826  -0.000557  1.02827  -0.001  0.120223  -0.000405  1.028083  0.0  0.109972  0.116021  -0.000684  1.028632  -0.001
H  H14  1  0.90877734  0.94938623  0.78057376  1  0.106951  0.000631  0.967397  0.001  0.117269  0.000557  1.027495  0.001  0.119591  0.000405  1.027395  0.0  0.109817  0.115488  0.000653  1.027849  0.001
H  H15  1  0.59229513  0.16858350  0.21956475  1  0.107923  -0.000629  0.967722  -0.001  0.117814  -0.000557  1.028213  -0.001  0.12021  -0.000405  1.028028  0.0  0.109971  0.116005  -0.000684  1.028581  -0.001
H  H16  1  0.90326142  0.15064820  0.89378556  1  0.120005  0.000516  0.962179  0.0  0.128807  0.000423  1.022815  0.0  0.132712  0.000312  1.020412  0.0  0.110925  0.125788  0.000493  1.024918  0.001
H  H17  1  0.59869887  0.25655120  0.10666469  1  0.119958  -0.000517  0.962482  -0.001  0.128287  -0.000425  1.023649  0.0  0.132237  -0.000314  1.02121  0.0  0.110908  0.125241  -0.000527  1.02578  -0.001
H  H18  1  0.09663547  0.84931300  0.10619368  1  0.120122  0.00052  0.962112  0.001  0.128752  0.000423  1.022944  0.0  0.132715  0.000312  1.020472  0.0  0.110946  0.125731  0.000493  1.025042  0.001
H  H19  1  0.40133067  0.74343728  0.89335581  1  0.119969  -0.000518  0.962383  -0.001  0.128268  -0.000425  1.023592  0.0  0.132217  -0.000314  1.021157  0.0  0.110868  0.125224  -0.000527  1.025722  -0.001
H  H20  1  0.89708972  0.39043725  0.03899382  1  0.105684  0.001106  0.930786  0.002  0.112826  0.000848  0.992271  0.002  0.115477  0.00062  0.989248  0.001  0.126118  0.110315  0.001021  0.995149  0.002
H  H21  1  0.60459151  0.35118320  0.96138386  1  0.105788  -0.00111  0.930423  -0.002  0.112432  -0.000849  0.992489  -0.002  0.115045  -0.000621  0.989483  -0.001  0.126019  0.110011  -0.001028  0.995256  -0.002
H  H22  1  0.10287565  0.60954310  0.96099617  1  0.105733  0.001104  0.930749  0.002  0.112852  0.000847  0.992225  0.002  0.115563  0.00062  0.989125  0.001  0.126122  0.11034  0.001021  0.995106  0.002
H  H23  1  0.39541699  0.64882335  0.03863997  1  0.105729  -0.001107  0.93068  -0.002  0.112381  -0.000848  0.99271  -0.002  0.114993  -0.000621  0.989706  -0.001  0.12599  0.109969  -0.001027  0.995476  -0.002
C  C24  1  0.76530663  0.71073554  0.36731869  1  0.361654  0.000568  3.771915  0.002  0.336407  7.9e-05  4.032153  0.001  0.362846  0.000459  4.038623  0.001  0.252003  0.318251  -0.000216  4.028301  0.001
C  C25  1  0.73475176  0.34324911  0.63270530  1  0.361343  -0.000561  3.77128  -0.002  0.336146  -6.6e-05  4.032041  -0.001  0.362619  -0.000453  4.038492  -0.001  0.251253  0.317873  0.000201  4.028363  -0.001
C  C26  1  0.23469304  0.28926588  0.63267398  1  0.361559  0.000565  3.771948  0.002  0.336388  7.9e-05  4.032155  0.001  0.362822  0.000456  4.038631  0.001  0.25204  0.318224  -0.000216  4.028328  0.001
C  C27  1  0.26525057  0.65675304  0.36729232  1  0.361724  -0.000565  3.770898  -0.002  0.336363  -6.8e-05  4.03172  -0.001  0.362839  -0.000449  4.038164  -0.001  0.251264  0.318075  0.000201  4.028057  -0.001
C  C28  1  0.67693225  0.57177723  0.24590440  1  0.580512  -0.005033  3.917403  -0.008  0.542673  -0.000217  4.215809  -0.002  0.576255  -0.000251  4.208465  -0.002  0.211697  0.5195  -0.000367  4.219589  -0.003
C  C29  1  0.82316228  0.32547802  0.75402366  1  0.581366  0.00505  3.916386  0.008  0.542497  0.000226  4.216511  0.002  0.576099  0.000261  4.20909  0.002  0.211245  0.519338  0.000382  4.22032  0.003
C  C30  1  0.32306976  0.42822260  0.75409383  1  0.580514  -0.005032  3.917389  -0.008  0.542649  -0.000217  4.215844  -0.002  0.576228  -0.000249  4.208506  -0.002  0.211651  0.51948  -0.000366  4.219631  -0.003
C  C31  1  0.17683618  0.67451812  0.24596509  1  0.580807  0.005046  3.917442  0.008  0.542088  0.000227  4.217354  0.002  0.5757  0.00026  4.209923  0.002  0.211173  0.518929  0.000382  4.22115  0.003
C  C32  1  0.99903411  0.84734732  0.52960903  1  0.73622  0.001516  3.862495  0.001  0.677888  0.001629  4.169112  0.001  0.714532  0.000996  4.163743  0.0  0.327295  0.65355  0.00204  4.171888  0.001
C  C33  1  0.50091010  0.31807198  0.47072251  1  0.737404  -0.001502  3.859953  -0.001  0.677945  -0.001615  4.167921  -0.001  0.714678  -0.000986  4.162418  0.0  0.327062  0.653585  -0.002032  4.170745  -0.001
C  C34  1  0.00096642  0.15265714  0.47037560  1  0.736345  0.001517  3.861942  0.001  0.677968  0.001629  4.168613  0.001  0.714605  0.000996  4.163251  0.0  0.327406  0.65363  0.002041  4.171397  0.001
C  C35  1  0.49909887  0.68194355  0.52928992  1  0.737014  -0.001502  3.860197  -0.001  0.677623  -0.001617  4.168026  -0.001  0.714355  -0.000986  4.162529  0.0  0.326999  0.653266  -0.002032  4.17085  -0.001
C  C36  1  0.76579768  0.93314528  0.52091728  1  0.755981  -0.000512  3.845346  0.0  0.697389  -0.001024  4.146893  0.0  0.735707  -0.000548  4.13868  0.0  0.335417  0.672036  -0.001336  4.151437  0.0
C  C37  1  0.73405409  0.41188673  0.47893386  1  0.756365  0.000509  3.84518  0.0  0.696692  0.001027  4.148617  0.0  0.735031  0.000543  4.140432  0.0  0.335484  0.671285  0.001329  4.153184  0.0
C  C38  1  0.23421563  0.06685679  0.47907317  1  0.755972  -0.000509  3.845785  0.0  0.697333  -0.001022  4.147346  0.0  0.735632  -0.000548  4.139163  0.0  0.335396  0.671975  -0.001335  4.151886  0.0
C  C39  1  0.26594028  0.58811855  0.52106351  1  0.756373  0.000509  3.84527  0.0  0.696819  0.001025  4.148548  0.0  0.73515  0.000547  4.140373  0.0  0.335533  0.671412  0.001328  4.153114  0.0
C  C40  1  0.03582798  0.25843868  0.24916430  1  0.1434  -0.00552  3.677212  -0.006  0.11385  -0.000242  3.936839  -0.001  0.123137  -0.001377  3.956066  -0.002  0.051415  0.107993  0.000613  3.924017  0.0
C  C41  1  0.46378093  0.00935796  0.75084669  1  0.141923  0.005549  3.677339  0.006  0.112489  0.000248  3.936949  0.001  0.121815  0.001388  3.956174  0.002  0.050303  0.106598  -0.000609  3.924153  0.0
C  C42  1  0.96420450  0.74156256  0.75082963  1  0.143436  -0.005491  3.677087  -0.006  0.113838  -0.00024  3.936821  -0.001  0.123143  -0.001374  3.956033  -0.002  0.051472  0.107975  0.000614  3.924017  0.0
C  C43  1  0.53621077  0.99065465  0.24916688  1  0.142004  0.005509  3.677223  0.006  0.112505  0.000246  3.936903  0.001  0.121829  0.001382  3.956129  0.002  0.050246  0.106613  -0.000612  3.924108  0.0
C  C44  1  0.04416212  0.11984417  0.17342399  1  -0.138916  0.008781  3.682837  0.009  -0.159254  0.003821  3.927775  0.005  -0.166548  0.003466  3.94821  0.004  -0.07779  -0.154684  0.003994  3.914351  0.005
C  C45  1  0.45534467  0.94651432  0.82654459  1  -0.13955  -0.008802  3.684803  -0.009  -0.159486  -0.003809  3.929633  -0.005  -0.166843  -0.003464  3.950058  -0.004  -0.077369  -0.154848  -0.004021  3.916159  -0.005
C  C46  1  0.95583721  0.88014814  0.82656984  1  -0.138835  0.008735  3.682531  0.009  -0.159158  0.003818  3.92763  0.005  -0.166446  0.003464  3.94805  0.004  -0.077764  -0.154591  0.003993  3.914207  0.005
C  C47  1  0.54464478  0.05348349  0.17345878  1  -0.139515  -0.008753  3.685049  -0.009  -0.159502  -0.003812  3.929827  -0.005  -0.166858  -0.003461  3.950249  -0.004  -0.077433  -0.154863  -0.004022  3.916348  -0.005
C  C48  1  0.99647387  0.07368820  0.04185228  1  0.092272  -0.006339  3.747543  -0.006  0.104966  -0.002209  3.975116  -0.002  0.109007  -0.002447  3.996623  -0.002  0.014915  0.10218  -0.001962  3.960811  -0.002
C  C49  1  0.50371043  0.03182966  0.95822168  1  0.091982  0.006369  3.749116  0.006  0.104765  0.002204  3.976314  0.002  0.108762  0.00245  3.997939  0.002  0.014466  0.102017  0.001965  3.961944  0.002
C  C50  1  0.00350255  0.92629604  0.95813599  1  0.092327  -0.006298  3.747524  -0.006  0.104877  -0.002206  3.975242  -0.002  0.108905  -0.002444  3.996768  -0.002  0.014823  0.102096  -0.00196  3.960928  -0.002
C  C51  1  0.49630007  0.96815273  0.04178567  1  0.091725  0.006321  3.749296  0.006  0.104618  0.002207  3.976386  0.002  0.108616  0.002449  3.998  0.002  0.01442  0.10187  0.001965  3.962016  0.002
C  C52  1  0.94285534  0.17438727  0.99384744  1  -0.139885  0.008672  3.672662  0.009  -0.158801  0.003534  3.915337  0.004  -0.166001  0.003221  3.934446  0.004  -0.075588  -0.154239  0.003837  3.90318  0.005
C  C53  1  0.55836085  0.18036906  0.00646455  1  -0.139492  -0.008701  3.672058  -0.009  -0.15819  -0.003528  3.914805  -0.004  -0.165447  -0.003226  3.933917  -0.004  -0.075445  -0.153613  -0.003786  3.902656  -0.005
C  C54  1  0.05710531  0.82559219  0.00613853  1  -0.140043  0.008619  3.672599  0.009  -0.158805  0.003532  3.915356  0.004  -0.166052  0.003219  3.934459  0.004  -0.075636  -0.154238  0.003836  3.903184  0.005
C  C55  1  0.44164594  0.81961654  0.99355477  1  -0.139449  -0.008656  3.672045  -0.009  -0.158175  -0.003532  3.914756  -0.004  -0.16543  -0.003223  3.933862  -0.004  -0.07533  -0.153602  -0.003785  3.902615  -0.005
C  C56  1  0.93798186  0.31140661  0.07512749  1  0.141297  -0.006544  3.664634  -0.007  0.112055  -0.000956  3.920223  -0.002  0.121482  -0.002015  3.93832  -0.003  0.053175  0.105747  -0.00011  3.909052  -0.001
C  C57  1  0.56319065  0.23611492  0.92518250  1  0.141435  0.006569  3.66346  0.007  0.112646  0.000947  3.919191  0.002  0.122142  0.002016  3.937225  0.003  0.053231  0.106248  0.000103  3.908035  0.001
C  C58  1  0.06197878  0.68856744  0.92485642  1  0.14106  -0.006505  3.664733  -0.007  0.111912  -0.000954  3.920272  -0.002  0.121294  -0.002013  3.938377  -0.003  0.05312  0.105598  -0.00011  3.909109  -0.001
C  C59  1  0.43681519  0.76388136  0.07484219  1  0.141369  0.006536  3.663683  0.007  0.112597  0.000953  3.919304  0.002  0.12209  0.002015  3.937341  0.003  0.053168  0.106187  0.000105  3.90816  0.001
N  N60  1  0.91211621  0.72419251  0.41742373  1  -0.532586  0.05753  3.174186  0.071  -0.498192  0.043511  3.483202  0.057  -0.538616  0.036853  3.491375  0.05  -0.369554  -0.473193  0.045271  3.479703  0.057
N  N61  1  0.58792649  0.30693516  0.58280946  1  -0.533725  -0.057501  3.173861  -0.071  -0.49894  -0.043451  3.48315  -0.056  -0.539243  -0.036808  3.491164  -0.05  -0.36963  -0.474055  -0.045163  3.479797  -0.057
N  N62  1  0.08788912  0.27582489  0.58257975  1  -0.532628  0.057531  3.173949  0.071  -0.498263  0.043509  3.483029  0.057  -0.538692  0.036853  3.491201  0.05  -0.369633  -0.473297  0.045268  3.479566  0.057
N  N63  1  0.41207400  0.69306929  0.41718695  1  -0.533755  -0.057488  3.173924  -0.071  -0.498802  -0.04344  3.483058  -0.056  -0.539105  -0.036805  3.491082  -0.05  -0.3696  -0.473928  -0.045151  3.479722  -0.057
N  N64  1  0.91885013  0.94665208  0.57597377  1  -0.559031  0.000664  3.214525  0.001  -0.496668  0.000205  3.447405  0.0  -0.521416  1.8e-05  3.445499  0.0  -0.387041  -0.479902  0.00035  3.448084  0.001
N  N65  1  0.58099687  0.37041749  0.42400390  1  -0.558046  -0.000652  3.2146  -0.001  -0.494835  -0.000192  3.447834  0.0  -0.519617  -1.8e-05  3.445984  0.0  -0.386514  -0.478052  -0.000339  3.44847  -0.001
N  N66  1  0.08116124  0.05335648  0.42401860  1  -0.559244  0.000664  3.214672  0.001  -0.496826  0.000204  3.447444  0.0  -0.521566  1.4e-05  3.445545  0.0  -0.387226  -0.480065  0.000349  3.448127  0.001
N  N67  1  0.41900300  0.62960262  0.57600458  1  -0.557864  -0.000649  3.214605  -0.001  -0.494799  -0.000189  3.447809  0.0  -0.519566  -1.8e-05  3.445949  0.0  -0.386501  -0.478015  -0.000336  3.448448  -0.001
N  N68  1  0.68976667  0.80480394  0.41104560  1  -0.52694  -0.0596  3.256465  -0.074  -0.48934  -0.04806  3.560992  -0.063  -0.530868  -0.04195  3.57096  -0.058  -0.368375  -0.463663  -0.049974  3.555666  -0.064
N  N69  1  0.81018584  0.39344300  0.58882774  1  -0.526172  0.059731  3.253311  0.074  -0.487971  0.048115  3.557973  0.063  -0.529691  0.041994  3.56812  0.058  -0.367922  -0.462159  0.050047  3.552573  0.064
N  N70  1  0.31022665  0.19518777  0.58894082  1  -0.526785  -0.059602  3.25658  -0.074  -0.489268  -0.048057  3.561181  -0.063  -0.530769  -0.041945  3.571117  -0.058  -0.368453  -0.463568  -0.049972  3.555838  -0.064
N  N71  1  0.18981877  0.60655764  0.41117466  1  -0.526302  0.05974  3.253402  0.074  -0.488144  0.048121  3.558148  0.063  -0.529871  0.041993  3.568311  0.058  -0.36797  -0.4623  0.050048  3.552738  0.064
N  N72  1  0.98323754  0.35271886  0.20077303  1  -0.288954  0.082738  3.327404  0.103  -0.240127  0.058282  3.619735  0.078  -0.271425  0.049368  3.643385  0.069  -0.343798  -0.221151  0.062841  3.605375  0.081
N  N73  1  0.51707660  0.15189319  0.79938525  1  -0.288046  -0.082886  3.327848  -0.104  -0.23949  -0.058289  3.619955  -0.078  -0.270726  -0.04936  3.643634  -0.069  -0.343135  -0.220582  -0.062767  3.605651  -0.081
N  N74  1  0.01677707  0.64727614  0.79922139  1  -0.288743  0.082703  3.327389  0.103  -0.239967  0.058273  3.619788  0.078  -0.271285  0.049358  3.64347  0.069  -0.343729  -0.221017  0.062835  3.605447  0.081
N  N75  1  0.48292194  0.84811627  0.20064004  1  -0.287981  -0.08287  3.327747  -0.104  -0.239313  -0.058298  3.61973  -0.078  -0.270552  -0.049363  3.643424  -0.069  -0.343121  -0.220416  -0.062773  3.605434  -0.081
O  O76  1  0.75441174  0.49466336  0.19686895  1  -0.53864  0.086875  2.074445  0.115  -0.51556  0.058532  2.345344  0.084  -0.556031  0.046159  2.339085  0.07  -0.304706  -0.488028  0.065441  2.349829  0.091
O  O77  1  0.74574626  0.29753093  0.80313921  1  -0.538949  -0.086811  2.073667  -0.115  -0.51608  -0.058504  2.345419  -0.084  -0.556407  -0.04614  2.339133  -0.07  -0.304765  -0.488569  -0.065457  2.349837  -0.091
O  O78  1  0.24559081  0.50533033  0.80313495  1  -0.538597  0.086889  2.074516  0.115  -0.515505  0.058546  2.345442  0.084  -0.555988  0.046171  2.339189  0.07  -0.304657  -0.487999  0.065457  2.349933  0.091
O  O79  1  0.25424803  0.70246635  0.19684801  1  -0.538847  -0.086819  2.074121  -0.115  -0.515981  -0.058514  2.345802  -0.084  -0.556321  -0.046149  2.339539  -0.07  -0.304802  -0.488482  -0.065471  2.35022  -0.091
O  O80  1  0.53941496  0.54338902  0.20219830  1  -0.556105  0.019489  1.937244  0.024  -0.534707  0.009987  2.16847  0.013  -0.55997  0.005769  2.157081  0.007  -0.309565  -0.514456  0.016424  2.175205  0.022
O  O81  1  0.96066856  0.34049803  0.79756836  1  -0.556752  -0.019464  1.936476  -0.024  -0.53476  -0.009972  2.168236  -0.013  -0.560158  -0.005768  2.156866  -0.007  -0.309091  -0.514503  -0.016412  2.174976  -0.022
O  O82  1  0.46058694  0.45661095  0.79779838  1  -0.556111  0.01949  1.937228  0.024  -0.534705  0.009986  2.168446  0.013  -0.559964  0.00577  2.15705  0.007  -0.309589  -0.514443  0.016424  2.175179  0.022
O  O83  1  0.03933129  0.65948418  0.20241391  1  -0.556463  -0.019457  1.936931  -0.024  -0.534544  -0.00997  2.168629  -0.013  -0.55993  -0.005766  2.157242  -0.007  -0.309012  -0.514268  -0.016411  2.175355  -0.022
O  O84  1  0.13496572  0.87186397  0.58627251  1  -0.560007  0.00174  1.894291  0.002  -0.529997  0.000815  2.117387  0.001  -0.550901  0.000648  2.111501  0.001  -0.298864  -0.515401  0.000987  2.120854  0.002
O  O85  1  0.36493535  0.28647694  0.41445085  1  -0.560644  -0.00174  1.892795  -0.002  -0.530228  -0.000819  2.116141  -0.001  -0.551173  -0.000639  2.110196  -0.001  -0.299099  -0.515616  -0.000987  2.119638  -0.002
O  O86  1  0.86504089  0.12814781  0.41371975  1  -0.559856  0.001741  1.89422  0.002  -0.529878  0.000814  2.117381  0.001  -0.550765  0.000649  2.111482  0.001  -0.298822  -0.515286  0.000986  2.120854  0.002
O  O87  1  0.63507834  0.71354223  0.58556035  1  -0.560429  -0.001738  1.8927  -0.002  -0.530077  -0.000818  2.116025  -0.001  -0.551022  -0.00064  2.110091  -0.001  -0.29908  -0.515466  -0.000987  2.119523  -0.002
O  O88  1  0.70484720  0.02788605  0.56700733  1  -0.566618  0.000122  1.898176  -0.001  -0.546006  0.000357  2.144153  -0.001  -0.567637  0.000363  2.131421  -0.001  -0.288438  -0.531616  0.000189  2.152853  -0.001
O  O89  1  0.79487668  0.46035090  0.43268208  1  -0.566864  -0.00012  1.898973  0.001  -0.545889  -0.000367  2.145549  0.001  -0.567591  -0.000354  2.132985  0.001  -0.288505  -0.531479  -0.000206  2.154226  0.001
O  O90  1  0.29516025  0.97211657  0.43297540  1  -0.566532  0.000119  1.898437  -0.001  -0.545912  0.000357  2.144469  -0.001  -0.567539  0.000367  2.13174  -0.001  -0.288297  -0.531526  0.000189  2.153169  -0.001
O  O91  1  0.20512048  0.53965901  0.56732648  1  -0.566877  -0.00012  1.898939  0.001  -0.545962  -0.000365  2.145479  0.001  -0.567651  -0.000354  2.132898  0.001  -0.288505  -0.531554  -0.000206  2.15416  0.001
