# generated using pymatgen
data_H4Pb(C2O3)2
_symmetry_space_group_name_H-M   'P 1'
_cell_length_a   8.07425289
_cell_length_b   8.25020610
_cell_length_c   8.91668420
_cell_angle_alpha   89.99978642
_cell_angle_beta   89.99999737
_cell_angle_gamma   90.00007535
_symmetry_Int_Tables_number   1
_chemical_formula_structural   H4Pb(C2O3)2
_chemical_formula_sum   'H16 Pb4 C16 O24'
_cell_volume   593.97823451
_cell_formula_units_Z   4
loop_
 _symmetry_equiv_pos_site_id
 _symmetry_equiv_pos_as_xyz
  1  'x, y, z'
loop_
 _atom_site_type_symbol
 _atom_site_label
 _atom_site_symmetry_multiplicity
 _atom_site_fract_x
 _atom_site_fract_y
 _atom_site_fract_z
 _atom_site_occupancy
 _atom_site_pbe_bader_charge
 _atom_site_pbe_bader_spin_density
 _atom_site_pbe_cm5_charge
 _atom_site_pbe_ddec_charge
 _atom_site_pbe_ddec_spin_density
 _atom_site_pbe_ddec_sum_bond_order
 _atom_site_pbe_magmom
H  H0  1  0.28363459  0.85032568  0.97422192  1  0.093042  0  0.117721  0.083334  0  0.990214  0
H  H1  1  0.21636883  0.35032695  0.02577860  1  0.093059  0  0.117712  0.083342  0  0.990228  0
H  H2  1  0.71636290  0.64967455  0.47422217  1  0.093059  0  0.117709  0.083321  0  0.990247  0
H  H3  1  0.78363587  0.14966905  0.52577725  1  0.093033  0  0.117701  0.083321  0  0.990243  0
H  H4  1  0.37755409  0.86085010  0.22759235  1  0.133129  0  0.118267  0.079047  0  1.030649  0
H  H5  1  0.12244304  0.36084807  0.77241153  1  0.133141  0  0.118241  0.079017  0  1.030594  0
H  H6  1  0.62244465  0.63914965  0.72758877  1  0.133181  0  0.11825  0.079019  0  1.03069  0
H  H7  1  0.87755298  0.13914842  0.27240841  1  0.133022  0  0.118277  0.07901  0  1.030704  0
H  H8  1  0.24164059  0.59293818  0.91005684  1  0.641577  0  0.296602  0.350567  0  0.992302  0
H  H9  1  0.25836154  0.09293701  0.08994598  1  0.641579  0  0.296611  0.35056  0  0.992307  0
H  H10  1  0.75835814  0.90706377  0.41005255  1  0.641534  0  0.296594  0.350585  0  0.99223  0
H  H11  1  0.74163820  0.40706213  0.58994346  1  0.641567  0  0.296572  0.35052  0  0.99242  0
H  H12  1  0.12789127  0.61757571  0.28734554  1  0.649686  0  0.298297  0.344166  0  0.998658  0
H  H13  1  0.37210940  0.11757583  0.71265503  1  0.649676  0  0.298318  0.344184  0  0.99862  0
H  H14  1  0.87210995  0.88242357  0.78735087  1  0.649692  0  0.298291  0.344195  0  0.998642  0
H  H15  1  0.62788787  0.38242113  0.21264963  1  0.649687  0  0.298287  0.344166  0  0.998691  0
Pb  Pb16  1  0.84438016  0.54731097  0.99383461  1  1.500439  0  0.665668  1.19763  0  1.786967  0
Pb  Pb17  1  0.65562205  0.04731047  0.00616259  1  1.50041  0  0.665665  1.197624  0  1.786959  0
Pb  Pb18  1  0.15562971  0.95268669  0.49384379  1  1.500414  0  0.665706  1.197673  0  1.786901  0
Pb  Pb19  1  0.34437894  0.45269053  0.50616456  1  1.500414  0  0.665709  1.197651  0  1.786892  0
C  C20  1  0.06687016  0.87907011  0.11251483  1  1.591693  0  0.211539  0.561879  0  4.174714  0
C  C21  1  0.43313052  0.37906836  0.88748456  1  1.591694  0  0.211483  0.561828  0  4.174902  0
C  C22  1  0.93312240  0.62093175  0.61251460  1  1.591427  0  0.21171  0.562319  0  4.174707  0
C  C23  1  0.56687292  0.12093087  0.38748594  1  1.591436  0  0.211619  0.562135  0  4.174714  0
C  C24  1  0.21305011  0.77643011  0.05476915  1  0.472309  0  -0.005624  0.040683  0  3.883268  0
C  C25  1  0.28695154  0.27642743  0.94523138  1  0.472317  0  -0.005671  0.040542  0  3.883402  0
C  C26  1  0.78694493  0.72357220  0.55476779  1  0.472285  0  -0.005644  0.040559  0  3.883264  0
C  C27  1  0.71305314  0.22356893  0.44523049  1  0.472308  0  -0.005604  0.040638  0  3.883311  0
C  C28  1  0.32147019  0.74451463  0.19439841  1  0.430665  0  -0.009766  0.016585  0  3.889321  0
C  C29  1  0.17852927  0.24451178  0.80560213  1  0.430764  0  -0.009723  0.016753  0  3.889078  0
C  C30  1  0.67852731  0.75548780  0.69440266  1  0.43052  0  -0.009797  0.016709  0  3.889137  0
C  C31  1  0.82147170  0.25548688  0.30559674  1  0.430678  0  -0.009758  0.016747  0  3.889205  0
C  C32  1  0.46993894  0.63390018  0.16625792  1  1.578302  0  0.220861  0.590193  0  4.127004  0
C  C33  1  0.03006281  0.13389660  0.83374489  1  1.578276  0  0.220891  0.590204  0  4.126884  0
C  C34  1  0.53006104  0.86610489  0.66625990  1  1.57895  0  0.220926  0.590255  0  4.126672  0
C  C35  1  0.96993816  0.36610305  0.33374060  1  1.578798  0  0.220855  0.590164  0  4.126882  0
O  O36  1  0.92072402  0.82550795  0.10185166  1  -1.170043  0  -0.280663  -0.539402  0  2.277661  0
O  O37  1  0.57927680  0.32550687  0.89814997  1  -1.170074  0  -0.280636  -0.539372  0  2.277781  0
O  O38  1  0.07926111  0.67449035  0.60185146  1  -1.169847  0  -0.280817  -0.539648  0  2.278086  0
O  O39  1  0.42073283  0.17449107  0.39815246  1  -1.169951  0  -0.280737  -0.539557  0  2.277927  0
O  O40  1  0.10541897  0.01323475  0.17469274  1  -1.197808  0  -0.307632  -0.575135  0  2.272397  0
O  O41  1  0.39458143  0.51323351  0.82530897  1  -1.197775  0  -0.307596  -0.575104  0  2.272435  0
O  O42  1  0.89457210  0.48676009  0.67469356  1  -1.197643  0  -0.307664  -0.575315  0  2.27229  0
O  O43  1  0.60542473  0.98676304  0.32530691  1  -1.197595  0  -0.307672  -0.575282  0  2.272304  0
O  O44  1  0.15486209  0.63371213  0.98374566  1  -1.180562  0  -0.385018  -0.521294  0  2.415608  0
O  O45  1  0.34513842  0.13371132  0.01625490  1  -1.180596  0  -0.38499  -0.521247  0  2.415709  0
O  O46  1  0.84513416  0.86628682  0.48373913  1  -1.180518  0  -0.384966  -0.521299  0  2.415554  0
O  O47  1  0.65486256  0.36628596  0.51625576  1  -1.180546  0  -0.384995  -0.521276  0  2.415729  0
O  O48  1  0.22308486  0.69236700  0.31818995  1  -1.175153  0  -0.36556  -0.529576  0  2.479231  0
O  O49  1  0.27691634  0.19236747  0.68181172  1  -1.175223  0  -0.365583  -0.529624  0  2.479154  0
O  O50  1  0.77691759  0.80762719  0.81819194  1  -1.175284  0  -0.365511  -0.52964  0  2.4792  0
O  O51  1  0.72307969  0.30762731  0.18180857  1  -1.175264  0  -0.365518  -0.529594  0  2.479166  0
O  O52  1  0.57854069  0.68793011  0.07691192  1  -1.177273  0  -0.284647  -0.555819  0  2.254661  0
O  O53  1  0.92146515  0.18792795  0.92309310  1  -1.17719  0  -0.284673  -0.555821  0  2.254672  0
O  O54  1  0.42146549  0.81207566  0.57691392  1  -1.177611  0  -0.284632  -0.555789  0  2.254638  0
O  O55  1  0.07853334  0.31207707  0.42308773  1  -1.177537  0  -0.284587  -0.555722  0  2.25469  0
O  O56  1  0.47676745  0.49910210  0.23639948  1  -1.190026  0  -0.290062  -0.542843  0  2.274925  0
O  O57  1  0.02322962  0.99909946  0.76360101  1  -1.190044  0  -0.290059  -0.54289  0  2.274934  0
O  O58  1  0.52322857  0.00090316  0.73640714  1  -1.190139  0  -0.290124  -0.542935  0  2.274826  0
O  O59  1  0.97676788  0.50090121  0.26359007  1  -1.190065  0  -0.290153  -0.542939  0  2.274851  0
