# generated using pymatgen
data_PrH7C7SO8
_symmetry_space_group_name_H-M   'P 1'
_cell_length_a   7.01834650
_cell_length_b   9.50202144
_cell_length_c   14.05526641
_cell_angle_alpha   89.99995128
_cell_angle_beta   90.00004382
_cell_angle_gamma   90.00017224
_symmetry_Int_Tables_number   1
_chemical_formula_structural   PrH7C7SO8
_chemical_formula_sum   'Pr4 H28 C28 S4 O32'
_cell_volume   937.32433708
_cell_formula_units_Z   4
loop_
 _symmetry_equiv_pos_site_id
 _symmetry_equiv_pos_as_xyz
  1  'x, y, z'
loop_
 _atom_site_type_symbol
 _atom_site_label
 _atom_site_symmetry_multiplicity
 _atom_site_fract_x
 _atom_site_fract_y
 _atom_site_fract_z
 _atom_site_occupancy
 _atom_site_hle17_bader_spin_density
 _atom_site_hle17_ddec_charge
 _atom_site_hle17_ddec_spin_density
 _atom_site_hle17_ddec_sum_bond_order
 _atom_site_hle17_magmom
 _atom_site_hse06_10hf_bader_spin_density
 _atom_site_hse06_10hf_ddec_charge
 _atom_site_hse06_10hf_ddec_spin_density
 _atom_site_hse06_10hf_ddec_sum_bond_order
 _atom_site_hse06_10hf_magmom
 _atom_site_hse06_bader_spin_density
 _atom_site_hse06_ddec_charge
 _atom_site_hse06_ddec_spin_density
 _atom_site_hse06_ddec_sum_bond_order
 _atom_site_hse06_magmom
 _atom_site_pbe_bader_spin_density
 _atom_site_pbe_cm5_charge
 _atom_site_pbe_ddec_charge
 _atom_site_pbe_ddec_spin_density
 _atom_site_pbe_ddec_sum_bond_order
 _atom_site_pbe_magmom
Pr  Pr0  1  0.03732082  0.68723268  0.12427707  1  0  2.391882  0  1.566705  0  0  2.283482  0  1.935539  0  0  2.317697  0  1.893259  0  0  1.517634  2.257758  0  1.966121  0
Pr  Pr1  1  0.46267700  0.31276410  0.62427562  1  0  2.391844  0  1.566788  0  0  2.283451  0  1.935623  0  0  2.317668  0  1.893342  0  0  1.517603  2.257719  0  1.966206  0
Pr  Pr2  1  0.96267326  0.18723678  0.37572408  1  0  2.391862  0  1.566801  0  0  2.283455  0  1.935633  0  0  2.317672  0  1.893356  0  0  1.517591  2.257723  0  1.966212  0
Pr  Pr3  1  0.53732398  0.81276711  0.87572287  1  0  2.391892  0  1.56666  0  0  2.283503  0  1.93548  0  0  2.317718  0  1.893202  0  0  1.517651  2.257775  0  1.966066  0
H  H4  1  0.52266044  0.08466456  0.17995754  1  0  0.105367  0  0.971127  0  0  0.117868  0  1.028699  0  0  0.121224  0  1.027608  0  0  0.107076  0.115735  0  1.029642  0
H  H5  1  0.97733653  0.91533642  0.67995503  1  0  0.105364  0  0.971238  0  0  0.117919  0  1.028751  0  0  0.121269  0  1.027672  0  0  0.107089  0.115792  0  1.029677  0
H  H6  1  0.47734319  0.58466329  0.32004509  1  0  0.105373  0  0.971238  0  0  0.117894  0  1.028793  0  0  0.121247  0  1.027705  0  0  0.107086  0.115769  0  1.029725  0
H  H7  1  0.02266630  0.41533429  0.82004339  1  0  0.105413  0  0.971163  0  0  0.117917  0  1.028728  0  0  0.121269  0  1.027642  0  0  0.107105  0.115791  0  1.029652  0
H  H8  1  0.52674028  0.33310010  0.21832174  1  0  0.104652  0  0.950024  0  0  0.115144  0  1.01182  0  0  0.118771  0  1.007995  0  0  0.112643  0.112501  0  1.014684  0
H  H9  1  0.97325674  0.66690399  0.71832364  1  0  0.104649  0  0.94997  0  0  0.115125  0  1.011795  0  0  0.118752  0  1.007968  0  0  0.112649  0.112482  0  1.014655  0
H  H10  1  0.47325581  0.83309571  0.28167577  1  0  0.104642  0  0.949981  0  0  0.115116  0  1.011813  0  0  0.118742  0  1.007987  0  0  0.112644  0.112475  0  1.014671  0
H  H11  1  0.02674792  0.16690087  0.78167849  1  0  0.104637  0  0.949981  0  0  0.11508  0  1.011864  0  0  0.118707  0  1.008037  0  0  0.112611  0.112433  0  1.01473  0
H  H12  1  0.53521163  0.43196074  0.91813271  1  0  0.111732  0  0.987493  0  0  0.118325  0  1.055837  0  0  0.122609  0  1.051048  0  0  0.11342  0.115555  0  1.058622  0
H  H13  1  0.96478283  0.56804310  0.41813512  1  0  0.1118  0  0.987452  0  0  0.11836  0  1.055838  0  0  0.122645  0  1.05105  0  0  0.113415  0.11558  0  1.058623  0
H  H14  1  0.46477844  0.93195658  0.58186429  1  0  0.111813  0  0.987437  0  0  0.118363  0  1.055837  0  0  0.12265  0  1.051047  0  0  0.11341  0.115581  0  1.058623  0
H  H15  1  0.03521362  0.06803919  0.08186610  1  0  0.111737  0  0.987489  0  0  0.11833  0  1.055838  0  0  0.122615  0  1.051048  0  0  0.113417  0.115556  0  1.058631  0
H  H16  1  0.33114835  0.93104850  0.11491402  1  0  0.434413  0  0.851127  0  0  0.404334  0  0.924345  0  0  0.414037  0  0.909921  0  0  0.307592  0.397381  0  0.934727  0
H  H17  1  0.16884946  0.06895355  0.61491472  1  0  0.434409  0  0.851253  0  0  0.404332  0  0.924379  0  0  0.414035  0  0.909954  0  0  0.307584  0.397381  0  0.934756  0
H  H18  1  0.66884957  0.43104562  0.38508699  1  0  0.4344  0  0.851251  0  0  0.404322  0  0.924384  0  0  0.414026  0  0.909959  0  0  0.307576  0.39737  0  0.934765  0
H  H19  1  0.83115054  0.56895088  0.88508747  1  0  0.434377  0  0.851165  0  0  0.404299  0  0.924389  0  0  0.414002  0  0.909965  0  0  0.307574  0.397347  0  0.93477  0
H  H20  1  0.69434497  0.91569744  0.09755121  1  0  0.442121  0  0.857555  0  0  0.409606  0  0.924319  0  0  0.420488  0  0.908367  0  0  0.300684  0.40217  0  0.935169  0
H  H21  1  0.80565189  0.08430258  0.59755054  1  0  0.442086  0  0.85761  0  0  0.409573  0  0.924367  0  0  0.420454  0  0.908418  0  0  0.300671  0.402138  0  0.935219  0
H  H22  1  0.30565289  0.41569690  0.40244767  1  0  0.442176  0  0.857466  0  0  0.409696  0  0.92419  0  0  0.420577  0  0.908239  0  0  0.300713  0.402262  0  0.93504  0
H  H23  1  0.19434674  0.58430374  0.90244950  1  0  0.442133  0  0.857543  0  0  0.409614  0  0.924311  0  0  0.420496  0  0.90836  0  0  0.300687  0.40218  0  0.93516  0
H  H24  1  0.24249514  0.97057256  0.21653426  1  0  0.454405  0  0.831635  0  0  0.425611  0  0.891626  0  0  0.434866  0  0.878021  0  0  0.315776  0.419039  0  0.901332  0
H  H25  1  0.25749568  0.02942305  0.71653645  1  0  0.454368  0  0.83168  0  0  0.42557  0  0.891685  0  0  0.434827  0  0.878077  0  0  0.315735  0.418995  0  0.901399  0
H  H26  1  0.75749439  0.47057632  0.28346459  1  0  0.454384  0  0.831663  0  0  0.425582  0  0.891675  0  0  0.434838  0  0.878069  0  0  0.315742  0.419006  0  0.901392  0
H  H27  1  0.74249845  0.52942558  0.78346647  1  0  0.454387  0  0.831652  0  0  0.425598  0  0.89164  0  0  0.434854  0  0.878032  0  0  0.315772  0.419022  0  0.901353  0
H  H28  1  0.81963526  0.93183724  0.19669628  1  0  0.446938  0  0.840558  0  0  0.417687  0  0.90162  0  0  0.428672  0  0.88525  0  0  0.311948  0.409648  0  0.913702  0
H  H29  1  0.68036316  0.06815634  0.69669698  1  0  0.44687  0  0.840555  0  0  0.417647  0  0.901633  0  0  0.428621  0  0.885272  0  0  0.311942  0.409609  0  0.913714  0
H  H30  1  0.18036266  0.43184286  0.30330331  1  0  0.446865  0  0.840558  0  0  0.417645  0  0.901633  0  0  0.428618  0  0.885273  0  0  0.311942  0.409608  0  0.913712  0
H  H31  1  0.31963541  0.56816212  0.80330449  1  0  0.446956  0  0.840532  0  0  0.417706  0  0.901591  0  0  0.428691  0  0.88522  0  0  0.311954  0.409665  0  0.913675  0
C  C32  1  0.53278172  0.17827055  0.84908180  1  0  0.738503  0  3.830421  0  0  0.689864  0  4.121386  0  0  0.725808  0  4.111015  0  0  0.234473  0.66528  0  4.128052  0
C  C33  1  0.96722119  0.82172180  0.34907766  1  0  0.738197  0  3.830556  0  0  0.689491  0  4.121633  0  0  0.725441  0  4.111258  0  0  0.234243  0.664903  0  4.128293  0
C  C34  1  0.46722442  0.67827894  0.65092246  1  0  0.738112  0  3.830781  0  0  0.689472  0  4.121761  0  0  0.725406  0  4.111408  0  0  0.234223  0.664889  0  4.128422  0
C  C35  1  0.03278056  0.32172833  0.15091843  1  0  0.738506  0  3.830418  0  0  0.689874  0  4.121361  0  0  0.725815  0  4.110998  0  0  0.234483  0.665288  0  4.128028  0
C  C36  1  0.52629704  0.30149318  0.14388630  1  0  0.008363  0  3.723526  0  0  -0.023384  0  3.979327  0  0  -0.016089  0  3.995469  0  0  -0.072557  -0.02798  0  3.968204  0
C  C37  1  0.97370273  0.69850784  0.64388676  1  0  0.008454  0  3.723706  0  0  -0.023263  0  3.979533  0  0  -0.015963  0  3.995674  0  0  -0.07251  -0.027861  0  3.968405  0
C  C38  1  0.47370178  0.80149292  0.35611336  1  0  0.008435  0  3.723687  0  0  -0.023277  0  3.97951  0  0  -0.01598  0  3.995654  0  0  -0.072531  -0.027875  0  3.968382  0
C  C39  1  0.02630349  0.19850778  0.85611321  1  0  0.008496  0  3.723476  0  0  -0.023237  0  3.979276  0  0  -0.015937  0  3.995414  0  0  -0.072526  -0.027828  0  3.968147  0
C  C40  1  0.52366792  0.16037585  0.12184051  1  0  -0.198601  0  3.692486  0  0  -0.212527  0  3.943077  0  0  -0.222932  0  3.962937  0  0  -0.105908  -0.206204  0  3.930006  0
C  C41  1  0.97633040  0.83963046  0.62184374  1  0  -0.198632  0  3.69244  0  0  -0.212629  0  3.943014  0  0  -0.223034  0  3.962868  0  0  -0.105964  -0.206302  0  3.929955  0
C  C42  1  0.47633175  0.66036925  0.37815567  1  0  -0.198644  0  3.692384  0  0  -0.212619  0  3.942936  0  0  -0.223024  0  3.962797  0  0  -0.105958  -0.206298  0  3.929893  0
C  C43  1  0.02367497  0.33962511  0.87815829  1  0  -0.198643  0  3.692534  0  0  -0.21256  0  3.9431  0  0  -0.222964  0  3.962958  0  0  -0.105897  -0.206232  0  3.930039  0
C  C44  1  0.52636781  0.10982772  0.02678932  1  0  0.385485  0  3.833757  0  0  0.367328  0  4.091691  0  0  0.38595  0  4.10461  0  0  0.09782  0.355613  0  4.082219  0
C  C45  1  0.97363037  0.89017449  0.52678968  1  0  0.385412  0  3.833941  0  0  0.367256  0  4.091882  0  0  0.385877  0  4.104803  0  0  0.097794  0.355536  0  4.082411  0
C  C46  1  0.47363735  0.60982731  0.47321116  1  0  0.385479  0  3.833863  0  0  0.367368  0  4.091744  0  0  0.385988  0  4.104664  0  0  0.097851  0.355647  0  4.082285  0
C  C47  1  0.02637235  0.39017219  0.97320877  1  0  0.38555  0  3.833676  0  0  0.367349  0  4.091659  0  0  0.38597  0  4.104581  0  0  0.097808  0.355627  0  4.082195  0
C  C48  1  0.53097120  0.35575481  0.97569834  1  0  -0.018482  0  3.729871  0  0  -0.059093  0  3.981101  0  0  -0.051687  0  4.000054  0  0  -0.072045  -0.063102  0  3.96739  0
C  C49  1  0.96903046  0.64424896  0.47569858  1  0  -0.018407  0  3.729393  0  0  -0.058986  0  3.980603  0  0  -0.051577  0  3.999556  0  0  -0.071942  -0.062984  0  3.966885  0
C  C50  1  0.46902854  0.85575179  0.52430155  1  0  -0.018473  0  3.729411  0  0  -0.059025  0  3.980619  0  0  -0.051622  0  3.999571  0  0  -0.071965  -0.063019  0  3.966888  0
C  C51  1  0.03097342  0.14424512  0.02430189  1  0  -0.018438  0  3.72979  0  0  -0.059085  0  3.981033  0  0  -0.051678  0  3.999987  0  0  -0.072024  -0.063094  0  3.96732  0
C  C52  1  0.52733613  0.21209696  0.95231355  1  0  -0.21438  0  3.687877  0  0  -0.19142  0  3.925363  0  0  -0.208609  0  3.94956  0  0  -0.029243  -0.180515  0  3.909022  0
C  C53  1  0.97266407  0.78791630  0.45231726  1  0  -0.21432  0  3.687889  0  0  -0.191323  0  3.925325  0  0  -0.208519  0  3.949533  0  0  -0.02929  -0.180435  0  3.909023  0
C  C54  1  0.47266587  0.71208656  0.54768357  1  0  -0.214256  0  3.687861  0  0  -0.191319  0  3.925311  0  0  -0.2085  0  3.949504  0  0  -0.029272  -0.180418  0  3.908967  0
C  C55  1  0.02733897  0.28790295  0.04768596  1  0  -0.214449  0  3.687833  0  0  -0.191455  0  3.925293  0  0  -0.208646  0  3.949495  0  0  -0.029265  -0.180549  0  3.90896  0
C  C56  1  0.53415517  0.40024801  0.06959242  1  0  -0.18874  0  3.785617  0  0  -0.163109  0  4.045623  0  0  -0.176309  0  4.068707  0  0  -0.032836  -0.154397  0  4.029665  0
C  C57  1  0.96584450  0.59975520  0.56960289  1  0  -0.188895  0  3.785766  0  0  -0.163306  0  4.045792  0  0  -0.176513  0  4.068886  0  0  -0.032904  -0.154594  0  4.029844  0
C  C58  1  0.46584263  0.90024448  0.43039723  1  0  -0.188834  0  3.785798  0  0  -0.163262  0  4.045831  0  0  -0.176468  0  4.068927  0  0  -0.032884  -0.154545  0  4.029872  0
C  C59  1  0.03416132  0.09975297  0.93040639  1  0  -0.188853  0  3.785677  0  0  -0.16317  0  4.045625  0  0  -0.176375  0  4.068718  0  0  -0.032842  -0.154459  0  4.029665  0
S  S60  1  0.56147110  0.57815754  0.10026130  1  0  1.40776  0  5.542761  0  0  1.311283  0  6.058418  0  0  1.359933  0  6.031041  0  0  0.562772  1.27721  0  6.076685  0
S  S61  1  0.93852718  0.42184354  0.60025977  1  0  1.407888  0  5.542684  0  0  1.31144  0  6.058324  0  0  1.360089  0  6.030951  0  0  0.562839  1.277359  0  6.076605  0
S  S62  1  0.43852396  0.07815624  0.39974062  1  0  1.407829  0  5.542612  0  0  1.311366  0  6.058271  0  0  1.360017  0  6.030889  0  0  0.562791  1.277289  0  6.07654  0
S  S63  1  0.06147425  0.92184125  0.89973794  1  0  1.407844  0  5.542688  0  0  1.311364  0  6.05834  0  0  1.360014  0  6.030958  0  0  0.5628  1.277287  0  6.076616  0
O  O64  1  0.71357821  0.58069712  0.17333216  1  0  -0.761835  0  2.067859  0  0  -0.708232  0  2.332158  0  0  -0.729406  0  2.317561  0  0  -0.373591  -0.692777  0  2.341258  0
O  O65  1  0.78642160  0.41930070  0.67333200  1  0  -0.761825  0  2.067833  0  0  -0.70823  0  2.332103  0  0  -0.729405  0  2.31751  0  0  -0.373564  -0.692772  0  2.341209  0
O  O66  1  0.28641686  0.08069873  0.32666763  1  0  -0.761921  0  2.067857  0  0  -0.708284  0  2.332068  0  0  -0.729468  0  2.317492  0  0  -0.373586  -0.692829  0  2.34117  0
O  O67  1  0.21358267  0.91930306  0.82666785  1  0  -0.761866  0  2.067906  0  0  -0.708221  0  2.332114  0  0  -0.729408  0  2.317544  0  0  -0.373561  -0.692768  0  2.341221  0
O  O68  1  0.62259529  0.65904150  0.01596406  1  0  -0.789576  0  2.074793  0  0  -0.74255  0  2.359836  0  0  -0.761509  0  2.34122  0  0  -0.384399  -0.728961  0  2.372456  0
O  O69  1  0.87741142  0.34096284  0.51596683  1  0  -0.789657  0  2.074887  0  0  -0.742606  0  2.35987  0  0  -0.76156  0  2.341248  0  0  -0.384486  -0.729026  0  2.372506  0
O  O70  1  0.37740864  0.15903680  0.48403355  1  0  -0.789552  0  2.074861  0  0  -0.742503  0  2.359849  0  0  -0.761458  0  2.341232  0  0  -0.384431  -0.728924  0  2.372475  0
O  O71  1  0.12259538  0.84095742  0.98403592  1  0  -0.78961  0  2.074755  0  0  -0.742583  0  2.359793  0  0  -0.761534  0  2.341161  0  0  -0.384422  -0.728997  0  2.372422  0
O  O72  1  0.38089737  0.63075349  0.13913280  1  0  -0.749504  0  2.046403  0  0  -0.700968  0  2.325751  0  0  -0.721107  0  2.307977  0  0  -0.39334  -0.686859  0  2.338196  0
O  O73  1  0.11910332  0.36924853  0.63913615  1  0  -0.749573  0  2.046376  0  0  -0.701045  0  2.325695  0  0  -0.721182  0  2.307922  0  0  -0.393382  -0.686935  0  2.338142  0
O  O74  1  0.61909933  0.13075159  0.36086412  1  0  -0.749597  0  2.046343  0  0  -0.701063  0  2.325679  0  0  -0.721202  0  2.307905  0  0  -0.393389  -0.686957  0  2.338125  0
O  O75  1  0.88090217  0.86924706  0.86086586  1  0  -0.749539  0  2.046436  0  0  -0.701035  0  2.325805  0  0  -0.721171  0  2.30803  0  0  -0.393379  -0.686922  0  2.338247  0
O  O76  1  0.49660669  0.27830715  0.79125432  1  0  -0.724952  0  1.994929  0  0  -0.674354  0  2.246721  0  0  -0.698358  0  2.235569  0  0  -0.416895  -0.657644  0  2.254417  0
O  O77  1  0.00339136  0.72169784  0.29125788  1  0  -0.724796  0  1.995233  0  0  -0.674142  0  2.247027  0  0  -0.698145  0  2.235872  0  0  -0.41676  -0.657434  0  2.254726  0
O  O78  1  0.50339273  0.77830293  0.70874276  1  0  -0.724699  0  1.995347  0  0  -0.674069  0  2.247092  0  0  -0.698067  0  2.235945  0  0  -0.416709  -0.657361  0  2.254787  0
O  O79  1  0.99660428  0.22169170  0.20874539  1  0  -0.724953  0  1.994938  0  0  -0.674351  0  2.246712  0  0  -0.698353  0  2.235561  0  0  -0.416889  -0.657639  0  2.254409  0
O  O80  1  0.57674764  0.05450116  0.82001658  1  0  -0.757433  0  2.057577  0  0  -0.703289  0  2.308334  0  0  -0.726892  0  2.294582  0  0  -0.395267  -0.686831  0  2.317722  0
O  O81  1  0.92324953  0.94550806  0.32001520  1  0  -0.757309  0  2.057407  0  0  -0.703143  0  2.308178  0  0  -0.726742  0  2.294409  0  0  -0.395122  -0.686676  0  2.317566  0
O  O82  1  0.42325372  0.55449258  0.67998490  1  0  -0.757318  0  2.057446  0  0  -0.703168  0  2.308188  0  0  -0.726764  0  2.294427  0  0  -0.395156  -0.686703  0  2.317576  0
O  O83  1  0.07674703  0.44549886  0.17998296  1  0  -0.757422  0  2.057553  0  0  -0.703287  0  2.308317  0  0  -0.726883  0  2.294557  0  0  -0.395274  -0.686828  0  2.317709  0
O  O84  1  0.52538927  0.97102133  0.01394549  1  0  -0.784468  0  2.0645  0  0  -0.724913  0  2.309848  0  0  -0.747555  0  2.299605  0  0  -0.422214  -0.708944  0  2.316058  0
O  O85  1  0.97461032  0.02898196  0.51394492  1  0  -0.784453  0  2.06455  0  0  -0.724897  0  2.309886  0  0  -0.747541  0  2.299647  0  0  -0.4222  -0.708925  0  2.316093  0
O  O86  1  0.47462164  0.47101789  0.48605478  1  0  -0.784545  0  2.06457  0  0  -0.725008  0  2.309893  0  0  -0.747654  0  2.299653  0  0  -0.422238  -0.709036  0  2.316108  0
O  O87  1  0.02539093  0.52897843  0.98605445  1  0  -0.784524  0  2.06453  0  0  -0.724932  0  2.309883  0  0  -0.747575  0  2.29964  0  0  -0.422219  -0.708965  0  2.316094  0
O  O88  1  0.80393341  0.88088284  0.13595038  1  0  -0.941777  0  1.892277  0  0  -0.89794  0  2.092432  0  0  -0.914629  0  2.058066  0  0  -0.653326  -0.886476  0  2.116669  0
O  O89  1  0.69606635  0.11911608  0.63594750  1  0  -0.941686  0  1.892293  0  0  -0.897879  0  2.092428  0  0  -0.914549  0  2.0581  0  0  -0.653294  -0.886418  0  2.116663  0
O  O90  1  0.19606430  0.38088526  0.36405351  1  0  -0.941763  0  1.892228  0  0  -0.89801  0  2.092322  0  0  -0.91468  0  2.057992  0  0  -0.653332  -0.886552  0  2.116556  0
O  O91  1  0.30393242  0.61911964  0.86404896  1  0  -0.941799  0  1.892217  0  0  -0.897984  0  2.09242  0  0  -0.914671  0  2.058053  0  0  -0.653325  -0.88652  0  2.116657  0
O  O92  1  0.23771464  0.90319850  0.16362458  1  0  -0.901836  0  1.893912  0  0  -0.858742  0  2.098373  0  0  -0.874967  0  2.067228  0  0  -0.63021  -0.847187  0  2.12021  0
O  O93  1  0.26228323  0.09679928  0.66362245  1  0  -0.90181  0  1.894058  0  0  -0.858717  0  2.09842  0  0  -0.874942  0  2.067273  0  0  -0.630158  -0.847144  0  2.120221  0
O  O94  1  0.76228032  0.40320010  0.33637858  1  0  -0.901825  0  1.89401  0  0  -0.858721  0  2.098393  0  0  -0.874947  0  2.067248  0  0  -0.630169  -0.847138  0  2.120185  0
O  O95  1  0.73771687  0.59680067  0.83637545  1  0  -0.901793  0  1.893923  0  0  -0.858693  0  2.098368  0  0  -0.874918  0  2.067222  0  0  -0.630185  -0.847134  0  2.1202  0
