# generated using pymatgen
data_InPH6C6NO5
_symmetry_space_group_name_H-M   'P 1'
_cell_length_a   9.14938897
_cell_length_b   9.06332003
_cell_length_c   11.94868534
_cell_angle_alpha   90.00021986
_cell_angle_beta   98.03365800
_cell_angle_gamma   90.00071310
_symmetry_Int_Tables_number   1
_chemical_formula_structural   InPH6C6NO5
_chemical_formula_sum   'In4 P4 H24 C24 N4 O20'
_cell_volume   981.10700042
_cell_formula_units_Z   4
loop_
 _symmetry_equiv_pos_site_id
 _symmetry_equiv_pos_as_xyz
  1  'x, y, z'
loop_
 _atom_site_type_symbol
 _atom_site_label
 _atom_site_symmetry_multiplicity
 _atom_site_fract_x
 _atom_site_fract_y
 _atom_site_fract_z
 _atom_site_occupancy
 _atom_site_hle17_bader_spin_density
 _atom_site_hle17_ddec_charge
 _atom_site_hle17_ddec_spin_density
 _atom_site_hle17_ddec_sum_bond_order
 _atom_site_hle17_magmom
 _atom_site_hse06_10hf_bader_spin_density
 _atom_site_hse06_10hf_ddec_charge
 _atom_site_hse06_10hf_ddec_spin_density
 _atom_site_hse06_10hf_ddec_sum_bond_order
 _atom_site_hse06_10hf_magmom
 _atom_site_hse06_bader_spin_density
 _atom_site_hse06_ddec_charge
 _atom_site_hse06_ddec_spin_density
 _atom_site_hse06_ddec_sum_bond_order
 _atom_site_hse06_magmom
 _atom_site_pbe_bader_spin_density
 _atom_site_pbe_cm5_charge
 _atom_site_pbe_ddec_charge
 _atom_site_pbe_ddec_spin_density
 _atom_site_pbe_ddec_sum_bond_order
 _atom_site_pbe_magmom
In  In0  1  0.11410744  0.22658262  0.60672651  1  0  1.68674  0  2.297013  0  0  1.502856  0  2.774587  0  0  1.563607  0  2.723268  0  0  0.797493  1.460165  0  2.809312  0
In  In1  1  0.88588409  0.72659248  0.89328280  1  0  1.686617  0  2.296876  0  0  1.50274  0  2.77443  0  0  1.563489  0  2.723117  0  0  0.797475  1.460048  0  2.809151  0
In  In2  1  0.88587456  0.77339961  0.39327845  1  0  1.686717  0  2.296932  0  0  1.502795  0  2.774507  0  0  1.563534  0  2.723193  0  0  0.797462  1.460093  0  2.809228  0
In  In3  1  0.11407574  0.27339968  0.10671328  1  0  1.686737  0  2.297008  0  0  1.502772  0  2.77459  0  0  1.563517  0  2.723269  0  0  0.797394  1.460076  0  2.809315  0
P  P4  1  0.04389271  0.40802847  0.84178944  1  0  1.470586  0  4.918901  0  0  1.278702  0  5.439552  0  0  1.332492  0  5.398296  0  0  0.312997  1.241186  0  5.467448  0
P  P5  1  0.95611425  0.90802469  0.65820434  1  0  1.470591  0  4.918645  0  0  1.278712  0  5.439292  0  0  1.332498  0  5.398039  0  0  0.312995  1.241196  0  5.467188  0
P  P6  1  0.95611343  0.59198135  0.15820870  1  0  1.470585  0  4.918737  0  0  1.278668  0  5.439398  0  0  1.332462  0  5.39814  0  0  0.313009  1.241145  0  5.467294  0
P  P7  1  0.04388081  0.09197961  0.34178936  1  0  1.470455  0  4.918859  0  0  1.278554  0  5.439518  0  0  1.332344  0  5.39826  0  0  0.312886  1.241032  0  5.467415  0
H  H8  1  0.91818800  0.31664452  0.83772265  1  0  -0.156583  0  0.893709  0  0  -0.125811  0  0.98055  0  0  -0.129017  0  0.975076  0  0  0.089638  -0.123914  0  0.984682  0
H  H9  1  0.08181102  0.81664670  0.66226507  1  0  -0.156555  0  0.893684  0  0  -0.125776  0  0.980507  0  0  -0.12898  0  0.975032  0  0  0.089643  -0.123878  0  0.984639  0
H  H10  1  0.08181159  0.68336640  0.16227987  1  0  -0.156549  0  0.893694  0  0  -0.125779  0  0.980546  0  0  -0.128987  0  0.975077  0  0  0.089665  -0.123872  0  0.984672  0
H  H11  1  0.91818509  0.18334988  0.33772539  1  0  -0.156553  0  0.893764  0  0  -0.125774  0  0.980604  0  0  -0.12898  0  0.975129  0  0  0.089657  -0.123869  0  0.984732  0
H  H12  1  0.41172349  0.19830534  0.50439254  1  0  0.084604  0  0.937005  0  0  0.093739  0  1.000171  0  0  0.09588  0  0.998513  0  0  0.123754  0.092019  0  1.001564  0
H  H13  1  0.58830386  0.69830661  0.99560599  1  0  0.08459  0  0.936899  0  0  0.093776  0  1.000036  0  0  0.095921  0  0.998371  0  0  0.123688  0.09205  0  1.00143  0
H  H14  1  0.58827600  0.80169676  0.49560327  1  0  0.08458  0  0.937004  0  0  0.093743  0  1.000136  0  0  0.095856  0  0.998509  0  0  0.123745  0.092022  0  1.00153  0
H  H15  1  0.41171998  0.30169549  0.00439640  1  0  0.084624  0  0.937012  0  0  0.093766  0  1.000174  0  0  0.095899  0  0.998524  0  0  0.123767  0.092044  0  1.001568  0
H  H16  1  0.30625633  0.12195384  0.82580567  1  0  0.091814  0  0.939817  0  0  0.097434  0  1.007731  0  0  0.100466  0  1.004199  0  0  0.123273  0.095187  0  1.010272  0
H  H17  1  0.69374674  0.62193924  0.67418523  1  0  0.09177  0  0.939904  0  0  0.097392  0  1.007821  0  0  0.100425  0  1.004288  0  0  0.123244  0.095145  0  1.010361  0
H  H18  1  0.69372990  0.87804164  0.17418716  1  0  0.091858  0  0.939896  0  0  0.097471  0  1.007792  0  0  0.100503  0  1.004263  0  0  0.123281  0.095226  0  1.010332  0
H  H19  1  0.30626156  0.37804631  0.32580977  1  0  0.091802  0  0.939912  0  0  0.097419  0  1.007844  0  0  0.10045  0  1.004314  0  0  0.12324  0.095172  0  1.010385  0
H  H20  1  0.57312624  0.07622077  0.90390584  1  0  0.112642  0  0.94472  0  0  0.121895  0  1.003054  0  0  0.125387  0  1.001934  0  0  0.109907  0.119366  0  1.00405  0
H  H21  1  0.42686983  0.57621134  0.59610098  1  0  0.112644  0  0.944783  0  0  0.121902  0  1.003116  0  0  0.125395  0  1.001995  0  0  0.109922  0.11937  0  1.004117  0
H  H22  1  0.42686120  0.92378464  0.09609464  1  0  0.112657  0  0.944646  0  0  0.12191  0  1.002993  0  0  0.125406  0  1.001862  0  0  0.10996  0.119381  0  1.003991  0
H  H23  1  0.57313542  0.42377641  0.40391130  1  0  0.112648  0  0.944736  0  0  0.121897  0  1.003084  0  0  0.125391  0  1.001958  0  0  0.109931  0.119365  0  1.004082  0
H  H24  1  0.76416034  0.10400390  0.77384522  1  0  0.105953  0  0.954362  0  0  0.114204  0  1.017994  0  0  0.11657  0  1.015787  0  0  0.111347  0.112401  0  1.019603  0
H  H25  1  0.23585381  0.60400939  0.72616597  1  0  0.10593  0  0.954386  0  0  0.114196  0  1.018014  0  0  0.116559  0  1.015804  0  0  0.111322  0.112394  0  1.019625  0
H  H26  1  0.23583823  0.89600040  0.22616222  1  0  0.105959  0  0.954454  0  0  0.114186  0  1.018075  0  0  0.116549  0  1.015865  0  0  0.111342  0.112387  0  1.019688  0
H  H27  1  0.76415912  0.39599381  0.27384371  1  0  0.105929  0  0.95449  0  0  0.114213  0  1.018057  0  0  0.116579  0  1.01585  0  0  0.111356  0.112409  0  1.019667  0
H  H28  1  0.68389059  0.16586541  0.57099499  1  0  0.122847  0  0.940969  0  0  0.13209  0  0.998436  0  0  0.135776  0  0.996787  0  0  0.114713  0.129424  0  0.99981  0
H  H29  1  0.31613096  0.66587295  0.92901376  1  0  0.122826  0  0.940927  0  0  0.13209  0  0.99837  0  0  0.135775  0  0.996722  0  0  0.114703  0.129424  0  0.999744  0
H  H30  1  0.31611016  0.83413999  0.42901098  1  0  0.122914  0  0.941027  0  0  0.132153  0  0.998495  0  0  0.135837  0  0.99685  0  0  0.114762  0.129487  0  0.999867  0
H  H31  1  0.68389073  0.33413686  0.07099261  1  0  0.122812  0  0.941029  0  0  0.132055  0  0.998502  0  0  0.13574  0  0.996855  0  0  0.114701  0.12939  0  0.999874  0
C  C32  1  0.91994827  0.47634231  0.50858339  1  0  0.543139  0  3.896732  0  0  0.497025  0  4.194861  0  0  0.527409  0  4.187829  0  0  0.231889  0.476349  0  4.19911  0
C  C33  1  0.08004764  0.97634952  0.99142122  1  0  0.542837  0  3.897368  0  0  0.496716  0  4.195446  0  0  0.527098  0  4.18842  0  0  0.231654  0.476041  0  4.199689  0
C  C34  1  0.08005896  0.52364985  0.49141402  1  0  0.543149  0  3.896962  0  0  0.497016  0  4.195069  0  0  0.527399  0  4.188035  0  0  0.231847  0.476339  0  4.199319  0
C  C35  1  0.91994213  0.02365037  0.00858786  1  0  0.543104  0  3.897011  0  0  0.49704  0  4.195007  0  0  0.527424  0  4.18797  0  0  0.231817  0.476363  0  4.199259  0
C  C36  1  0.45377392  0.17410278  0.59239610  1  0  0.12407  0  3.709029  0  0  0.091284  0  3.958148  0  0  0.098901  0  3.977885  0  0  0.05621  0.086551  0  3.944614  0
C  C37  1  0.54625089  0.67410086  0.90760128  1  0  0.124228  0  3.708845  0  0  0.091331  0  3.958022  0  0  0.098947  0  3.977761  0  0  0.056338  0.086608  0  3.944484  0
C  C38  1  0.54622231  0.82589380  0.40760190  1  0  0.124021  0  3.708981  0  0  0.091221  0  3.958087  0  0  0.098862  0  3.977824  0  0  0.056185  0.086486  0  3.944553  0
C  C39  1  0.45376959  0.32590234  0.09239743  1  0  0.124037  0  3.708928  0  0  0.091228  0  3.958062  0  0  0.098854  0  3.977798  0  0  0.056146  0.086499  0  3.944531  0
C  C40  1  0.39395232  0.12922088  0.77283125  1  0  0.134048  0  3.691826  0  0  0.101701  0  3.939846  0  0  0.109715  0  3.958314  0  0  0.059682  0.096593  0  3.927243  0
C  C41  1  0.60604974  0.62920991  0.72715957  1  0  0.134102  0  3.692054  0  0  0.101755  0  3.940073  0  0  0.109767  0  3.958547  0  0  0.05967  0.096651  0  3.927467  0
C  C42  1  0.60604060  0.87078783  0.22716726  1  0  0.133857  0  3.691766  0  0  0.101533  0  3.939756  0  0  0.109543  0  3.95823  0  0  0.059468  0.096425  0  3.927153  0
C  C43  1  0.39395743  0.37079329  0.27283365  1  0  0.133908  0  3.691885  0  0  0.101548  0  3.939912  0  0  0.109558  0  3.958384  0  0  0.059497  0.096443  0  3.927307  0
C  C44  1  0.54145156  0.10592579  0.81547077  1  0  -0.124411  0  3.719733  0  0  -0.133374  0  3.96491  0  0  -0.142131  0  3.987464  0  0  -0.078694  -0.12776  0  3.949729  0
C  C45  1  0.45855805  0.60592825  0.68452994  1  0  -0.124451  0  3.720023  0  0  -0.133415  0  3.965227  0  0  -0.142171  0  3.987776  0  0  -0.078668  -0.127801  0  3.950047  0
C  C46  1  0.45854246  0.89407189  0.18452701  1  0  -0.124317  0  3.719538  0  0  -0.133325  0  3.964708  0  0  -0.142079  0  3.987259  0  0  -0.078688  -0.127711  0  3.94953  0
C  C47  1  0.54145480  0.39407936  0.31547472  1  0  -0.124317  0  3.719615  0  0  -0.133296  0  3.964809  0  0  -0.142049  0  3.987362  0  0  -0.078672  -0.127681  0  3.949629  0
C  C48  1  0.64782797  0.12105536  0.74315498  1  0  0.026936  0  3.671628  0  0  0.006083  0  3.918655  0  0  0.011042  0  3.937005  0  0  -0.053247  0.003172  0  3.906133  0
C  C49  1  0.35218418  0.62105250  0.75685439  1  0  0.027126  0  3.671426  0  0  0.006222  0  3.918507  0  0  0.01119  0  3.936848  0  0  -0.053243  0.003306  0  3.905988  0
C  C50  1  0.35217169  0.87895225  0.25685173  1  0  0.02691  0  3.671645  0  0  0.006144  0  3.918614  0  0  0.01111  0  3.936959  0  0  -0.053202  0.003224  0  3.906099  0
C  C51  1  0.64782869  0.37893967  0.24315111  1  0  0.02689  0  3.67163  0  0  0.00605  0  3.918615  0  0  0.011007  0  3.936966  0  0  -0.053259  0.003139  0  3.906092  0
C  C52  1  0.60337472  0.15466058  0.62948771  1  0  -0.115443  0  3.706594  0  0  -0.126363  0  3.954065  0  0  -0.134657  0  3.975497  0  0  -0.076028  -0.121103  0  3.939682  0
C  C53  1  0.39664554  0.65466327  0.87051837  1  0  -0.115719  0  3.706569  0  0  -0.126606  0  3.954064  0  0  -0.134904  0  3.975497  0  0  -0.076097  -0.121345  0  3.939678  0
C  C54  1  0.39661829  0.84534483  0.37051667  1  0  -0.115449  0  3.706694  0  0  -0.12642  0  3.954195  0  0  -0.134715  0  3.975613  0  0  -0.076047  -0.121158  0  3.939813  0
C  C55  1  0.60337613  0.34534214  0.12948632  1  0  -0.11543  0  3.706527  0  0  -0.126367  0  3.954018  0  0  -0.134664  0  3.975447  0  0  -0.076046  -0.121106  0  3.939632  0
N  N56  1  0.35181408  0.16361722  0.66323709  1  0  -0.3549  0  3.293813  0  0  -0.273312  0  3.547505  0  0  -0.29511  0  3.568783  0  0  -0.305966  -0.258632  0  3.532732  0
N  N57  1  0.64820067  0.66360955  0.83676010  1  0  -0.35479  0  3.293544  0  0  -0.27316  0  3.547241  0  0  -0.29496  0  3.568525  0  0  -0.30589  -0.258481  0  3.532465  0
N  N58  1  0.64818553  0.83638046  0.33676626  1  0  -0.354805  0  3.293643  0  0  -0.273203  0  3.547296  0  0  -0.294998  0  3.568562  0  0  -0.305849  -0.258521  0  3.532525  0
N  N59  1  0.35180764  0.33638813  0.16323490  1  0  -0.354832  0  3.293582  0  0  -0.273226  0  3.547256  0  0  -0.295022  0  3.568532  0  0  -0.305797  -0.258546  0  3.532483  0
O  O60  1  0.14312241  0.34836308  0.75945399  1  0  -0.86266  0  2.083149  0  0  -0.7732  0  2.371117  0  0  -0.803626  0  2.352761  0  0  -0.358118  -0.751637  0  2.38303  0
O  O61  1  0.85688038  0.84836185  0.74053587  1  0  -0.862571  0  2.082882  0  0  -0.773184  0  2.370922  0  0  -0.803601  0  2.352555  0  0  -0.358039  -0.751621  0  2.382831  0
O  O62  1  0.85687044  0.65163019  0.24053949  1  0  -0.862621  0  2.083046  0  0  -0.773186  0  2.371064  0  0  -0.803607  0  2.352694  0  0  -0.358111  -0.751622  0  2.382976  0
O  O63  1  0.14311904  0.15164025  0.25945491  1  0  -0.86265  0  2.082987  0  0  -0.773168  0  2.370984  0  0  -0.803589  0  2.352625  0  0  -0.358063  -0.751603  0  2.382897  0
O  O64  1  0.98957847  0.56363934  0.80478511  1  0  -0.853185  0  2.002177  0  0  -0.763482  0  2.286082  0  0  -0.792779  0  2.264957  0  0  -0.358879  -0.742743  0  2.29989  0
O  O65  1  0.01042498  0.06363642  0.69520984  1  0  -0.853208  0  2.002244  0  0  -0.763495  0  2.286142  0  0  -0.792793  0  2.265016  0  0  -0.358916  -0.742756  0  2.299951  0
O  O66  1  0.01042783  0.43637268  0.19522308  1  0  -0.85317  0  2.002064  0  0  -0.763418  0  2.285928  0  0  -0.792718  0  2.264802  0  0  -0.358816  -0.742674  0  2.299735  0
O  O67  1  0.98956786  0.93636567  0.30478280  1  0  -0.853065  0  2.002074  0  0  -0.763418  0  2.286013  0  0  -0.792715  0  2.264887  0  0  -0.358789  -0.742675  0  2.299821  0
O  O68  1  0.12615942  0.40576853  0.96302824  1  0  -0.873765  0  2.05818  0  0  -0.785225  0  2.346435  0  0  -0.813625  0  2.32432  0  0  -0.357831  -0.765097  0  2.360916  0
O  O69  1  0.87384648  0.90576201  0.53697045  1  0  -0.873899  0  2.058304  0  0  -0.785329  0  2.346544  0  0  -0.813728  0  2.32443  0  0  -0.357915  -0.765197  0  2.361016  0
O  O70  1  0.87385991  0.59422474  0.03696701  1  0  -0.873758  0  2.058133  0  0  -0.785212  0  2.346396  0  0  -0.813613  0  2.324279  0  0  -0.357915  -0.765092  0  2.360891  0
O  O71  1  0.12613876  0.09422905  0.46302981  1  0  -0.873713  0  2.05806  0  0  -0.785162  0  2.346323  0  0  -0.813562  0  2.324205  0  0  -0.357875  -0.765042  0  2.360819  0
O  O72  1  0.90293832  0.34787504  0.54687233  1  0  -0.583237  0  2.029552  0  0  -0.528672  0  2.269823  0  0  -0.554012  0  2.260221  0  0  -0.270792  -0.511103  0  2.275884  0
O  O73  1  0.09706234  0.84789439  0.95312233  1  0  -0.583013  0  2.02989  0  0  -0.528436  0  2.270141  0  0  -0.553775  0  2.260547  0  0  -0.270605  -0.510865  0  2.276198  0
O  O74  1  0.09705558  0.65211492  0.45311707  1  0  -0.583332  0  2.029635  0  0  -0.52864  0  2.269809  0  0  -0.553977  0  2.260207  0  0  -0.270754  -0.511069  0  2.275869  0
O  O75  1  0.90292398  0.15211874  0.04687636  1  0  -0.583418  0  2.029709  0  0  -0.528775  0  2.269916  0  0  -0.554115  0  2.260309  0  0  -0.270805  -0.511202  0  2.275979  0
O  O76  1  0.81673720  0.56861244  0.48259920  1  0  -0.579179  0  2.028039  0  0  -0.527556  0  2.272174  0  0  -0.55227  0  2.262852  0  0  -0.271315  -0.5104  0  2.278036  0
O  O77  1  0.18325668  0.06862943  0.01739540  1  0  -0.579036  0  2.028192  0  0  -0.527396  0  2.272287  0  0  -0.55211  0  2.262971  0  0  -0.27119  -0.510248  0  2.27817  0
O  O78  1  0.18326328  0.43136979  0.51738834  1  0  -0.579186  0  2.028127  0  0  -0.5276  0  2.272288  0  0  -0.552315  0  2.262967  0  0  -0.271319  -0.510449  0  2.278163  0
O  O79  1  0.81673421  0.93138039  0.98261463  1  0  -0.579024  0  2.028176  0  0  -0.527466  0  2.272293  0  0  -0.552178  0  2.262972  0  0  -0.271231  -0.510323  0  2.278182  0
