# generated using pymatgen
data_AlH9(C5O2)3
_symmetry_space_group_name_H-M   'P 1'
_cell_length_a   13.00116866
_cell_length_b   13.00076017
_cell_length_c   27.74402295
_cell_angle_alpha   103.55000701
_cell_angle_beta   103.54772692
_cell_angle_gamma   90.00465233
_symmetry_Int_Tables_number   1
_chemical_formula_structural   AlH9(C5O2)3
_chemical_formula_sum   'Al8 H72 C120 O48'
_cell_volume   4424.55615389
_cell_formula_units_Z   8
loop_
 _symmetry_equiv_pos_site_id
 _symmetry_equiv_pos_as_xyz
  1  'x, y, z'
loop_
 _atom_site_type_symbol
 _atom_site_label
 _atom_site_symmetry_multiplicity
 _atom_site_fract_x
 _atom_site_fract_y
 _atom_site_fract_z
 _atom_site_occupancy
 _atom_site_pbe_bader_charge
 _atom_site_pbe_bader_spin_density
 _atom_site_pbe_cm5_charge
 _atom_site_pbe_ddec_charge
 _atom_site_pbe_ddec_spin_density
 _atom_site_pbe_ddec_sum_bond_order
 _atom_site_pbe_magmom
Al  Al0  1  0.49999987  0.00000049  0.00000025  1  2.498827  0  0.392648  1.637084  0  2.594442  0
Al  Al1  1  0.00000000  0.00000000  0.00000000  1  2.498366  0  0.392761  1.636593  0  2.593665  0
Al  Al2  1  0.00000003  0.50000011  0.50000045  1  2.501543  0  0.392865  1.637202  0  2.594929  0
Al  Al3  1  0.00000032  0.00000033  0.50000025  1  2.49968  0  0.392329  1.636651  0  2.595225  0
Al  Al4  1  0.75656504  0.00655556  0.01311761  1  2.498154  0  0.396266  1.639739  0  2.582153  0
Al  Al5  1  0.00655632  0.75654332  0.51310145  1  2.498829  0  0.395796  1.637799  0  2.584117  0
Al  Al6  1  0.24343506  0.99344553  0.98688253  1  2.498111  0  0.396259  1.63965  0  2.582229  0
Al  Al7  1  0.99344336  0.24345703  0.48689905  1  2.498825  0  0.3958  1.637874  0  2.584038  0
H  H8  1  0.62519443  0.86562249  0.99864490  1  0.628537  0  0.357124  0.434969  0  0.84538  0
H  H9  1  0.87339771  0.13307027  0.99862269  1  0.627182  0  0.356908  0.43493  0  0.844944  0
H  H10  1  0.13302916  0.62517708  0.49861758  1  0.623836  0  0.357096  0.435049  0  0.84461  0
H  H11  1  0.86560424  0.87339401  0.49864053  1  0.627098  0  0.357258  0.434998  0  0.845892  0
H  H12  1  0.37480476  0.13437873  0.00135446  1  0.628555  0  0.357152  0.435027  0  0.845368  0
H  H13  1  0.12660240  0.86692936  0.00137759  1  0.627184  0  0.356928  0.434948  0  0.8449  0
H  H14  1  0.86697211  0.37482480  0.50138373  1  0.623831  0  0.357146  0.435162  0  0.844485  0
H  H15  1  0.13439559  0.12660788  0.50135934  1  0.627105  0  0.35727  0.435008  0  0.84588  0
H  H16  1  0.76494986  0.07042138  0.88184230  1  0.099848  0  0.107919  0.108607  0  1.012385  0
H  H17  1  0.61684523  0.81133183  0.88182312  1  0.075146  0  0.107639  0.108174  0  1.01232  0
H  H18  1  0.81143490  0.76498035  0.38183447  1  0.099308  0  0.107579  0.108269  0  1.013073  0
H  H19  1  0.07039013  0.61683872  0.38181992  1  0.10622  0  0.10765  0.108131  0  1.013004  0
H  H20  1  0.23505067  0.92957725  0.11815667  1  0.099908  0  0.107918  0.108618  0  1.012408  0
H  H21  1  0.38315355  0.18866694  0.11817649  1  0.075081  0  0.107632  0.108168  0  1.012326  0
H  H22  1  0.18856618  0.23501991  0.61816585  1  0.099313  0  0.10759  0.108281  0  1.013044  0
H  H23  1  0.92961235  0.38316145  0.61818022  1  0.106433  0  0.107652  0.108112  0  1.013035  0
H  H24  1  0.75235633  0.05741884  0.78894801  1  0.091957  0  0.105814  0.105872  0  1.00578  0
H  H25  1  0.53662450  0.73145290  0.78888883  1  0.112237  0  0.105934  0.106407  0  1.003472  0
H  H26  1  0.73160109  0.75234932  0.28892467  1  0.098437  0  0.10581  0.105499  0  1.00515  0
H  H27  1  0.05735124  0.53660100  0.28889818  1  0.070267  0  0.10599  0.105891  0  1.004836  0
H  H28  1  0.24764307  0.94257909  0.21105142  1  0.091978  0  0.105827  0.105889  0  1.005737  0
H  H29  1  0.46337471  0.26854661  0.21111041  1  0.112264  0  0.105921  0.106388  0  1.003472  0
H  H30  1  0.26840087  0.24765247  0.71107573  1  0.098451  0  0.105812  0.105499  0  1.005143  0
H  H31  1  0.94265027  0.46340000  0.71110178  1  0.070246  0  0.106005  0.105912  0  1.00481  0
H  H32  1  0.41197210  0.02676748  0.75917160  1  0.100321  0  0.105453  0.103441  0  1.01182  0
H  H33  1  0.84723913  0.73237450  0.75915741  1  0.07323  0  0.105418  0.103389  0  1.012916  0
H  H34  1  0.73246952  0.41198247  0.25914287  1  0.097244  0  0.105204  0.103538  0  1.011604  0
H  H35  1  0.02671659  0.84723619  0.25915651  1  0.065543  0  0.105685  0.103802  0  1.012847  0
H  H36  1  0.58802915  0.97323115  0.24082810  1  0.100315  0  0.105448  0.103433  0  1.01183  0
H  H37  1  0.15275875  0.26762585  0.24084129  1  0.073232  0  0.105397  0.103361  0  1.012996  0
H  H38  1  0.26753271  0.58801853  0.74085780  1  0.097217  0  0.105214  0.103534  0  1.011569  0
H  H39  1  0.97328036  0.15276509  0.74084364  1  0.065553  0  0.105713  0.103834  0  1.01283  0
H  H40  1  0.42549953  0.03812850  0.85147752  1  0.108449  0  0.113934  0.120492  0  0.982057  0
H  H41  1  0.92594686  0.81325219  0.85143640  1  0.088741  0  0.114303  0.121054  0  0.982463  0
H  H42  1  0.81332942  0.42546974  0.35143039  1  0.103906  0  0.114076  0.120281  0  0.982535  0
H  H43  1  0.03808917  0.92595179  0.35146075  1  0.089737  0  0.114141  0.120735  0  0.982186  0
H  H44  1  0.57449996  0.96187022  0.14852200  1  0.108452  0  0.113939  0.120506  0  0.982048  0
H  H45  1  0.07405154  0.18674653  0.14856203  1  0.088799  0  0.114279  0.121018  0  0.982475  0
H  H46  1  0.18667210  0.57453131  0.64857038  1  0.103912  0  0.114098  0.120313  0  0.982546  0
H  H47  1  0.96190866  0.07404786  0.64853949  1  0.089762  0  0.114108  0.120699  0  0.982123  0
H  H48  1  0.47623613  0.14082705  0.64681679  1  0.09345  0  0.111349  0.11537  0  0.981256  0
H  H49  1  0.67058419  0.50601850  0.64684002  1  0.066059  0  0.11131  0.114813  0  0.980476  0
H  H50  1  0.50607498  0.47630503  0.14682828  1  0.096184  0  0.111124  0.114784  0  0.980225  0
H  H51  1  0.14080193  0.67062545  0.14684572  1  0.091186  0  0.110946  0.114673  0  0.980521  0
H  H52  1  0.52376405  0.85917162  0.35318264  1  0.093439  0  0.111353  0.115366  0  0.981245  0
H  H53  1  0.32942037  0.49398087  0.35316219  1  0.066076  0  0.111288  0.11482  0  0.980392  0
H  H54  1  0.49392412  0.52369303  0.85317323  1  0.096147  0  0.111129  0.11478  0  0.980267  0
H  H55  1  0.85919757  0.32937648  0.85315460  1  0.09118  0  0.110935  0.114645  0  0.980534  0
H  H56  1  0.30135924  0.09244123  0.58358396  1  0.073062  0  0.107832  0.108533  0  1.001107  0
H  H57  1  0.78223641  0.49112710  0.58358956  1  0.086671  0  0.108246  0.108436  0  1.002645  0
H  H58  1  0.49116508  0.30137726  0.08358550  1  0.093727  0  0.108678  0.109177  0  1.002085  0
H  H59  1  0.09253893  0.78222378  0.08363004  1  0.079362  0  0.107861  0.108299  0  1.001697  0
H  H60  1  0.69864094  0.90755745  0.41641546  1  0.072954  0  0.107831  0.108528  0  1.001123  0
H  H61  1  0.21776630  0.50887158  0.41641239  1  0.086403  0  0.108237  0.10843  0  1.002681  0
H  H62  1  0.50883648  0.69862067  0.91641609  1  0.093845  0  0.108633  0.109116  0  1.002114  0
H  H63  1  0.90746171  0.21777568  0.91636984  1  0.079362  0  0.107876  0.108343  0  1.001697  0
H  H64  1  0.27889153  0.80040688  0.62869373  1  0.119277  0  0.113867  0.120339  0  0.986074  0
H  H65  1  0.84985749  0.82828689  0.62870126  1  0.145068  0  0.113984  0.120169  0  0.986422  0
H  H66  1  0.82828152  0.27890178  0.12867882  1  0.112153  0  0.113756  0.119966  0  0.986372  0
H  H67  1  0.80044584  0.84988206  0.12869138  1  0.129929  0  0.114033  0.120591  0  0.985415  0
H  H68  1  0.72110773  0.19959273  0.37130714  1  0.119408  0  0.113878  0.120359  0  0.98609  0
H  H69  1  0.15013483  0.17171453  0.37129664  1  0.145043  0  0.113968  0.120165  0  0.986411  0
H  H70  1  0.17171757  0.72110007  0.87131951  1  0.112155  0  0.113776  0.119992  0  0.98629  0
H  H71  1  0.19955391  0.15011904  0.87130840  1  0.129946  0  0.114047  0.120607  0  0.985397  0
H  H72  1  0.44985725  0.85048530  0.69408648  1  0.075428  0  0.104911  0.109534  0  1.004702  0
H  H73  1  0.74425152  0.84359941  0.69411934  1  0.073972  0  0.105286  0.109633  0  1.003961  0
H  H74  1  0.84364887  0.44993354  0.19407940  1  0.061005  0  0.104907  0.109202  0  1.004084  0
H  H75  1  0.85047789  0.74426574  0.19411353  1  0.08049  0  0.105109  0.109675  0  1.004786  0
H  H76  1  0.55014146  0.14951589  0.30591385  1  0.075449  0  0.104887  0.109459  0  1.00466  0
H  H77  1  0.25574177  0.15640117  0.30587874  1  0.074076  0  0.105256  0.109624  0  1.003942  0
H  H78  1  0.15635270  0.55006821  0.80591983  1  0.060982  0  0.104915  0.109218  0  1.004088  0
H  H79  1  0.14952345  0.25573690  0.80588705  1  0.080567  0  0.105112  0.109667  0  1.00478  0
C  C80  1  0.60281587  0.05288907  0.92611479  1  1.577839  0  0.263207  0.627536  0  4.122603  0
C  C81  1  0.82330228  0.87319670  0.92612022  1  1.579263  0  0.26398  0.628941  0  4.114433  0
C  C82  1  0.87317626  0.60281547  0.42611477  1  1.571527  0  0.264056  0.629366  0  4.117568  0
C  C83  1  0.05287635  0.82328765  0.42610489  1  1.586969  0  0.262953  0.628139  0  4.118306  0
C  C84  1  0.39718422  0.94711198  0.07388454  1  1.577905  0  0.263185  0.627429  0  4.122691  0
C  C85  1  0.17669685  0.12680202  0.07387894  1  1.579025  0  0.264045  0.629041  0  4.114261  0
C  C86  1  0.12682474  0.39718400  0.57388547  1  1.571534  0  0.264052  0.629287  0  4.117689  0
C  C87  1  0.94712430  0.17671186  0.57389580  1  1.586919  0  0.263  0.628174  0  4.118162  0
C  C88  1  0.59571214  0.05483776  0.87182748  1  -0.062456  0  -0.006178  -0.030972  0  3.95436  0
C  C89  1  0.77610079  0.81695306  0.87182896  1  -0.059537  0  -0.005663  -0.029554  0  3.949512  0
C  C90  1  0.81691897  0.59571904  0.37183426  1  -0.072916  0  -0.006227  -0.029966  0  3.950368  0
C  C91  1  0.05487287  0.77610114  0.37182671  1  -0.049876  0  -0.006644  -0.030636  0  3.951568  0
C  C92  1  0.40428867  0.94516329  0.12817257  1  -0.062715  0  -0.006109  -0.030814  0  3.954326  0
C  C93  1  0.22389879  0.18304645  0.12817065  1  -0.05953  0  -0.005653  -0.02961  0  3.949538  0
C  C94  1  0.18308177  0.40428126  0.62816652  1  -0.072978  0  -0.006198  -0.029858  0  3.950386  0
C  C95  1  0.94512829  0.22389990  0.62817370  1  -0.049643  0  -0.00666  -0.030625  0  3.951603  0
C  C96  1  0.68820062  0.06142169  0.85456407  1  0.003693  0  -0.077792  -0.088537  0  3.963976  0
C  C97  1  0.66633265  0.79307006  0.85454403  1  0.054526  0  -0.078083  -0.0888  0  3.963305  0
C  C98  1  0.79306465  0.68821955  0.35456593  1  0.018453  0  -0.0776  -0.089522  0  3.963992  0
C  C99  1  0.06146954  0.66633448  0.35454967  1  -0.00176  0  -0.077561  -0.088767  0  3.964336  0
C  C100  1  0.31179965  0.93857778  0.14543544  1  0.003617  0  -0.077833  -0.088664  0  3.9641  0
C  C101  1  0.33366614  0.20692871  0.14545559  1  0.054717  0  -0.07809  -0.088796  0  3.963352  0
C  C102  1  0.20693555  0.31178234  0.64543430  1  0.018466  0  -0.077648  -0.089605  0  3.964053  0
C  C103  1  0.93853188  0.33366573  0.64545020  1  -0.001987  0  -0.077551  -0.088717  0  3.964292  0
C  C104  1  0.68139025  0.05320266  0.80309875  1  -0.086186  0  -0.076086  -0.088345  0  3.956852  0
C  C105  1  0.62171998  0.74983935  0.80307724  1  -0.115696  0  -0.075653  -0.088223  0  3.957273  0
C  C106  1  0.74983253  0.68139810  0.30309606  1  -0.089464  0  -0.075929  -0.086941  0  3.957894  0
C  C107  1  0.05323576  0.62171627  0.30308181  1  -0.075026  0  -0.075464  -0.087147  0  3.957197  0
C  C108  1  0.31861109  0.94679676  0.19690104  1  -0.086166  0  -0.076077  -0.088258  0  3.956836  0
C  C109  1  0.37827855  0.25016026  0.19692291  1  -0.115902  0  -0.075616  -0.08819  0  3.95729  0
C  C110  1  0.25016831  0.31859983  0.69690481  1  -0.089333  0  -0.075931  -0.086881  0  3.957782  0
C  C111  1  0.94676505  0.37828477  0.69691824  1  -0.075033  0  -0.075477  -0.087184  0  3.957137  0
C  C112  1  0.58194504  0.03868342  0.76804613  1  -0.02942  0  -0.014029  -0.010613  0  3.971537  0
C  C113  1  0.68612325  0.72932886  0.76803569  1  -0.074864  0  -0.014539  -0.012561  0  3.972292  0
C  C114  1  0.72930689  0.58195708  0.26804890  1  -0.029414  0  -0.013588  -0.011699  0  3.973315  0
C  C115  1  0.03874877  0.68614159  0.26804669  1  -0.076946  0  -0.014956  -0.012  0  3.970605  0
C  C116  1  0.41805532  0.96131683  0.23195347  1  -0.029431  0  -0.014024  -0.010719  0  3.971692  0
C  C117  1  0.31387659  0.27066986  0.23196419  1  -0.074771  0  -0.014575  -0.012567  0  3.972413  0
C  C118  1  0.27069464  0.41804396  0.73195187  1  -0.029404  0  -0.013518  -0.011743  0  3.973334  0
C  C119  1  0.96125169  0.31385951  0.73195381  1  -0.076891  0  -0.014969  -0.012005  0  3.970661  0
C  C120  1  0.48946214  0.03496077  0.78575554  1  -0.005916  0  -0.07761  -0.097761  0  3.967851  0
C  C121  1  0.79629747  0.75077591  0.78574728  1  0.036985  0  -0.076866  -0.096592  0  3.969483  0
C  C122  1  0.75078080  0.48948226  0.28574947  1  -0.013222  0  -0.07766  -0.098226  0  3.969372  0
C  C123  1  0.03497783  0.79631447  0.28574786  1  0.051451  0  -0.077155  -0.097598  0  3.968848  0
C  C124  1  0.51053813  0.96503870  0.21424397  1  -0.005906  0  -0.077618  -0.097755  0  3.967935  0
C  C125  1  0.20370070  0.24922370  0.21425251  1  0.036852  0  -0.076823  -0.096572  0  3.969438  0
C  C126  1  0.24922037  0.51051879  0.71425094  1  -0.013141  0  -0.077715  -0.098221  0  3.969359  0
C  C127  1  0.96502018  0.20368676  0.71425256  1  0.051396  0  -0.07717  -0.097613  0  3.968764  0
C  C128  1  0.49636639  0.04255347  0.83726641  1  -0.036919  0  -0.073006  -0.076964  0  3.94547  0
C  C129  1  0.84088542  0.79464896  0.83725510  1  -0.032444  0  -0.073637  -0.078515  0  3.946309  0
C  C130  1  0.79466482  0.49636588  0.33725303  1  -0.029536  0  -0.073229  -0.076648  0  3.945223  0
C  C131  1  0.04255966  0.84089619  0.33725645  1  -0.019695  0  -0.073262  -0.077433  0  3.945419  0
C  C132  1  0.50363388  0.95744599  0.16273311  1  -0.036686  0  -0.073016  -0.076986  0  3.94545  0
C  C133  1  0.15911371  0.20534976  0.16274406  1  -0.032382  0  -0.073609  -0.078434  0  3.946243  0
C  C134  1  0.20533477  0.50363368  0.66274739  1  -0.029711  0  -0.073244  -0.076718  0  3.945302  0
C  C135  1  0.95743913  0.15910579  0.66274396  1  -0.019813  0  -0.073227  -0.077415  0  3.945353  0
C  C136  1  0.57731556  0.03251204  0.71318853  1  0.934083  0  0.16375  0.3501  0  3.986324  0
C  C137  1  0.63590810  0.68064819  0.71318281  1  0.973264  0  0.163954  0.354389  0  3.981838  0
C  C138  1  0.68069282  0.57730032  0.21319126  1  0.930812  0  0.164047  0.353034  0  3.98331  0
C  C139  1  0.03251836  0.63588077  0.21318291  1  0.971609  0  0.164041  0.352944  0  3.983254  0
C  C140  1  0.42268718  0.96748728  0.28681107  1  0.934052  0  0.163702  0.350111  0  3.986238  0
C  C141  1  0.36408771  0.31934918  0.28681699  1  0.973226  0  0.16392  0.35441  0  3.981732  0
C  C142  1  0.31930826  0.42269994  0.78680906  1  0.930739  0  0.164  0.353066  0  3.98316  0
C  C143  1  0.96748088  0.36411879  0.78681715  1  0.971596  0  0.164045  0.352912  0  3.98338  0
C  C144  1  0.47334977  0.99986256  0.67493201  1  -0.072487  0  -0.006682  0.011724  0  3.973224  0
C  C145  1  0.70162574  0.67507935  0.67494395  1  -0.079406  0  -0.007691  0.008702  0  3.973518  0
C  C146  1  0.67510219  0.47334141  0.17494567  1  -0.050109  0  -0.007511  0.008969  0  3.973348  0
C  C147  1  0.99981312  0.70159065  0.17493113  1  -0.078916  0  -0.006499  0.009829  0  3.973217  0
C  C148  1  0.52665111  0.00013607  0.32506732  1  -0.072525  0  -0.006722  0.011636  0  3.973312  0
C  C149  1  0.29837412  0.32491942  0.32505674  1  -0.079267  0  -0.007729  0.008636  0  3.973674  0
C  C150  1  0.32489810  0.52665811  0.82505466  1  -0.050149  0  -0.007529  0.008871  0  3.973298  0
C  C151  1  0.00018690  0.29840966  0.82506892  1  -0.078945  0  -0.006529  0.009788  0  3.973253  0
C  C152  1  0.43220174  0.06679630  0.64298967  1  -0.020257  0  -0.079575  -0.105982  0  3.965809  0
C  C153  1  0.71079678  0.57619429  0.64299270  1  -0.000368  0  -0.078581  -0.10272  0  3.963134  0
C  C154  1  0.57623196  0.43221724  0.14299880  1  -0.024365  0  -0.078959  -0.103735  0  3.964719  0
C  C155  1  0.06675080  0.71076740  0.14298469  1  -0.014508  0  -0.079048  -0.103669  0  3.963974  0
C  C156  1  0.56779924  0.93320312  0.35700976  1  -0.020253  0  -0.07951  -0.105908  0  3.965829  0
C  C157  1  0.28920512  0.42380360  0.35700844  1  -0.000551  0  -0.078595  -0.102737  0  3.963111  0
C  C158  1  0.42377064  0.56778060  0.85700225  1  -0.024595  0  -0.078929  -0.10365  0  3.964642  0
C  C159  1  0.93325029  0.28923286  0.85701563  1  -0.014494  0  -0.079104  -0.103708  0  3.964026  0
C  C160  1  0.33511024  0.03981055  0.60772182  1  -0.003114  0  -0.077077  -0.082179  0  3.971252  0
C  C161  1  0.77262249  0.56792411  0.60772391  1  -0.06321  0  -0.078029  -0.084102  0  3.97393  0
C  C162  1  0.56794614  0.33513402  0.10773319  1  -0.017181  0  -0.078144  -0.084021  0  3.973122  0
C  C163  1  0.03979548  0.77260555  0.10772088  1  -0.024128  0  -0.07778  -0.08348  0  3.972236  0
C  C164  1  0.66489048  0.96018649  0.39227734  1  -0.002941  0  -0.077105  -0.082192  0  3.971372  0
C  C165  1  0.22737827  0.43207624  0.39227767  1  -0.062612  0  -0.077951  -0.084013  0  3.973882  0
C  C166  1  0.43205127  0.66486488  0.89226742  1  -0.017002  0  -0.078105  -0.083963  0  3.973207  0
C  C167  1  0.96020339  0.22739401  0.89227882  1  -0.024143  0  -0.0777  -0.083397  0  3.972292  0
C  C168  1  0.27924639  0.94412697  0.60284063  1  -0.026746  0  -0.01439  -0.051057  0  3.978065  0
C  C169  1  0.82359295  0.65871695  0.60283516  1  0.008078  0  -0.013511  -0.049253  0  3.977375  0
C  C170  1  0.65873618  0.27926451  0.10284443  1  -0.021096  0  -0.013871  -0.049214  0  3.977692  0
C  C171  1  0.94411337  0.82357137  0.10282495  1  -0.014946  0  -0.013877  -0.050173  0  3.976788  0
C  C172  1  0.72075477  0.05587087  0.39715898  1  -0.026809  0  -0.01439  -0.051063  0  3.978063  0
C  C173  1  0.17640628  0.34128261  0.39716490  1  0.007937  0  -0.01357  -0.049423  0  3.977421  0
C  C174  1  0.34126446  0.72073496  0.89715545  1  -0.021059  0  -0.013928  -0.04932  0  3.977903  0
C  C175  1  0.05588586  0.17642818  0.89717511  1  -0.01491  0  -0.01392  -0.05027  0  3.97695  0
C  C176  1  0.32212782  0.87542395  0.63354609  1  -0.055182  0  -0.073712  -0.077035  0  3.957412  0
C  C177  1  0.81143204  0.75812754  0.63354842  1  -0.083275  0  -0.074273  -0.07781  0  3.958899  0
C  C178  1  0.75814103  0.32214981  0.13354692  1  -0.075169  0  -0.073963  -0.077998  0  3.957164  0
C  C179  1  0.87541376  0.81139098  0.13353463  1  -0.049082  0  -0.074038  -0.077663  0  3.958398  0
C  C180  1  0.67787263  0.12457710  0.36645360  1  -0.055248  0  -0.073716  -0.077116  0  3.957429  0
C  C181  1  0.18856429  0.24187137  0.36645111  1  -0.083079  0  -0.074261  -0.077733  0  3.958692  0
C  C182  1  0.24186195  0.67785184  0.86645213  1  -0.075101  0  -0.073918  -0.077968  0  3.957251  0
C  C183  1  0.12458766  0.18860923  0.86646524  1  -0.049099  0  -0.074041  -0.077698  0  3.958424  0
C  C184  1  0.41779604  0.90381393  0.66993835  1  -0.026816  0  -0.083606  -0.119546  0  3.980155  0
C  C185  1  0.75219134  0.76614176  0.66995865  1  -0.010672  0  -0.083631  -0.119137  0  3.981422  0
C  C186  1  0.76616376  0.41780275  0.16994882  1  -0.018329  0  -0.08308  -0.117779  0  3.977464  0
C  C187  1  0.90378380  0.75216166  0.16994881  1  -0.03693  0  -0.083333  -0.118843  0  3.981448  0
C  C188  1  0.58220539  0.09618311  0.33006153  1  -0.026856  0  -0.083591  -0.119379  0  3.98012  0
C  C189  1  0.24780477  0.23385869  0.33003987  1  -0.011131  0  -0.083574  -0.119098  0  3.981243  0
C  C190  1  0.23383596  0.58219830  0.83005015  1  -0.018398  0  -0.083115  -0.117782  0  3.977503  0
C  C191  1  0.09621561  0.24783948  0.83005143  1  -0.037  0  -0.083305  -0.118754  0  3.981387  0
C  C192  1  0.17439390  0.91580433  0.56563296  1  1.564429  0  0.271635  0.640212  0  4.092544  0
C  C193  1  0.89127126  0.64983061  0.56563980  1  1.57633  0  0.271386  0.640256  0  4.090582  0
C  C194  1  0.64982294  0.17442013  0.06563663  1  1.571553  0  0.271346  0.639508  0  4.090196  0
C  C195  1  0.91580783  0.89128604  0.06564218  1  1.555076  0  0.271892  0.640874  0  4.089981  0
C  C196  1  0.82560576  0.08419597  0.43436674  1  1.564415  0  0.271675  0.640262  0  4.092576  0
C  C197  1  0.10872744  0.35017058  0.43436052  1  1.576341  0  0.271429  0.640342  0  4.090537  0
C  C198  1  0.35017831  0.82558171  0.93436387  1  1.571585  0  0.271391  0.639615  0  4.090213  0
C  C199  1  0.08419387  0.10871338  0.93435796  1  1.555069  0  0.271891  0.640894  0  4.090027  0
O  O200  1  0.63013972  0.94164963  0.01266037  1  -1.428312  0  -0.446593  -0.987717  0  2.209168  0
O  O201  1  0.88250305  0.07105613  0.01263785  1  -1.42664  0  -0.44609  -0.987331  0  2.207949  0
O  O202  1  0.07103914  0.63013281  0.51264786  1  -1.425421  0  -0.446404  -0.987437  0  2.208623  0
O  O203  1  0.94163009  0.88250051  0.51264271  1  -1.426924  0  -0.446535  -0.987066  0  2.209893  0
O  O204  1  0.36986030  0.05835067  0.98733969  1  -1.428338  0  -0.446623  -0.987771  0  2.209202  0
O  O205  1  0.11749740  0.92894492  0.98736184  1  -1.426627  0  -0.446091  -0.987295  0  2.207888  0
O  O206  1  0.92896046  0.36986675  0.48735256  1  -1.425421  0  -0.446425  -0.98759  0  2.20852  0
O  O207  1  0.05836887  0.11749984  0.48735708  1  -1.426924  0  -0.446551  -0.987079  0  2.209888  0
O  O208  1  0.51824868  0.02614275  0.93674052  1  -1.249399  0  -0.230976  -0.577962  0  2.351946  0
O  O209  1  0.91846385  0.91055844  0.93673906  1  -1.254624  0  -0.231276  -0.579052  0  2.352347  0
O  O210  1  0.91056442  0.51827656  0.43673764  1  -1.247163  0  -0.230993  -0.578688  0  2.3516  0
O  O211  1  0.02606348  0.91845301  0.43672017  1  -1.254649  0  -0.230565  -0.578945  0  2.352207  0
O  O212  1  0.48175196  0.97385993  0.06326016  1  -1.249492  0  -0.230988  -0.577948  0  2.35198  0
O  O213  1  0.08153590  0.08943949  0.06326073  1  -1.254161  0  -0.231285  -0.579042  0  2.35226  0
O  O214  1  0.08943560  0.48172375  0.56326241  1  -1.247157  0  -0.231019  -0.57869  0  2.351627  0
O  O215  1  0.97393602  0.08154576  0.56328016  1  -1.254666  0  -0.230607  -0.578982  0  2.352234  0
O  O216  1  0.69304719  0.07441337  0.95787461  1  -1.273036  0  -0.249221  -0.619627  0  2.349933  0
O  O217  1  0.76484094  0.88340781  0.95790186  1  -1.271534  0  -0.24961  -0.62029  0  2.345302  0
O  O218  1  0.88341551  0.69308110  0.45789337  1  -1.271416  0  -0.249736  -0.620902  0  2.348317  0
O  O219  1  0.07444838  0.76483908  0.45788447  1  -1.282184  0  -0.248821  -0.618857  0  2.346276  0
O  O220  1  0.30695423  0.92558685  0.04212526  1  -1.273032  0  -0.249216  -0.619583  0  2.349987  0
O  O221  1  0.23515829  0.11659175  0.04209820  1  -1.27179  0  -0.249647  -0.620344  0  2.345332  0
O  O222  1  0.11658523  0.30691920  0.54210741  1  -1.271409  0  -0.249744  -0.62089  0  2.34837  0
O  O223  1  0.92555243  0.23516197  0.54211558  1  -1.282202  0  -0.248844  -0.618897  0  2.34614  0
O  O224  1  0.12667873  0.82869125  0.56342968  1  -1.250504  0  -0.228833  -0.571832  0  2.322247  0
O  O225  1  0.93678351  0.73474624  0.56343582  1  -1.252386  0  -0.228816  -0.572007  0  2.321653  0
O  O226  1  0.73473276  0.12670818  0.06341429  1  -1.254825  0  -0.228559  -0.571651  0  2.320903  0
O  O227  1  0.82870174  0.93682767  0.06346788  1  -1.24955  0  -0.229352  -0.573265  0  2.319427  0
O  O228  1  0.87332129  0.17130906  0.43657037  1  -1.25052  0  -0.228834  -0.571846  0  2.322226  0
O  O229  1  0.06321511  0.26525415  0.43656442  1  -1.252381  0  -0.228804  -0.572032  0  2.321616  0
O  O230  1  0.26526838  0.87329282  0.93658530  1  -1.254812  0  -0.228605  -0.571696  0  2.320951  0
O  O231  1  0.17129766  0.06317347  0.93653235  1  -1.249536  0  -0.229306  -0.573176  0  2.319478  0
O  O232  1  0.13914176  0.98058844  0.53826109  1  -1.265935  0  -0.237686  -0.603479  0  2.352011  0
O  O233  1  0.89919769  0.55767211  0.53828430  1  -1.264387  0  -0.237411  -0.603381  0  2.351242  0
O  O234  1  0.55764836  0.13913992  0.03829703  1  -1.268707  0  -0.237439  -0.603452  0  2.350749  0
O  O235  1  0.98055377  0.89921347  0.03827828  1  -1.268743  0  -0.237771  -0.603344  0  2.352354  0
O  O236  1  0.86085871  0.01941266  0.46173941  1  -1.265921  0  -0.237719  -0.603498  0  2.352035  0
O  O237  1  0.10080269  0.44232820  0.46171612  1  -1.264413  0  -0.237408  -0.603362  0  2.351226  0
O  O238  1  0.44235203  0.86086039  0.96170339  1  -1.268744  0  -0.237428  -0.603471  0  2.350849  0
O  O239  1  0.01944642  0.10078521  0.96172115  1  -1.268714  0  -0.237822  -0.603402  0  2.352285  0
O  O240  1  0.65583099  0.05583016  0.69919259  1  -1.077243  0  -0.268523  -0.405289  0  2.049881  0
O  O241  1  0.54340566  0.64334060  0.69918083  1  -1.083889  0  -0.269098  -0.407677  0  2.047933  0
O  O242  1  0.64342562  0.65582642  0.19917002  1  -1.071559  0  -0.269122  -0.406861  0  2.048143  0
O  O243  1  0.05576068  0.54337874  0.19918342  1  -1.079786  0  -0.269033  -0.407026  0  2.048559  0
O  O244  1  0.34416974  0.94416694  0.30080738  1  -1.077178  0  -0.268496  -0.405276  0  2.049796  0
O  O245  1  0.45659682  0.35665957  0.30081931  1  -1.083808  0  -0.26908  -0.407728  0  2.047772  0
O  O246  1  0.35657459  0.34417231  0.80083022  1  -1.071525  0  -0.269099  -0.406859  0  2.047965  0
O  O247  1  0.94423724  0.45662170  0.80081691  1  -1.079794  0  -0.269031  -0.40701  0  2.04856  0
