# generated using pymatgen
data_Zn2H18C35SN2O11
_symmetry_space_group_name_H-M   'P 1'
_cell_length_a   11.81290799
_cell_length_b   12.97594454
_cell_length_c   13.62314954
_cell_angle_alpha   72.65465206
_cell_angle_beta   83.80489574
_cell_angle_gamma   73.26575807
_symmetry_Int_Tables_number   1
_chemical_formula_structural   Zn2H18C35SN2O11
_chemical_formula_sum   'Zn2 H18 C35 S1 N2 O11'
_cell_volume   1908.27571797
_cell_formula_units_Z   1
loop_
 _symmetry_equiv_pos_site_id
 _symmetry_equiv_pos_as_xyz
  1  'x, y, z'
loop_
 _atom_site_type_symbol
 _atom_site_label
 _atom_site_symmetry_multiplicity
 _atom_site_fract_x
 _atom_site_fract_y
 _atom_site_fract_z
 _atom_site_occupancy
 _atom_site_pbe_bader_charge
 _atom_site_pbe_bader_spin_density
 _atom_site_pbe_cm5_charge
 _atom_site_pbe_ddec_charge
 _atom_site_pbe_ddec_spin_density
 _atom_site_pbe_ddec_sum_bond_order
 _atom_site_pbe_magmom
Zn  Zn0  1  0.46204626  0.62680899  0.49705720  1  1.311865  0  0.687689  0.866111  0  2.321856  0
Zn  Zn1  1  0.52599321  0.38160735  0.51473460  1  1.296256  0  0.684492  0.845381  0  2.351385  0
H  H2  1  0.68565515  0.25883603  0.80313102  1  0.094628  0  0.106281  0.112349  0  0.990863  0
H  H3  1  0.27055499  0.09660467  0.66282833  1  0.073748  0  0.116045  0.118782  0  0.975468  0
H  H4  1  0.24697636  0.91348596  0.66991435  1  0.086327  0  0.119416  0.125608  0  0.974999  0
H  H5  1  0.73167119  0.26632647  0.43395630  1  0.120455  0  0.125528  0.106215  0  1.010933  0
H  H6  1  0.73349388  0.92793091  0.46373932  1  0.170786  0  0.116065  0.12721  0  1.05095  0
H  H7  1  0.37723656  0.24379384  0.59871701  1  0.144428  0  0.1195  0.140467  0  1.003462  0
H  H8  1  0.72199152  0.25453135  0.14987096  1  0.019234  0  0.100803  0.100155  0  0.998363  0
H  H9  1  0.74228143  0.20924743  0.98668808  1  0.070149  0  0.103793  0.10357  0  0.992612  0
H  H10  1  0.47874547  0.58351787  0.81944286  1  0.08915  0  0.100091  0.100946  0  1.030579  0
H  H11  1  0.35341029  0.74486947  0.20056692  1  0.089354  0  0.108128  0.117768  0  0.994482  0
H  H12  1  0.42096530  0.68895975  0.90195294  1  0.026306  0  0.099688  0.095021  0  1.021696  0
H  H13  1  0.32641595  0.81326002  0.01041119  1  0.052431  0  0.101463  0.097588  0  0.992793  0
H  H14  1  0.62678119  0.37798770  0.25825309  1  0.105299  0  0.09803  0.110036  0  1.064264  0
H  H15  1  0.31023235  0.74161340  0.60936899  1  0.137399  0  0.126716  0.112073  0  1.000179  0
H  H16  1  0.62329552  0.68792128  0.36883845  1  0.662666  0  0.311801  0.382764  0  0.965602  0
H  H17  1  0.89102722  0.14728688  0.34879507  1  0.04891  0  0.101476  0.136797  0  0.987525  0
H  H18  1  0.93668199  0.03817924  0.46266654  1  0.057488  0  0.101935  0.138625  0  0.979722  0
H  H19  1  0.89012691  0.00752168  0.35755554  1  0.060239  0  0.106238  0.149734  0  0.975088  0
C  C20  1  0.47243750  0.55335244  0.31325514  1  1.529043  0  0.222774  0.605094  0  4.122982  0
C  C21  1  0.57806694  0.42465822  0.80283605  1  -5e-05  0  -0.021797  -0.033436  0  3.996102  0
C  C22  1  0.39669411  0.69150813  0.15156947  1  -0.046824  0  -0.080329  -0.077676  0  3.980987  0
C  C23  1  0.38140879  0.72906692  0.04514514  1  0.019373  0  -0.09518  -0.092486  0  4.069111  0
C  C24  1  0.43489602  0.65889155  0.98456150  1  -0.025781  0  -0.085201  -0.116901  0  4.00255  0
C  C25  1  0.50731362  0.54986284  0.02755517  1  0.003521  0  -0.002058  0.028661  0  3.93641  0
C  C26  1  0.52736662  0.51233243  0.13613653  1  -0.026259  0  0.003342  0.071602  0  3.924513  0
C  C27  1  0.55972524  0.47471033  0.96404628  1  0.023274  0  -0.002771  0.03164  0  3.945623  0
C  C28  1  0.63602029  0.36675090  0.00980711  1  0.010355  0  -0.00577  0.079521  0  4.020966  0
C  C29  1  0.66112432  0.33627523  0.11631455  1  0.005235  0  -0.089668  -0.127518  0  4.026443  0
C  C30  1  0.60858970  0.40469293  0.17687424  1  -0.060183  0  -0.099185  -0.135875  0  4.004589  0
C  C31  1  0.72674447  0.49210621  0.47884080  1  1.675083  0  0.23229  0.675962  0  4.219143  0
C  C32  1  0.53511937  0.50200989  0.85890815  1  -0.08648  0  -0.078856  -0.13096  0  3.94033  0
C  C33  1  0.65288990  0.31778447  0.84892922  1  -0.08957  0  -0.087827  -0.097053  0  4.006473  0
C  C34  1  0.46724415  0.58479173  0.19812384  1  -0.005677  0  -0.014929  -0.084506  0  3.899385  0
C  C35  1  0.32499319  0.89983116  0.61982671  1  -0.016889  0  -0.074764  -0.163956  0  3.968156  0
C  C36  1  0.68924926  0.19810670  0.45601844  1  0.515106  0  0.064012  0.055956  0  3.870134  0
C  C37  1  0.74833771  0.09292732  0.44213067  1  0.02864  0  0.005187  0.142886  0  3.979039  0
C  C38  1  0.68738008  0.01142484  0.46969763  1  -0.038056  0  -0.062447  -0.131651  0  3.890722  0
C  C39  1  0.56915913  0.03478142  0.50596858  1  0.032888  0  0.009816  0.016177  0  3.941333  0
C  C40  1  0.52150992  0.14004507  0.52821320  1  0.463597  0  0.124136  0.203131  0  3.964024  0
C  C41  1  0.49566042  0.95718668  0.52638266  1  0.015471  0  0.013214  -0.007377  0  3.86848  0
C  C42  1  0.54305025  0.45296254  0.69412386  1  1.534833  0  0.220308  0.607679  0  4.145439  0
C  C43  1  0.39108641  0.97929031  0.58895553  1  -0.017981  0  0.014334  0.11201  0  4.011434  0
C  C44  1  0.35198715  0.08213104  0.61682302  1  0.027247  0  -0.076775  -0.119538  0  3.973718  0
C  C45  1  0.41138524  0.16246805  0.58327924  1  -0.049106  0  -0.064681  -0.119554  0  3.92455  0
C  C46  1  0.51350748  0.86365346  0.48567135  1  0.454082  0  0.136311  0.049394  0  3.804752  0
C  C47  1  0.35802697  0.80577659  0.58557537  1  0.43769  0  0.040986  0.085126  0  3.941324  0
C  C48  1  0.26930313  0.52148070  0.53233690  1  1.724003  0  0.225658  0.664898  0  4.247288  0
C  C49  1  0.84205900  0.50533486  0.48519520  1  -0.334135  0  -0.016961  -0.160029  0  3.867206  0
C  C50  1  0.93888369  0.51478706  0.49878924  1  0.242392  0  -0.006757  0.047496  0  4.22988  0
C  C51  1  0.04680313  0.52248315  0.51359517  1  -0.44936  0  -0.015598  0.015823  0  4.241661  0
C  C52  1  0.14630490  0.52639349  0.52646532  1  0.286687  0  -0.011011  -0.139129  0  3.852315  0
C  C53  1  0.68319157  0.29086557  0.95013371  1  -0.009601  0  -0.089123  -0.132312  0  4.000206  0
C  C54  1  0.87300961  0.07034175  0.40012939  1  -0.056324  0  -0.224205  -0.409191  0  3.956924  0
S  S55  1  0.62074306  0.84805199  0.37920083  1  3.185816  0  0.534889  1.113521  0  6.084209  0
N  N56  1  0.44825731  0.79004269  0.51557155  1  -1.230431  0  -0.304929  -0.231644  0  3.490521  0
N  N57  1  0.58222481  0.21992247  0.50098476  1  -1.26231  0  -0.316882  -0.251309  0  3.498355  0
O  O58  1  0.42343061  0.63103136  0.35626261  1  -1.157872  0  -0.32005  -0.545079  0  2.360249  0
O  O59  1  0.52313075  0.45262449  0.36226975  1  -1.170776  0  -0.311364  -0.543083  0  2.415666  0
O  O60  1  0.64316561  0.58140757  0.44258912  1  -1.18714  0  -0.313276  -0.579239  0  2.436144  0
O  O61  1  0.71200267  0.39526617  0.51124402  1  -1.122346  0  -0.285674  -0.515917  0  2.222653  0
O  O62  1  0.52296959  0.55560377  0.64108674  1  -1.172595  0  -0.321988  -0.56316  0  2.350737  0
O  O63  1  0.53625285  0.37185926  0.66240657  1  -1.154457  0  -0.318239  -0.542137  0  2.33634  0
O  O64  1  0.29366919  0.60622278  0.54458117  1  -1.151395  0  -0.313006  -0.546948  0  2.254676  0
O  O65  1  0.34143856  0.43082570  0.52242309  1  -1.150889  0  -0.302382  -0.540135  0  2.289371  0
O  O66  1  0.60117578  0.95777070  0.30743954  1  -1.295891  0  -0.313388  -0.515306  0  2.119602  0
O  O67  1  0.73529044  0.78980336  0.42445952  1  -1.301892  0  -0.315483  -0.533968  0  2.156988  0
O  O68  1  0.58177613  0.77199165  0.32908408  1  -1.261179  0  -0.339881  -0.506708  0  2.287034  0
