# generated using pymatgen
data_CdH5C5IN6O
_symmetry_space_group_name_H-M   'P 1'
_cell_length_a   7.86771403
_cell_length_b   9.33248928
_cell_length_c   13.96493207
_cell_angle_alpha   89.99997039
_cell_angle_beta   89.99984723
_cell_angle_gamma   94.75622029
_symmetry_Int_Tables_number   1
_chemical_formula_structural   CdH5C5IN6O
_chemical_formula_sum   'Cd4 H20 C20 I4 N24 O4'
_cell_volume   1021.84923043
_cell_formula_units_Z   4
loop_
 _symmetry_equiv_pos_site_id
 _symmetry_equiv_pos_as_xyz
  1  'x, y, z'
loop_
 _atom_site_type_symbol
 _atom_site_label
 _atom_site_symmetry_multiplicity
 _atom_site_fract_x
 _atom_site_fract_y
 _atom_site_fract_z
 _atom_site_occupancy
 _atom_site_hle17_bader_spin_density
 _atom_site_hle17_ddec_charge
 _atom_site_hle17_ddec_spin_density
 _atom_site_hle17_ddec_sum_bond_order
 _atom_site_hle17_magmom
 _atom_site_hse06_10hf_bader_spin_density
 _atom_site_hse06_10hf_ddec_charge
 _atom_site_hse06_10hf_ddec_spin_density
 _atom_site_hse06_10hf_ddec_sum_bond_order
 _atom_site_hse06_10hf_magmom
 _atom_site_hse06_bader_spin_density
 _atom_site_hse06_ddec_charge
 _atom_site_hse06_ddec_spin_density
 _atom_site_hse06_ddec_sum_bond_order
 _atom_site_hse06_magmom
 _atom_site_pbe_bader_spin_density
 _atom_site_pbe_cm5_charge
 _atom_site_pbe_ddec_charge
 _atom_site_pbe_ddec_spin_density
 _atom_site_pbe_ddec_sum_bond_order
 _atom_site_pbe_magmom
Cd  Cd0  1  0.77571790  0.07601701  0.54591685  1  0  0.895618  0  1.962367  0  0  0.720748  0  2.418007  0  0  0.770851  0  2.376471  0  0  0.628572  0.685703  0  2.445986  0
Cd  Cd1  1  0.72428121  0.42398261  0.04591654  1  0  0.895607  0  1.962345  0  0  0.720772  0  2.417949  0  0  0.770875  0  2.376412  0  0  0.628573  0.685728  0  2.445931  0
Cd  Cd2  1  0.22428064  0.92398070  0.45408424  1  0  0.895604  0  1.962357  0  0  0.720763  0  2.417972  0  0  0.770866  0  2.376437  0  0  0.628582  0.685719  0  2.445952  0
Cd  Cd3  1  0.27571594  0.57601405  0.95408382  1  0  0.895609  0  1.962324  0  0  0.720739  0  2.417954  0  0  0.770839  0  2.376424  0  0  0.628578  0.685694  0  2.445935  0
H  H4  1  0.67356829  0.35945517  0.53360604  1  0  0.373707  0  0.95043  0  0  0.33272  0  1.032048  0  0  0.343934  0  1.016226  0  0  0.271303  0.324852  0  1.043109  0
H  H5  1  0.82643722  0.14054437  0.03360568  1  0  0.373727  0  0.95039  0  0  0.332745  0  1.03201  0  0  0.343958  0  1.016188  0  0  0.271317  0.324877  0  1.04307  0
H  H6  1  0.32643799  0.64054351  0.46639433  1  0  0.373696  0  0.950444  0  0  0.332707  0  1.032068  0  0  0.343921  0  1.016245  0  0  0.271307  0.324839  0  1.043127  0
H  H7  1  0.17357071  0.85945751  0.96639612  1  0  0.373674  0  0.95044  0  0  0.332691  0  1.032079  0  0  0.343905  0  1.016257  0  0  0.271287  0.324823  0  1.043139  0
H  H8  1  0.76051677  0.35142922  0.63806334  1  0  0.385815  0  0.932571  0  0  0.343856  0  1.015919  0  0  0.355225  0  0.999674  0  0  0.274029  0.335849  0  1.027322  0
H  H9  1  0.73948164  0.14856814  0.13806167  1  0  0.385683  0  0.932677  0  0  0.343768  0  1.016026  0  0  0.355137  0  0.999781  0  0  0.273986  0.335761  0  1.027428  0
H  H10  1  0.23948177  0.64856849  0.36193774  1  0  0.385795  0  0.932587  0  0  0.343852  0  1.015921  0  0  0.355222  0  0.999675  0  0  0.274023  0.335845  0  1.027323  0
H  H11  1  0.26051830  0.85143063  0.86193869  1  0  0.385712  0  0.932655  0  0  0.343797  0  1.015988  0  0  0.355167  0  0.999743  0  0  0.274006  0.33579  0  1.02739  0
H  H12  1  0.91647859  0.88240960  0.28081041  1  0  0.089559  0  0.945591  0  0  0.092033  0  1.017336  0  0  0.0953  0  1.014996  0  0  0.113663  0.089647  0  1.019126  0
H  H13  1  0.58351947  0.61759100  0.78081314  1  0  0.089575  0  0.945574  0  0  0.092064  0  1.017302  0  0  0.095328  0  1.01497  0  0  0.113675  0.089677  0  1.01909  0
H  H14  1  0.08351806  0.11759353  0.71918566  1  0  0.089584  0  0.945559  0  0  0.092051  0  1.017299  0  0  0.095316  0  1.014964  0  0  0.113683  0.089665  0  1.019086  0
H  H15  1  0.41647742  0.38240350  0.21919009  1  0  0.089551  0  0.945557  0  0  0.091992  0  1.017326  0  0  0.095251  0  1.015007  0  0  0.113653  0.089607  0  1.019115  0
H  H16  1  0.90242939  0.87292855  0.09879450  1  0  0.090391  0  0.953399  0  0  0.095939  0  1.022633  0  0  0.099464  0  1.01965  0  0  0.106004  0.093323  0  1.02498  0
H  H17  1  0.59757171  0.62707977  0.59879720  1  0  0.090392  0  0.953312  0  0  0.095903  0  1.02261  0  0  0.099427  0  1.019627  0  0  0.10601  0.093288  0  1.024956  0
H  H18  1  0.09757271  0.12707773  0.90120085  1  0  0.090404  0  0.953292  0  0  0.095925  0  1.022589  0  0  0.099448  0  1.019608  0  0  0.106019  0.093309  0  1.024936  0
H  H19  1  0.40243039  0.37291574  0.40120531  1  0  0.090439  0  0.953303  0  0  0.095968  0  1.022588  0  0  0.09949  0  1.019608  0  0  0.106044  0.093353  0  1.024933  0
H  H20  1  0.42424034  0.98422344  0.08558604  1  0  0.091579  0  0.949972  0  0  0.096895  0  1.020275  0  0  0.100556  0  1.01657  0  0  0.106537  0.094165  0  1.023182  0
H  H21  1  0.07576590  0.51577378  0.58558165  1  0  0.091615  0  0.949954  0  0  0.096925  0  1.020265  0  0  0.100588  0  1.016562  0  0  0.106531  0.094194  0  1.023171  0
H  H22  1  0.57576442  0.01577311  0.91441934  1  0  0.091594  0  0.949962  0  0  0.096904  0  1.020277  0  0  0.100568  0  1.016575  0  0  0.106518  0.094174  0  1.023183  0
H  H23  1  0.92423519  0.48422390  0.41441370  1  0  0.091594  0  0.94998  0  0  0.096898  0  1.02029  0  0  0.100562  0  1.016586  0  0  0.10652  0.094168  0  1.023197  0
C  C24  1  0.47239041  0.02229735  0.27990720  1  0  0.235144  0  3.810525  0  0  0.210125  0  4.074726  0  0  0.218504  0  4.092592  0  0  0.213864  0.2047  0  4.062544  0
C  C25  1  0.02760947  0.47770709  0.77990631  1  0  0.235151  0  3.810348  0  0  0.210205  0  4.074505  0  0  0.218585  0  4.092372  0  0  0.213964  0.20478  0  4.062318  0
C  C26  1  0.52760889  0.97770682  0.72009389  1  0  0.235163  0  3.810369  0  0  0.210222  0  4.074509  0  0  0.218602  0  4.092376  0  0  0.213975  0.204798  0  4.062322  0
C  C27  1  0.97238844  0.52229602  0.22009334  1  0  0.235271  0  3.810384  0  0  0.210304  0  4.074578  0  0  0.218686  0  4.092442  0  0  0.213966  0.204878  0  4.062398  0
C  C28  1  0.31621731  0.97684826  0.22861153  1  0  0.141146  0  3.750667  0  0  0.14232  0  3.989694  0  0  0.146062  0  4.007957  0  0  0.135769  0.139406  0  3.977676  0
C  C29  1  0.18378075  0.52316074  0.72860697  1  0  0.141212  0  3.750589  0  0  0.142234  0  3.989761  0  0  0.145977  0  4.008021  0  0  0.135691  0.13932  0  3.977738  0
C  C30  1  0.68377857  0.02315918  0.77139385  1  0  0.141179  0  3.750755  0  0  0.142224  0  3.989888  0  0  0.145966  0  4.00815  0  0  0.135667  0.13931  0  3.977865  0
C  C31  1  0.81621691  0.47684021  0.27138838  1  0  0.141276  0  3.750389  0  0  0.142301  0  3.989606  0  0  0.146043  0  4.007869  0  0  0.135801  0.139389  0  3.977587  0
C  C32  1  0.02878008  0.90775526  0.23634899  1  0  0.103001  0  3.664234  0  0  0.069137  0  3.928071  0  0  0.07277  0  3.944217  0  0  0.059496  0.066473  0  3.917424  0
C  C33  1  0.47121883  0.59225050  0.73634899  1  0  0.102842  0  3.664128  0  0  0.068949  0  3.927954  0  0  0.072581  0  3.9441  0  0  0.0594  0.066286  0  3.917305  0
C  C34  1  0.97121809  0.09225000  0.76364994  1  0  0.102884  0  3.664177  0  0  0.069024  0  3.928  0  0  0.072657  0  3.944145  0  0  0.059484  0.066361  0  3.91735  0
C  C35  1  0.52878098  0.40774720  0.26365137  1  0  0.102904  0  3.664151  0  0  0.069112  0  3.927993  0  0  0.072746  0  3.944136  0  0  0.059447  0.066448  0  3.917347  0
C  C36  1  0.02189455  0.90197455  0.13648815  1  0  0.09843  0  3.635706  0  0  0.067985  0  3.893996  0  0  0.071137  0  3.908886  0  0  0.057789  0.065768  0  3.884162  0
C  C37  1  0.47810726  0.59803021  0.63648957  1  0  0.098572  0  3.635641  0  0  0.068119  0  3.893986  0  0  0.07127  0  3.908877  0  0  0.057815  0.065901  0  3.88415  0
C  C38  1  0.97810743  0.09803065  0.86350936  1  0  0.098561  0  3.635625  0  0  0.068079  0  3.893979  0  0  0.071232  0  3.908869  0  0  0.057754  0.065861  0  3.884144  0
C  C39  1  0.52189103  0.40196536  0.36351223  1  0  0.098541  0  3.635392  0  0  0.068027  0  3.89379  0  0  0.07118  0  3.908677  0  0  0.057787  0.065812  0  3.883955  0
C  C40  1  0.30926300  0.96535761  0.12865544  1  0  0.068437  0  3.671682  0  0  0.030382  0  3.929823  0  0  0.03308  0  3.944183  0  0  0.056818  0.02837  0  3.920631  0
C  C41  1  0.19073771  0.53464825  0.62865446  1  0  0.068447  0  3.671739  0  0  0.03041  0  3.92993  0  0  0.033105  0  3.944297  0  0  0.056867  0.028398  0  3.920734  0
C  C42  1  0.69073796  0.03464976  0.87134492  1  0  0.068457  0  3.67184  0  0  0.030409  0  3.930027  0  0  0.033103  0  3.944395  0  0  0.056852  0.028397  0  3.92083  0
C  C43  1  0.80926414  0.46535588  0.37134376  1  0  0.068393  0  3.671707  0  0  0.030406  0  3.929838  0  0  0.033097  0  3.944205  0  0  0.056803  0.028393  0  3.920648  0
I  I44  1  0.89178341  0.78723394  0.50733500  1  0  -0.473756  0  1.12788  0  0  -0.430075  0  1.464673  0  0  -0.452096  0  1.439815  0  0  -0.201543  -0.414133  0  1.481485  0
I  I45  1  0.60821292  0.71276271  0.00733566  1  0  -0.473738  0  1.127869  0  0  -0.430054  0  1.464648  0  0  -0.452073  0  1.43979  0  0  -0.201534  -0.414112  0  1.481462  0
I  I46  1  0.10821627  0.21276268  0.49266537  1  0  -0.473757  0  1.127891  0  0  -0.430078  0  1.464678  0  0  -0.452097  0  1.439819  0  0  -0.201539  -0.414136  0  1.481491  0
I  I47  1  0.39178739  0.28722852  0.99266471  1  0  -0.473775  0  1.127879  0  0  -0.430091  0  1.46466  0  0  -0.452107  0  1.439804  0  0  -0.201544  -0.414147  0  1.481474  0
N  N48  1  0.64161206  0.07230782  0.39590548  1  0  -0.106062  0  3.199236  0  0  -0.053918  0  3.495742  0  0  -0.064295  0  3.515044  0  0  -0.11316  -0.046686  0  3.4824  0
N  N49  1  0.85838890  0.42768919  0.89590482  1  0  -0.10599  0  3.199237  0  0  -0.053843  0  3.495723  0  0  -0.064219  0  3.515026  0  0  -0.113138  -0.046613  0  3.482381  0
N  N50  1  0.35838902  0.92768986  0.60409561  1  0  -0.105922  0  3.199153  0  0  -0.05378  0  3.495649  0  0  -0.064157  0  3.514953  0  0  -0.11312  -0.046549  0  3.482306  0
N  N51  1  0.14161104  0.57230958  0.10409554  1  0  -0.105998  0  3.199217  0  0  -0.053847  0  3.49571  0  0  -0.064223  0  3.515012  0  0  -0.113128  -0.046615  0  3.482369  0
N  N52  1  0.48183566  0.02133687  0.37593988  1  0  -0.276508  0  3.110007  0  0  -0.229916  0  3.386897  0  0  -0.244389  0  3.404812  0  0  -0.224763  -0.220098  0  3.374602  0
N  N53  1  0.01816452  0.47866313  0.87593900  1  0  -0.276586  0  3.109967  0  0  -0.230002  0  3.386848  0  0  -0.244474  0  3.404761  0  0  -0.224807  -0.220186  0  3.374553  0
N  N54  1  0.51816428  0.97866190  0.62406120  1  0  -0.276603  0  3.10993  0  0  -0.23002  0  3.386813  0  0  -0.244493  0  3.404727  0  0  -0.224806  -0.220204  0  3.374516  0
N  N55  1  0.98183313  0.52133783  0.12406065  1  0  -0.276592  0  3.109956  0  0  -0.230007  0  3.386849  0  0  -0.244479  0  3.404762  0  0  -0.224804  -0.220189  0  3.374555  0
N  N56  1  0.62299635  0.07303151  0.24145648  1  0  -0.302097  0  3.015286  0  0  -0.257388  0  3.285862  0  0  -0.270121  0  3.299831  0  0  -0.201214  -0.248706  0  3.276259  0
N  N57  1  0.87700296  0.42696679  0.74145508  1  0  -0.302073  0  3.015402  0  0  -0.257364  0  3.285929  0  0  -0.270097  0  3.2999  0  0  -0.2012  -0.248681  0  3.276321  0
N  N58  1  0.37700207  0.92696513  0.75854532  1  0  -0.302076  0  3.015386  0  0  -0.257384  0  3.285941  0  0  -0.270117  0  3.29991  0  0  -0.201215  -0.248702  0  3.276335  0
N  N59  1  0.12299330  0.57303311  0.25854529  1  0  -0.302199  0  3.015428  0  0  -0.257487  0  3.285974  0  0  -0.270222  0  3.299943  0  0  -0.201226  -0.248803  0  3.276371  0
N  N60  1  0.72705938  0.10359775  0.31580906  1  0  -0.075319  0  2.945944  0  0  -0.078968  0  3.240932  0  0  -0.077464  0  3.256194  0  0  -0.09667  -0.079591  0  3.230398  0
N  N61  1  0.77294197  0.39639935  0.81580927  1  0  -0.075396  0  2.946069  0  0  -0.079063  0  3.241073  0  0  -0.077559  0  3.256336  0  0  -0.096731  -0.079686  0  3.230536  0
N  N62  1  0.27294056  0.89640102  0.68419202  1  0  -0.075416  0  2.946068  0  0  -0.079074  0  3.241074  0  0  -0.077571  0  3.256338  0  0  -0.096722  -0.079697  0  3.230537  0
N  N63  1  0.22705657  0.60359837  0.18419182  1  0  -0.075328  0  2.945939  0  0  -0.07898  0  3.240928  0  0  -0.077475  0  3.25619  0  0  -0.096702  -0.079603  0  3.230395  0
N  N64  1  0.17524744  0.94461422  0.28178626  1  0  -0.287937  0  3.199636  0  0  -0.222906  0  3.450061  0  0  -0.237539  0  3.468536  0  0  -0.299392  -0.212692  0  3.437508  0
N  N65  1  0.32474693  0.55538724  0.78178578  1  0  -0.287887  0  3.1994  0  0  -0.222727  0  3.449739  0  0  -0.237359  0  3.468214  0  0  -0.299309  -0.212512  0  3.437176  0
N  N66  1  0.82474527  0.05538788  0.71821482  1  0  -0.287891  0  3.199414  0  0  -0.22274  0  3.449751  0  0  -0.237372  0  3.468226  0  0  -0.29933  -0.212525  0  3.43719  0
N  N67  1  0.67524552  0.44461272  0.21821459  1  0  -0.287952  0  3.199506  0  0  -0.222876  0  3.449944  0  0  -0.237509  0  3.468418  0  0  -0.299393  -0.212664  0  3.437393  0
N  N68  1  0.16281765  0.92820217  0.08329694  1  0  -0.25076  0  3.154578  0  0  -0.193091  0  3.406194  0  0  -0.202847  0  3.42102  0  0  -0.2861  -0.186348  0  3.396278  0
N  N69  1  0.33718949  0.57180258  0.58329572  1  0  -0.250904  0  3.154588  0  0  -0.193195  0  3.406163  0  0  -0.202952  0  3.420989  0  0  -0.28615  -0.186454  0  3.396246  0
N  N70  1  0.83718788  0.07180083  0.91670414  1  0  -0.250917  0  3.154506  0  0  -0.193197  0  3.406089  0  0  -0.202955  0  3.420916  0  0  -0.28612  -0.186457  0  3.396174  0
N  N71  1  0.66281933  0.42819606  0.41670250  1  0  -0.250887  0  3.154577  0  0  -0.19317  0  3.406168  0  0  -0.202927  0  3.420994  0  0  -0.286104  -0.186427  0  3.396253  0
O  O72  1  0.68163529  0.29813788  0.59209469  1  0  -0.800374  0  1.954929  0  0  -0.735884  0  2.16143  0  0  -0.758136  0  2.128563  0  0  -0.601012  -0.720009  0  2.184073  0
O  O73  1  0.81836626  0.20186272  0.09209432  1  0  -0.800258  0  1.955087  0  0  -0.735831  0  2.161525  0  0  -0.758084  0  2.12866  0  0  -0.600974  -0.719954  0  2.184165  0
O  O74  1  0.31836592  0.70186087  0.40790496  1  0  -0.800333  0  1.954993  0  0  -0.735862  0  2.161463  0  0  -0.758115  0  2.128594  0  0  -0.601011  -0.719987  0  2.184104  0
O  O75  1  0.18163774  0.79813815  0.90790748  1  0  -0.800242  0  1.955101  0  0  -0.735807  0  2.161549  0  0  -0.758061  0  2.128684  0  0  -0.600965  -0.719932  0  2.184188  0
