# generated using pymatgen
data_CdH16C20(N3O2)2
_symmetry_space_group_name_H-M   'P 1'
_cell_length_a   7.08616408
_cell_length_b   9.97029700
_cell_length_c   15.50982409
_cell_angle_alpha   85.31747358
_cell_angle_beta   76.79009297
_cell_angle_gamma   69.21930818
_symmetry_Int_Tables_number   1
_chemical_formula_structural   CdH16C20(N3O2)2
_chemical_formula_sum   'Cd2 H32 C40 N12 O8'
_cell_volume   997.39186931
_cell_formula_units_Z   2
loop_
 _symmetry_equiv_pos_site_id
 _symmetry_equiv_pos_as_xyz
  1  'x, y, z'
loop_
 _atom_site_type_symbol
 _atom_site_label
 _atom_site_symmetry_multiplicity
 _atom_site_fract_x
 _atom_site_fract_y
 _atom_site_fract_z
 _atom_site_occupancy
 _atom_site_hle17_bader_spin_density
 _atom_site_hle17_ddec_charge
 _atom_site_hle17_ddec_spin_density
 _atom_site_hle17_ddec_sum_bond_order
 _atom_site_hle17_magmom
 _atom_site_hse06_10hf_bader_spin_density
 _atom_site_hse06_10hf_ddec_charge
 _atom_site_hse06_10hf_ddec_spin_density
 _atom_site_hse06_10hf_ddec_sum_bond_order
 _atom_site_hse06_10hf_magmom
 _atom_site_hse06_bader_spin_density
 _atom_site_hse06_ddec_charge
 _atom_site_hse06_ddec_spin_density
 _atom_site_hse06_ddec_sum_bond_order
 _atom_site_hse06_magmom
 _atom_site_pbe_bader_spin_density
 _atom_site_pbe_cm5_charge
 _atom_site_pbe_ddec_charge
 _atom_site_pbe_ddec_spin_density
 _atom_site_pbe_ddec_sum_bond_order
 _atom_site_pbe_magmom
Cd  Cd0  1  0.04617383  0.00008468  0.00000539  1  0  1.084644  0  1.687377  0  0  0.893334  0  2.133291  0  0  0.95222  0  2.082235  0  0  0.77425  0.851632  0  2.16802  0
Cd  Cd1  1  0.79565825  0.50020755  0.50015242  1  0  1.084563  0  1.689806  0  0  0.893171  0  2.136433  0  0  0.951956  0  2.08534  0  0  0.77488  0.851537  0  2.171187  0
H  H2  1  0.44514519  0.89843327  0.69990966  1  0  0.101771  0  0.960463  0  0  0.111065  0  1.022828  0  0  0.1139  0  1.021683  0  0  0.104174  0.108911  0  1.023908  0
H  H3  1  0.04339944  0.10189042  0.30028410  1  0  0.101388  0  0.960141  0  0  0.110382  0  1.023023  0  0  0.113172  0  1.021977  0  0  0.10391  0.108335  0  1.023949  0
H  H4  1  0.09338389  0.60162275  0.20008005  1  0  0.102691  0  0.959189  0  0  0.11149  0  1.02225  0  0  0.114321  0  1.021137  0  0  0.10451  0.109426  0  1.023194  0
H  H5  1  0.89555591  0.39825653  0.79974734  1  0  0.102187  0  0.959798  0  0  0.111472  0  1.02207  0  0  0.114303  0  1.020978  0  0  0.104422  0.109299  0  1.02318  0
H  H6  1  0.77913824  0.84276588  0.58649477  1  0  0.121743  0  0.944246  0  0  0.13099  0  1.005507  0  0  0.134303  0  1.003881  0  0  0.112358  0.128563  0  1.006852  0
H  H7  1  0.20853623  0.15778142  0.41359359  1  0  0.121678  0  0.943992  0  0  0.130484  0  1.005859  0  0  0.133884  0  1.004119  0  0  0.112046  0.128058  0  1.00713  0
H  H8  1  0.37177552  0.65710590  0.08661706  1  0  0.121134  0  0.945175  0  0  0.130181  0  1.006759  0  0  0.133511  0  1.005089  0  0  0.112121  0.127786  0  1.008018  0
H  H9  1  0.11584592  0.34252244  0.91335308  1  0  0.121822  0  0.943912  0  0  0.130506  0  1.005938  0  0  0.133876  0  1.004271  0  0  0.112227  0.128045  0  1.007299  0
H  H10  1  0.11517092  0.69611867  0.79550055  1  0  0.11285  0  0.941745  0  0  0.12377  0  1.001075  0  0  0.126715  0  1.000179  0  0  0.109942  0.121727  0  1.001699  0
H  H11  1  0.60711264  0.30403486  0.20436193  1  0  0.112459  0  0.944009  0  0  0.123551  0  1.002892  0  0  0.126492  0  1.002026  0  0  0.109893  0.12141  0  1.003818  0
H  H12  1  0.56162190  0.80381696  0.29546918  1  0  0.112192  0  0.943933  0  0  0.12371  0  1.002547  0  0  0.126679  0  1.001615  0  0  0.109413  0.121565  0  1.00347  0
H  H13  1  0.66113653  0.19598424  0.70456531  1  0  0.111937  0  0.943994  0  0  0.12331  0  1.002812  0  0  0.126214  0  1.001984  0  0  0.109676  0.121304  0  1.003371  0
H  H14  1  0.78218546  0.73766625  0.90568394  1  0  0.101025  0  0.97385  0  0  0.105586  0  1.042592  0  0  0.10867  0  1.041236  0  0  0.102733  0.103293  0  1.043705  0
H  H15  1  0.42569861  0.26231608  0.09429187  1  0  0.100335  0  0.974633  0  0  0.105152  0  1.043051  0  0  0.108245  0  1.041684  0  0  0.102763  0.102932  0  1.044125  0
H  H16  1  0.27001760  0.76247377  0.40565480  1  0  0.100852  0  0.973262  0  0  0.105536  0  1.041955  0  0  0.108614  0  1.040603  0  0  0.102968  0.103319  0  1.043017  0
H  H17  1  0.43867741  0.23762297  0.59424326  1  0  0.100702  0  0.973548  0  0  0.105209  0  1.042511  0  0  0.108287  0  1.041161  0  0  0.102675  0.102925  0  1.04362  0
H  H18  1  0.20151123  0.08004152  0.57274264  1  0  0.143616  0  0.94538  0  0  0.163737  0  1.002039  0  0  0.16581  0  1.001611  0  0  0.104834  0.162245  0  1.002194  0
H  H19  1  0.85361852  0.92007931  0.42736752  1  0  0.142539  0  0.94485  0  0  0.161911  0  1.002566  0  0  0.164033  0  1.002066  0  0  0.103951  0.160457  0  1.002894  0
H  H20  1  0.03111699  0.41986989  0.07260219  1  0  0.143494  0  0.946103  0  0  0.163104  0  1.00322  0  0  0.165219  0  1.00276  0  0  0.104919  0.161647  0  1.003544  0
H  H21  1  0.52397864  0.57987810  0.92735179  1  0  0.143035  0  0.945643  0  0  0.162439  0  1.003056  0  0  0.164531  0  1.002606  0  0  0.104404  0.160933  0  1.003227  0
H  H22  1  0.04748433  0.03988106  0.67216544  1  0  0.135581  0  0.926117  0  0  0.154929  0  0.985384  0  0  0.157098  0  0.984499  0  0  0.10252  0.153363  0  0.985951  0
H  H23  1  0.75888269  0.96026281  0.32797465  1  0  0.135186  0  0.926715  0  0  0.154526  0  0.985844  0  0  0.156705  0  0.984944  0  0  0.102487  0.153067  0  0.986359  0
H  H24  1  0.83707680  0.45979919  0.17199514  1  0  0.135075  0  0.926444  0  0  0.153929  0  0.986187  0  0  0.156073  0  0.985321  0  0  0.102056  0.152496  0  0.986679  0
H  H25  1  0.46904311  0.54002665  0.82795706  1  0  0.134854  0  0.926497  0  0  0.153655  0  0.986236  0  0  0.155823  0  0.985337  0  0  0.101911  0.152093  0  0.986806  0
H  H26  1  0.96705873  0.05699899  0.56910755  1  0  0.137816  0  0.963599  0  0  0.147141  0  1.040792  0  0  0.150139  0  1.038951  0  0  0.097634  0.144883  0  1.042078  0
H  H27  1  0.59244888  0.94330153  0.43105135  1  0  0.137515  0  0.963999  0  0  0.146877  0  1.041104  0  0  0.149894  0  1.03927  0  0  0.09752  0.144888  0  1.042235  0
H  H28  1  0.77368686  0.44296070  0.06890118  1  0  0.137815  0  0.961584  0  0  0.146643  0  1.039362  0  0  0.149663  0  1.037491  0  0  0.097617  0.144664  0  1.040507  0
H  H29  1  0.28596897  0.55662262  0.93109272  1  0  0.137129  0  0.963072  0  0  0.146393  0  1.040335  0  0  0.149373  0  1.038497  0  0  0.097338  0.14414  0  1.041628  0
H  H30  1  0.30900280  0.52383898  0.61532576  1  0  0.106058  0  0.952463  0  0  0.11443  0  1.018765  0  0  0.116188  0  1.017265  0  0  0.14159  0.113281  0  1.019562  0
H  H31  1  0.44930730  0.47637007  0.38454881  1  0  0.107236  0  0.951034  0  0  0.11524  0  1.017453  0  0  0.117123  0  1.015797  0  0  0.141896  0.113904  0  1.01851  0
H  H32  1  0.58385962  0.97605031  0.11529822  1  0  0.10642  0  0.950132  0  0  0.114645  0  1.01672  0  0  0.116424  0  1.01513  0  0  0.141706  0.11337  0  1.017711  0
H  H33  1  0.67463258  0.02366144  0.88491594  1  0  0.106665  0  0.949685  0  0  0.114276  0  1.016913  0  0  0.11614  0  1.015259  0  0  0.141829  0.113055  0  1.017808  0
C  C34  1  0.39524694  0.86817037  0.87713818  1  0  0.614251  0  3.960042  0  0  0.570989  0  4.243485  0  0  0.604646  0  4.239078  0  0  0.183236  0.548321  0  4.245232  0
C  C35  1  0.14059256  0.13185207  0.12295370  1  0  0.615551  0  3.955336  0  0  0.572095  0  4.238256  0  0  0.605769  0  4.233804  0  0  0.184513  0.549447  0  4.240321  0
C  C36  1  0.01318158  0.63196263  0.37731402  1  0  0.615955  0  3.955617  0  0  0.572762  0  4.238668  0  0  0.606395  0  4.234214  0  0  0.184173  0.550141  0  4.240749  0
C  C37  1  0.02349775  0.36801983  0.62243878  1  0  0.611725  0  3.958832  0  0  0.568739  0  4.24186  0  0  0.602366  0  4.237556  0  0  0.182844  0.546104  0  4.243522  0
C  C38  1  0.59409845  0.82200559  0.80911177  1  0  -0.069275  0  3.76664  0  0  -0.046782  0  3.996855  0  0  -0.05462  0  4.019806  0  0  -0.017924  -0.041768  0  3.981109  0
C  C39  1  0.22532184  0.17805655  0.19096950  1  0  -0.070757  0  3.763386  0  0  -0.047027  0  3.99204  0  0  -0.054917  0  4.014989  0  0  -0.018249  -0.042375  0  3.97711  0
C  C40  1  0.16617842  0.67791433  0.30923011  1  0  -0.069559  0  3.766878  0  0  -0.046898  0  3.996651  0  0  -0.054692  0  4.01951  0  0  -0.01766  -0.042306  0  3.981771  0
C  C41  1  0.15392803  0.32198543  0.69065981  1  0  -0.066806  0  3.764117  0  0  -0.043794  0  3.993381  0  0  -0.051694  0  4.016421  0  0  -0.017278  -0.038745  0  3.977572  0
C  C42  1  0.59311151  0.85092354  0.71927596  1  0  -0.048984  0  3.727023  0  0  -0.073001  0  3.974652  0  0  -0.072632  0  3.995205  0  0  -0.078544  -0.073085  0  3.960877  0
C  C43  1  0.16337446  0.14933758  0.28083311  1  0  -0.049899  0  3.725793  0  0  -0.074038  0  3.972965  0  0  -0.073655  0  3.993544  0  0  -0.078931  -0.074076  0  3.959512  0
C  C44  1  0.19412747  0.64895431  0.21941704  1  0  -0.049668  0  3.725452  0  0  -0.073365  0  3.973154  0  0  -0.07304  0  3.993731  0  0  -0.078999  -0.073378  0  3.959707  0
C  C45  1  0.06291223  0.35084722  0.78047143  1  0  -0.050717  0  3.724838  0  0  -0.074886  0  3.972566  0  0  -0.074502  0  3.993166  0  0  -0.079542  -0.074992  0  3.958743  0
C  C46  1  0.77772318  0.82329191  0.65672445  1  0  -0.12663  0  3.703025  0  0  -0.14731  0  3.954425  0  0  -0.150809  0  3.974011  0  0  -0.079384  -0.145024  0  3.941193  0
C  C47  1  0.25797125  0.17700899  0.34332857  1  0  -0.126216  0  3.704559  0  0  -0.146474  0  3.955801  0  0  -0.150023  0  3.975297  0  0  -0.079069  -0.143892  0  3.942589  0
C  C48  1  0.35121739  0.67649515  0.15682546  1  0  -0.125769  0  3.703923  0  0  -0.146746  0  3.955126  0  0  -0.150217  0  3.974691  0  0  -0.07913  -0.144208  0  3.941884  0
C  C49  1  0.18477981  0.32318727  0.84312820  1  0  -0.126784  0  3.702309  0  0  -0.147104  0  3.954191  0  0  -0.150653  0  3.973719  0  0  -0.079029  -0.144762  0  3.940957  0
C  C50  1  0.96353974  0.76934570  0.68559577  1  0  0.185139  0  3.765981  0  0  0.1797  0  4.011588  0  0  0.184748  0  4.034579  0  0  0.096378  0.176409  0  3.996002  0
C  C51  1  0.41882144  0.23089577  0.31436968  1  0  0.187697  0  3.764713  0  0  0.182255  0  4.010875  0  0  0.187319  0  4.033825  0  0  0.098239  0.178988  0  3.995094  0
C  C52  1  0.48325321  0.73046945  0.18557851  1  0  0.184237  0  3.767315  0  0  0.179827  0  4.011805  0  0  0.184849  0  4.034823  0  0  0.096938  0.176594  0  3.995975  0
C  C53  1  0.39947427  0.26922433  0.81438272  1  0  0.186006  0  3.764311  0  0  0.180166  0  4.010174  0  0  0.18524  0  4.03315  0  0  0.097118  0.176866  0  3.994586  0
C  C54  1  0.96837730  0.73587351  0.77445952  1  0  -0.134474  0  3.7288  0  0  -0.156025  0  3.97985  0  0  -0.159711  0  4.000053  0  0  -0.08274  -0.153741  0  3.96611  0
C  C55  1  0.47900239  0.26425745  0.22548400  1  0  -0.134924  0  3.729563  0  0  -0.156481  0  3.980689  0  0  -0.160193  0  4.000923  0  0  -0.083814  -0.154254  0  3.967652  0
C  C56  1  0.45456270  0.76402057  0.27441855  1  0  -0.133803  0  3.72869  0  0  -0.156209  0  3.979418  0  0  -0.159919  0  3.999688  0  0  -0.082981  -0.15399  0  3.966374  0
C  C57  1  0.49329836  0.23581806  0.72554623  1  0  -0.130683  0  3.728151  0  0  -0.15251  0  3.979276  0  0  -0.156154  0  3.999533  0  0  -0.081501  -0.150247  0  3.965507  0
C  C58  1  0.78262661  0.76070934  0.83589337  1  0  -0.066218  0  3.74678  0  0  -0.085346  0  3.993379  0  0  -0.085222  0  4.013072  0  0  -0.083449  -0.085099  0  3.979736  0
C  C59  1  0.37944419  0.23933000  0.16410090  1  0  -0.064081  0  3.742594  0  0  -0.083732  0  3.988568  0  0  -0.083573  0  4.00823  0  0  -0.082649  -0.083752  0  3.975678  0
C  C60  1  0.29352316  0.73928485  0.33589854  1  0  -0.065497  0  3.744026  0  0  -0.084749  0  3.990732  0  0  -0.084622  0  4.010392  0  0  -0.083343  -0.08477  0  3.977901  0
C  C61  1  0.36921596  0.26067790  0.66401390  1  0  -0.068652  0  3.744753  0  0  -0.088212  0  3.991983  0  0  -0.088085  0  4.011736  0  0  -0.084245  -0.087971  0  3.978286  0
C  C62  1  0.10110539  0.01837132  0.60061985  1  0  -0.402349  0  3.70931  0  0  -0.481836  0  3.949746  0  0  -0.486344  0  3.95545  0  0  -0.235229  -0.47837  0  3.945329  0
C  C63  1  0.71953082  0.98183915  0.39950663  1  0  -0.400625  0  3.709091  0  0  -0.479715  0  3.949066  0  0  -0.48427  0  3.954825  0  0  -0.234359  -0.476431  0  3.94486  0
C  C64  1  0.86916390  0.48151235  0.10046513  1  0  -0.401793  0  3.708092  0  0  -0.479679  0  3.948885  0  0  -0.484213  0  3.954648  0  0  -0.235009  -0.476437  0  3.944633  0
C  C65  1  0.45149172  0.51820098  0.89947624  1  0  -0.400004  0  3.708492  0  0  -0.477854  0  3.949256  0  0  -0.482359  0  3.955077  0  0  -0.233638  -0.474378  0  3.944744  0
C  C66  1  0.22016715  0.86401906  0.58506126  1  0  0.362529  0  3.693058  0  0  0.343664  0  3.966776  0  0  0.357774  0  3.979356  0  0  0.2321  0.334122  0  3.958139  0
C  C67  1  0.66922116  0.13617619  0.41499426  1  0  0.362861  0  3.690568  0  0  0.344445  0  3.964319  0  0  0.358454  0  3.976995  0  0  0.232544  0.335123  0  3.955611  0
C  C68  1  0.83426494  0.63589062  0.08495645  1  0  0.364107  0  3.690347  0  0  0.343994  0  3.965379  0  0  0.358067  0  3.978003  0  0  0.232589  0.334695  0  3.956624  0
C  C69  1  0.55528223  0.36385470  0.91498995  1  0  0.363332  0  3.686362  0  0  0.342747  0  3.961857  0  0  0.356805  0  3.974501  0  0  0.231862  0.333251  0  3.953178  0
C  C70  1  0.31243026  0.63032589  0.59670278  1  0  0.192021  0  3.636578  0  0  0.123415  0  3.907927  0  0  0.139353  0  3.918113  0  0  0.166765  0.112692  0  3.901025  0
C  C71  1  0.54026122  0.36987488  0.40322967  1  0  0.191911  0  3.639461  0  0  0.124078  0  3.910712  0  0  0.140003  0  3.920774  0  0  0.167675  0.113686  0  3.903623  0
C  C72  1  0.69346454  0.86957670  0.09662234  1  0  0.192907  0  3.637385  0  0  0.124281  0  3.908725  0  0  0.140341  0  3.918757  0  0  0.167101  0.113839  0  3.901619  0
C  C73  1  0.65929478  0.13016757  0.90350183  1  0  0.194316  0  3.635544  0  0  0.125889  0  3.90703  0  0  0.141816  0  3.917114  0  0  0.167534  0.115195  0  3.900176  0
N  N74  1  0.46601620  0.66157436  0.54412810  1  0  -0.278801  0  3.214645  0  0  -0.213435  0  3.518523  0  0  -0.231592  0  3.53373  0  0  -0.247645  -0.201128  0  3.508083  0
N  N75  1  0.67221856  0.33854851  0.45591812  1  0  -0.278579  0  3.21973  0  0  -0.213012  0  3.523312  0  0  -0.231215  0  3.538567  0  0  -0.247961  -0.200638  0  3.512593  0
N  N76  1  0.87817746  0.83835681  0.04404421  1  0  -0.278476  0  3.216811  0  0  -0.213049  0  3.520578  0  0  -0.231243  0  3.535777  0  0  -0.247376  -0.200669  0  3.50987  0
N  N77  1  0.76019950  0.16145982  0.95608082  1  0  -0.279128  0  3.215844  0  0  -0.213536  0  3.519345  0  0  -0.231735  0  3.534574  0  0  -0.247623  -0.201205  0  3.508883  0
N  N78  1  0.40953209  0.80872841  0.53652517  1  0  -0.287194  0  2.899936  0  0  -0.269565  0  3.172553  0  0  -0.278828  0  3.187024  0  0  -0.224758  -0.263305  0  3.162696  0
N  N79  1  0.75480171  0.19140046  0.46358384  1  0  -0.287541  0  2.899504  0  0  -0.270017  0  3.171771  0  0  -0.279194  0  3.186214  0  0  -0.225142  -0.263675  0  3.161787  0
N  N80  1  0.96844068  0.69120985  0.03641279  1  0  -0.288393  0  2.90019  0  0  -0.270483  0  3.173187  0  0  -0.279683  0  3.187611  0  0  -0.225068  -0.264139  0  3.163178  0
N  N81  1  0.69603329  0.30862465  0.96358750  1  0  -0.287429  0  2.896662  0  0  -0.269314  0  3.169644  0  0  -0.278538  0  3.184108  0  0  -0.224106  -0.263086  0  3.159791  0
N  N82  1  0.15399963  0.75414759  0.62399920  1  0  -0.16592  0  3.529842  0  0  -0.081029  0  3.745885  0  0  -0.097561  0  3.765983  0  0  -0.212873  -0.070038  0  3.73218  0
N  N83  1  0.53262624  0.24609532  0.37592734  1  0  -0.16856  0  3.525994  0  0  -0.084969  0  3.744125  0  0  -0.101524  0  3.764301  0  0  -0.214431  -0.074105  0  3.730403  0
N  N84  1  0.65850183  0.74574347  0.12392622  1  0  -0.167632  0  3.527206  0  0  -0.082466  0  3.743355  0  0  -0.099038  0  3.763529  0  0  -0.213214  -0.071631  0  3.729646  0
N  N85  1  0.52819515  0.25396681  0.87607922  1  0  -0.169576  0  3.524892  0  0  -0.083302  0  3.740613  0  0  -0.099875  0  3.760784  0  0  -0.214053  -0.072314  0  3.7269  0
O  O86  1  0.22807531  0.93658453  0.85114081  1  0  -0.638758  0  1.914889  0  0  -0.579588  0  2.143212  0  0  -0.607846  0  2.135654  0  0  -0.342967  -0.560001  0  2.147624  0
O  O87  1  0.01574763  0.06343489  0.14895518  1  0  -0.638832  0  1.911254  0  0  -0.579806  0  2.139364  0  0  -0.608033  0  2.131859  0  0  -0.343599  -0.560039  0  2.143562  0
O  O88  1  0.91410763  0.56370089  0.35135662  1  0  -0.639046  0  1.91264  0  0  -0.579956  0  2.14101  0  0  -0.608102  0  2.133297  0  0  -0.34379  -0.560216  0  2.145271  0
O  O89  1  0.83031989  0.43664249  0.64833373  1  0  -0.63802  0  1.914875  0  0  -0.578744  0  2.143391  0  0  -0.607054  0  2.135817  0  0  -0.343261  -0.55912  0  2.147812  0
O  O90  1  0.40237681  0.84337151  0.95864546  1  0  -0.638438  0  1.938713  0  0  -0.582248  0  2.178062  0  0  -0.610465  0  2.170151  0  0  -0.336314  -0.562385  0  2.18242  0
O  O91  1  0.20449372  0.15665016  0.04143510  1  0  -0.638808  0  1.938371  0  0  -0.582417  0  2.177588  0  0  -0.610626  0  2.169644  0  0  -0.336805  -0.56266  0  2.182311  0
O  O92  1  0.99555048  0.65678586  0.45880267  1  0  -0.639693  0  1.938019  0  0  -0.583427  0  2.177321  0  0  -0.611558  0  2.169219  0  0  -0.336793  -0.563686  0  2.182081  0
O  O93  1  0.11222570  0.34289447  0.54102344  1  0  -0.637559  0  1.937913  0  0  -0.581684  0  2.176804  0  0  -0.609714  0  2.1688  0  0  -0.336304  -0.561935  0  2.181156  0
