# generated using pymatgen
data_Cd2H18C21N2O9
_symmetry_space_group_name_H-M   'P 1'
_cell_length_a   8.11885542
_cell_length_b   10.12270601
_cell_length_c   14.16817661
_cell_angle_alpha   75.49665713
_cell_angle_beta   78.21822627
_cell_angle_gamma   73.15196271
_symmetry_Int_Tables_number   1
_chemical_formula_structural   Cd2H18C21N2O9
_chemical_formula_sum   'Cd4 H36 C42 N4 O18'
_cell_volume   1067.97773050
_cell_formula_units_Z   2
loop_
 _symmetry_equiv_pos_site_id
 _symmetry_equiv_pos_as_xyz
  1  'x, y, z'
loop_
 _atom_site_type_symbol
 _atom_site_label
 _atom_site_symmetry_multiplicity
 _atom_site_fract_x
 _atom_site_fract_y
 _atom_site_fract_z
 _atom_site_occupancy
 _atom_site_hle17_bader_spin_density
 _atom_site_hle17_ddec_charge
 _atom_site_hle17_ddec_spin_density
 _atom_site_hle17_ddec_sum_bond_order
 _atom_site_hle17_magmom
 _atom_site_hse06_10hf_bader_spin_density
 _atom_site_hse06_10hf_ddec_charge
 _atom_site_hse06_10hf_ddec_spin_density
 _atom_site_hse06_10hf_ddec_sum_bond_order
 _atom_site_hse06_10hf_magmom
 _atom_site_hse06_bader_spin_density
 _atom_site_hse06_ddec_charge
 _atom_site_hse06_ddec_spin_density
 _atom_site_hse06_ddec_sum_bond_order
 _atom_site_hse06_magmom
 _atom_site_pbe_bader_spin_density
 _atom_site_pbe_cm5_charge
 _atom_site_pbe_ddec_charge
 _atom_site_pbe_ddec_spin_density
 _atom_site_pbe_ddec_sum_bond_order
 _atom_site_pbe_magmom
Cd  Cd0  1  0.18608798  0.06827170  0.17951867  1  0  1.198437  0  1.682048  0  0  1.012518  0  2.138352  0  0  1.06859  0  2.083458  0  0  0.764905  0.971922  0  2.176363  0
Cd  Cd1  1  0.81391266  0.93172754  0.82048165  1  0  1.198411  0  1.682069  0  0  1.012487  0  2.138388  0  0  1.068559  0  2.083496  0  0  0.764901  0.971887  0  2.176373  0
Cd  Cd2  1  0.61281257  0.84891291  0.07892790  1  0  1.252438  0  1.657831  0  0  1.08201  0  2.104628  0  0  1.133838  0  2.048936  0  0  0.754384  1.044845  0  2.142975  0
Cd  Cd3  1  0.38718777  0.15108737  0.92107156  1  0  1.252438  0  1.657827  0  0  1.082023  0  2.104622  0  0  1.133851  0  2.048931  0  0  0.75439  1.044857  0  2.142972  0
H  H4  1  0.26301478  0.31890620  0.09272219  1  0  0.43116  0  0.86319  0  0  0.402492  0  0.921833  0  0  0.413843  0  0.905023  0  0  0.293192  0.394399  0  0.933797  0
H  H5  1  0.73698610  0.68109196  0.90727477  1  0  0.431122  0  0.863233  0  0  0.402461  0  0.921866  0  0  0.413811  0  0.905056  0  0  0.293207  0.394364  0  0.933835  0
H  H6  1  0.47431183  0.27186355  0.06973926  1  0  0.435128  0  0.870959  0  0  0.40153  0  0.938714  0  0  0.412813  0  0.922507  0  0  0.286955  0.393594  0  0.950079  0
H  H7  1  0.52568823  0.72813779  0.93026074  1  0  0.435099  0  0.871  0  0  0.401503  0  0.93875  0  0  0.412786  0  0.922543  0  0  0.286923  0.393566  0  0.950115  0
H  H8  1  0.27290517  0.91407841  0.03081758  1  0  0.418773  0  0.858972  0  0  0.392882  0  0.919173  0  0  0.402903  0  0.904974  0  0  0.288027  0.385573  0  0.929511  0
H  H9  1  0.72709645  0.08592184  0.96918244  1  0  0.418722  0  0.859017  0  0  0.392831  0  0.91924  0  0  0.402853  0  0.905041  0  0  0.288006  0.385518  0  0.929586  0
H  H10  1  0.97595332  0.76573468  0.02148159  1  0  0.425883  0  0.879574  0  0  0.39072  0  0.948932  0  0  0.403146  0  0.930876  0  0  0.284388  0.381883  0  0.96175  0
H  H11  1  0.02404605  0.23426459  0.97851888  1  0  0.425863  0  0.879593  0  0  0.390737  0  0.948897  0  0  0.403162  0  0.930842  0  0  0.284409  0.381903  0  0.96171  0
H  H12  1  0.92441460  0.64119984  0.11420507  1  0  0.427539  0  0.87133  0  0  0.395389  0  0.935971  0  0  0.407409  0  0.918357  0  0  0.289161  0.386732  0  0.948662  0
H  H13  1  0.07558507  0.35879838  0.88579696  1  0  0.427548  0  0.871331  0  0  0.395398  0  0.935972  0  0  0.407418  0  0.918359  0  0  0.289169  0.38674  0  0.948668  0
H  H14  1  0.83283919  0.33210729  0.41208531  1  0  0.081291  0  0.969256  0  0  0.09223  0  1.035477  0  0  0.095317  0  1.033685  0  0  0.095424  0.090007  0  1.036914  0
H  H15  1  0.16715779  0.66789624  0.58791678  1  0  0.08132  0  0.969244  0  0  0.092262  0  1.035451  0  0  0.095349  0  1.033659  0  0  0.095455  0.090041  0  1.036889  0
H  H16  1  0.62913177  0.19153559  0.51560292  1  0  0.0884  0  0.957238  0  0  0.101433  0  1.016068  0  0  0.104377  0  1.014769  0  0  0.099093  0.099313  0  1.017086  0
H  H17  1  0.37086800  0.80846680  0.48439622  1  0  0.088398  0  0.95725  0  0  0.10144  0  1.016061  0  0  0.1044  0  1.014743  0  0  0.099104  0.09932  0  1.017083  0
H  H18  1  0.48408641  0.07232803  0.43415936  1  0  0.092794  0  0.965769  0  0  0.104411  0  1.026974  0  0  0.107383  0  1.025179  0  0  0.100195  0.102238  0  1.028415  0
H  H19  1  0.51591533  0.92767641  0.56583987  1  0  0.092741  0  0.96577  0  0  0.10437  0  1.026973  0  0  0.107331  0  1.02519  0  0  0.100165  0.102199  0  1.028412  0
H  H20  1  0.47645045  0.23952943  0.68477972  1  0  0.073889  0  0.949923  0  0  0.082431  0  1.016333  0  0  0.084517  0  1.014645  0  0  0.11187  0.080863  0  1.017647  0
H  H21  1  0.52355363  0.76047072  0.31521366  1  0  0.073827  0  0.949936  0  0  0.082395  0  1.016326  0  0  0.084481  0  1.01464  0  0  0.111857  0.080825  0  1.017641  0
H  H22  1  0.61133984  0.40739302  0.55472639  1  0  0.094327  0  0.974333  0  0  0.105627  0  1.03816  0  0  0.108001  0  1.038236  0  0  0.101431  0.103948  0  1.038218  0
H  H23  1  0.38865877  0.59261358  0.44527071  1  0  0.094369  0  0.974303  0  0  0.105672  0  1.038116  0  0  0.108047  0  1.038194  0  0  0.101447  0.103993  0  1.038177  0
H  H24  1  0.69694231  0.57785690  0.78628995  1  0  0.118221  0  0.963809  0  0  0.126598  0  1.025531  0  0  0.130746  0  1.023454  0  0  0.109752  0.123712  0  1.026904  0
H  H25  1  0.30306444  0.42213381  0.21371260  1  0  0.118267  0  0.963681  0  0  0.126625  0  1.025434  0  0  0.130772  0  1.02336  0  0  0.109758  0.123739  0  1.026811  0
H  H26  1  0.54946247  0.40645522  0.90737026  1  0  0.091711  0  0.941067  0  0  0.100392  0  1.003191  0  0  0.103585  0  0.999477  0  0  0.120352  0.097911  0  1.006163  0
H  H27  1  0.45053916  0.59353560  0.09262936  1  0  0.091691  0  0.941032  0  0  0.100308  0  1.003231  0  0  0.1035  0  0.999516  0  0  0.120308  0.097821  0  1.006201  0
H  H28  1  0.78955895  0.67905220  0.62651299  1  0  0.102465  0  0.944498  0  0  0.113222  0  1.006147  0  0  0.116217  0  1.004355  0  0  0.106952  0.111111  0  1.007324  0
H  H29  1  0.21044140  0.32094809  0.37348717  1  0  0.102436  0  0.944472  0  0  0.113184  0  1.006142  0  0  0.116194  0  1.004335  0  0  0.106944  0.111075  0  1.007322  0
H  H30  1  0.75954430  0.54861633  0.45745038  1  0  0.086817  0  0.960017  0  0  0.099874  0  1.021976  0  0  0.102558  0  1.020996  0  0  0.101425  0.09792  0  1.022846  0
H  H31  1  0.24046511  0.45137849  0.54255181  1  0  0.086852  0  0.959927  0  0  0.099895  0  1.021916  0  0  0.102579  0  1.020938  0  0  0.10143  0.097943  0  1.022789  0
H  H32  1  0.02264370  0.82117046  0.18217355  1  0  0.092685  0  0.95383  0  0  0.100464  0  1.016714  0  0  0.103882  0  1.012604  0  0  0.118074  0.097844  0  1.019857  0
H  H33  1  0.97735482  0.17883198  0.81782785  1  0  0.092682  0  0.953761  0  0  0.100487  0  1.016623  0  0  0.103906  0  1.012511  0  0  0.118082  0.097866  0  1.019766  0
H  H34  1  0.88045951  0.64604413  0.29475668  1  0  0.122551  0  0.964788  0  0  0.130368  0  1.027687  0  0  0.133991  0  1.026823  0  0  0.109832  0.127697  0  1.028486  0
H  H35  1  0.11954184  0.35395719  0.70524458  1  0  0.122617  0  0.964743  0  0  0.130438  0  1.027622  0  0  0.134062  0  1.026757  0  0  0.109867  0.127771  0  1.028421  0
H  H36  1  0.90535861  0.83133850  0.53460148  1  0  0.102526  0  0.965626  0  0  0.114404  0  1.025979  0  0  0.117512  0  1.024554  0  0  0.106482  0.112098  0  1.027233  0
H  H37  1  0.09463570  0.16866091  0.46540098  1  0  0.102515  0  0.965655  0  0  0.11443  0  1.025961  0  0  0.117543  0  1.02453  0  0  0.106497  0.112122  0  1.027219  0
H  H38  1  0.06756000  0.98852567  0.41250825  1  0  0.072326  0  0.949848  0  0  0.0837  0  1.013598  0  0  0.085365  0  1.012305  0  0  0.113946  0.08248  0  1.014478  0
H  H39  1  0.93242725  0.01148126  0.58749440  1  0  0.072305  0  0.949826  0  0  0.083712  0  1.013528  0  0  0.085389  0  1.012202  0  0  0.113978  0.082483  0  1.01443  0
C  C40  1  0.61999466  0.13173792  0.29053893  1  0  -0.05812  0  3.710238  0  0  -0.042168  0  3.94529  0  0  -0.047682  0  3.965358  0  0  -0.013784  -0.038572  0  3.931852  0
C  C41  1  0.38000508  0.86826445  0.70945740  1  0  -0.058158  0  3.710252  0  0  -0.042185  0  3.945317  0  0  -0.0477  0  3.965381  0  0  -0.013789  -0.038585  0  3.931875  0
C  C42  1  0.74100868  0.20530714  0.23228742  1  0  -0.087633  0  3.690293  0  0  -0.083185  0  3.927736  0  0  -0.085977  0  3.946691  0  0  -0.007771  -0.081218  0  3.915092  0
C  C43  1  0.25899166  0.79469314  0.76771274  1  0  -0.087503  0  3.690223  0  0  -0.083118  0  3.927716  0  0  -0.085909  0  3.946672  0  0  -0.007782  -0.081152  0  3.915075  0
C  C44  1  0.81595647  0.27888985  0.27704623  1  0  -0.075815  0  3.732562  0  0  -0.059656  0  3.970898  0  0  -0.064093  0  3.99054  0  0  -0.015493  -0.056908  0  3.957759  0
C  C45  1  0.18404458  0.72111251  0.72295417  1  0  -0.075992  0  3.732694  0  0  -0.05977  0  3.970971  0  0  -0.064207  0  3.990617  0  0  -0.015467  -0.057027  0  3.957837  0
C  C46  1  0.77320593  0.27487948  0.37853742  1  0  -0.094123  0  3.774159  0  0  -0.12099  0  4.034526  0  0  -0.121143  0  4.053285  0  0  -0.09534  -0.120721  0  4.021766  0
C  C47  1  0.22679189  0.72512088  0.62146303  1  0  -0.094017  0  3.774082  0  0  -0.120893  0  4.034435  0  0  -0.121044  0  4.053195  0  0  -0.095341  -0.120623  0  4.021681  0
C  C48  1  0.65793850  0.19806396  0.43618146  1  0  -0.080975  0  3.805622  0  0  -0.096858  0  4.065769  0  0  -0.098374  0  4.085317  0  0  -0.100741  -0.095843  0  4.052475  0
C  C49  1  0.34206282  0.80193734  0.56381699  1  0  -0.081024  0  3.805669  0  0  -0.096919  0  4.065831  0  0  -0.098446  0  4.085374  0  0  -0.100764  -0.09591  0  4.052548  0
C  C50  1  0.57893943  0.12939787  0.39151395  1  0  -0.078166  0  3.758405  0  0  -0.103429  0  4.00993  0  0  -0.103047  0  4.028861  0  0  -0.091042  -0.103665  0  3.99732  0
C  C51  1  0.42105865  0.87060142  0.60848456  1  0  -0.078098  0  3.758505  0  0  -0.103361  0  4.010016  0  0  -0.102972  0  4.028959  0  0  -0.091021  -0.103598  0  3.997409  0
C  C52  1  0.53913007  0.04814654  0.24737832  1  0  0.661673  0  3.926116  0  0  0.60924  0  4.222917  0  0  0.644659  0  4.214071  0  0  0.204681  0.585057  0  4.228062  0
C  C53  1  0.46086184  0.95185713  0.75262436  1  0  0.661622  0  3.92631  0  0  0.609195  0  4.223117  0  0  0.644616  0  4.214271  0  0  0.204714  0.585006  0  4.228263  0
C  C54  1  0.78816378  0.21156949  0.12254454  1  0  0.691311  0  3.883703  0  0  0.632412  0  4.192006  0  0  0.667697  0  4.181215  0  0  0.214695  0.608277  0  4.19878  0
C  C55  1  0.21183559  0.78842978  0.87745593  1  0  0.691276  0  3.883808  0  0  0.632383  0  4.192111  0  0  0.667668  0  4.181323  0  0  0.214704  0.608241  0  4.198893  0
C  C56  1  0.94059215  0.36614034  0.21914113  1  0  0.676156  0  3.904456  0  0  0.620006  0  4.209823  0  0  0.654227  0  4.201011  0  0  0.210166  0.596598  0  4.215048  0
C  C57  1  0.05940620  0.63386732  0.78085792  1  0  0.67609  0  3.90441  0  0  0.619935  0  4.209787  0  0  0.654149  0  4.200992  0  0  0.210132  0.59654  0  4.215001  0
C  C58  1  0.52478198  0.31795041  0.70392497  1  0  0.124863  0  3.743832  0  0  0.0917  0  4.00585  0  0  0.099021  0  4.024089  0  0  0.040882  0.08672  0  3.99378  0
C  C59  1  0.47521988  0.68204877  0.29607098  1  0  0.124879  0  3.743953  0  0  0.091691  0  4.005967  0  0  0.099013  0  4.024207  0  0  0.040827  0.086712  0  3.993894  0
C  C60  1  0.60179033  0.41121160  0.63187798  1  0  -0.166991  0  3.702453  0  0  -0.182831  0  3.947173  0  0  -0.1913  0  3.970315  0  0  -0.085271  -0.177416  0  3.93195  0
C  C61  1  0.39821069  0.58879075  0.36811961  1  0  -0.166974  0  3.702386  0  0  -0.182813  0  3.947117  0  0  -0.191283  0  3.970261  0  0  -0.085244  -0.177393  0  3.931889  0
C  C62  1  0.66741232  0.50788138  0.65989054  1  0  0.132394  0  3.802211  0  0  0.147989  0  4.03051  0  0  0.15237  0  4.054835  0  0  0.006829  0.145207  0  4.014024  0
C  C63  1  0.33259141  0.49211567  0.34010840  1  0  0.132366  0  3.802203  0  0  0.147939  0  4.030528  0  0  0.152318  0  4.054861  0  0  0.006803  0.145149  0  4.014049  0
C  C64  1  0.64658577  0.50589270  0.76109428  1  0  -0.142589  0  3.649321  0  0  -0.161072  0  3.895999  0  0  -0.169543  0  3.91681  0  0  -0.074644  -0.155663  0  3.882087  0
C  C65  1  0.35342081  0.49410324  0.23890733  1  0  -0.142685  0  3.649301  0  0  -0.161149  0  3.896  0  0  -0.169622  0  3.916807  0  0  -0.074657  -0.155741  0  3.882091  0
C  C66  1  0.56615944  0.41001735  0.82854436  1  0  0.148999  0  3.689474  0  0  0.116039  0  3.945355  0  0  0.124563  0  3.961425  0  0  0.054385  0.110471  0  3.93455  0
C  C67  1  0.43384416  0.58997551  0.17145465  1  0  0.149203  0  3.689299  0  0  0.116285  0  3.945173  0  0  0.12481  0  3.961238  0  0  0.054465  0.110721  0  3.93436  0
C  C68  1  0.75485127  0.60807913  0.59147188  1  0  -0.083331  0  3.703464  0  0  -0.102976  0  3.952374  0  0  -0.104673  0  3.972162  0  0  -0.0729  -0.101734  0  3.938742  0
C  C69  1  0.24514913  0.39192118  0.40853251  1  0  -0.083341  0  3.703678  0  0  -0.102962  0  3.952573  0  0  -0.104671  0  3.972353  0  0  -0.072886  -0.101719  0  3.938944  0
C  C70  1  0.79392586  0.61937906  0.49282140  1  0  -0.111521  0  3.727105  0  0  -0.130345  0  3.976362  0  0  -0.134512  0  3.997387  0  0  -0.08546  -0.127407  0  3.961845  0
C  C71  1  0.20608098  0.38061581  0.50717756  1  0  -0.111485  0  3.727359  0  0  -0.130341  0  3.976585  0  0  -0.134509  0  3.997614  0  0  -0.08548  -0.127401  0  3.962069  0
C  C72  1  0.00044787  0.81817460  0.26106717  1  0  0.159129  0  3.685369  0  0  0.122912  0  3.944523  0  0  0.132224  0  3.960912  0  0  0.052549  0.116916  0  3.933227  0
C  C73  1  0.99955033  0.18182887  0.73893056  1  0  0.15923  0  3.685468  0  0  0.122965  0  3.944644  0  0  0.132276  0  3.961035  0  0  0.052548  0.116969  0  3.93334  0
C  C74  1  0.91686707  0.72117507  0.32481317  1  0  -0.156791  0  3.651712  0  0  -0.172994  0  3.898328  0  0  -0.181589  0  3.918597  0  0  -0.080835  -0.167344  0  3.884647  0
C  C75  1  0.08313134  0.27882319  0.67518972  1  0  -0.156854  0  3.651873  0  0  -0.173092  0  3.898471  0  0  -0.181686  0  3.918738  0  0  -0.08081  -0.167443  0  3.884795  0
C  C76  1  0.88078965  0.72129830  0.42605794  1  0  0.134751  0  3.809248  0  0  0.14925  0  4.038134  0  0  0.154781  0  4.061395  0  0  0.006841  0.145726  0  4.022189  0
C  C77  1  0.11921383  0.27869982  0.57394365  1  0  0.134647  0  3.809324  0  0  0.149272  0  4.038034  0  0  0.154802  0  4.061298  0  0  0.006804  0.145746  0  4.02209  0
C  C78  1  0.93295200  0.82257268  0.45760916  1  0  -0.175046  0  3.716128  0  0  -0.190436  0  3.9602  0  0  -0.199514  0  3.983201  0  0  -0.087621  -0.184553  0  3.944791  0
C  C79  1  0.06704484  0.17742666  0.54239230  1  0  -0.175012  0  3.716125  0  0  -0.190467  0  3.960167  0  0  -0.199552  0  3.983163  0  0  -0.087627  -0.184583  0  3.944762  0
C  C80  1  0.02077489  0.91228915  0.38988619  1  0  0.127728  0  3.754567  0  0  0.09562  0  4.009531  0  0  0.102358  0  4.031352  0  0  0.040513  0.091434  0  3.994419  0
C  C81  1  0.97921729  0.08771346  0.61011595  1  0  0.127776  0  3.754425  0  0  0.095633  0  4.009446  0  0  0.102376  0  4.031269  0  0  0.040515  0.091446  0  3.994323  0
N  N82  1  0.50705221  0.31639757  0.80084771  1  0  -0.349337  0  3.263158  0  0  -0.275951  0  3.53821  0  0  -0.2955  0  3.555148  0  0  -0.326468  -0.262509  0  3.526347  0
N  N83  1  0.49295149  0.68359946  0.19914912  1  0  -0.349442  0  3.263171  0  0  -0.276055  0  3.538236  0  0  -0.295604  0  3.555169  0  0  -0.326459  -0.262617  0  3.526375  0
N  N84  1  0.05393978  0.91124169  0.29279665  1  0  -0.368004  0  3.293305  0  0  -0.288311  0  3.567511  0  0  -0.310496  0  3.587586  0  0  -0.337069  -0.273117  0  3.553531  0
N  N85  1  0.94605622  0.08876082  0.70720645  1  0  -0.368089  0  3.293292  0  0  -0.288375  0  3.567528  0  0  -0.310562  0  3.587599  0  0  -0.337127  -0.273177  0  3.55354  0
O  O86  1  0.38198623  0.04459423  0.28272245  1  0  -0.673868  0  1.988471  0  0  -0.612337  0  2.25083  0  0  -0.640228  0  2.236843  0  0  -0.345227  -0.592258  0  2.259357  0
O  O87  1  0.61800961  0.95541352  0.71727902  1  0  -0.673862  0  1.988353  0  0  -0.612329  0  2.250725  0  0  -0.640224  0  2.23674  0  0  -0.345257  -0.592252  0  2.259249  0
O  O88  1  0.63588667  0.98575408  0.18132880  1  0  -0.643728  0  2.048344  0  0  -0.578599  0  2.305854  0  0  -0.607352  0  2.295204  0  0  -0.317772  -0.558652  0  2.312619  0
O  O89  1  0.36411014  0.01424525  0.81866985  1  0  -0.643666  0  2.048632  0  0  -0.57858  0  2.306191  0  0  -0.60733  0  2.295539  0  0  -0.317777  -0.558633  0  2.312951  0
O  O90  1  0.67460261  0.26880079  0.06621898  1  0  -0.62386  0  1.955141  0  0  -0.570864  0  2.178735  0  0  -0.596141  0  2.167208  0  0  -0.315891  -0.553057  0  2.186346  0
O  O91  1  0.32539844  0.73120157  0.93378143  1  0  -0.623856  0  1.955148  0  0  -0.570848  0  2.178716  0  0  -0.596125  0  2.167192  0  0  -0.315894  -0.553045  0  2.186338  0
O  O92  1  0.94915936  0.16298633  0.09106968  1  0  -0.668386  0  2.055563  0  0  -0.590383  0  2.298211  0  0  -0.620943  0  2.284709  0  0  -0.321709  -0.568718  0  2.306856  0
O  O93  1  0.05083988  0.83700876  0.90893156  1  0  -0.668425  0  2.055705  0  0  -0.59038  0  2.298324  0  0  -0.62094  0  2.284824  0  0  -0.321732  -0.568713  0  2.306968  0
O  O94  1  0.88117583  0.49695390  0.19827480  1  0  -0.600114  0  1.96345  0  0  -0.548734  0  2.186576  0  0  -0.57361  0  2.177382  0  0  -0.30521  -0.530985  0  2.192509  0
O  O95  1  0.11882798  0.50304319  0.80173118  1  0  -0.600193  0  1.963162  0  0  -0.548819  0  2.186309  0  0  -0.573695  0  2.17712  0  0  -0.305238  -0.531079  0  2.192247  0
O  O96  1  0.10093139  0.30041032  0.19933204  1  0  -0.689954  0  2.058519  0  0  -0.615333  0  2.307623  0  0  -0.646582  0  2.294917  0  0  -0.331116  -0.592825  0  2.31528  0
O  O97  1  0.89906888  0.69958992  0.80066037  1  0  -0.689772  0  2.058534  0  0  -0.615192  0  2.307675  0  0  -0.646438  0  2.294978  0  0  -0.331112  -0.592687  0  2.315322  0
O  O98  1  0.36260529  0.26832665  0.05155920  1  0  -0.884112  0  1.861763  0  0  -0.816491  0  2.061646  0  0  -0.839423  0  2.024639  0  0  -0.595817  -0.800033  0  2.087484  0
O  O99  1  0.63739757  0.73167355  0.94843856  1  0  -0.884058  0  1.861832  0  0  -0.816436  0  2.061701  0  0  -0.839367  0  2.024694  0  0  -0.5958  -0.799978  0  2.087538  0
O  O100  1  0.32986821  0.97192395  0.05241522  1  0  -1.005319  0  1.82619  0  0  -0.896989  0  2.094284  0  0  -0.934939  0  2.060994  0  0  -0.594668  -0.869721  0  2.11697  0
O  O101  1  0.67013283  0.02807841  0.94758448  1  0  -1.005235  0  1.82621  0  0  -0.896917  0  2.094342  0  0  -0.934867  0  2.061052  0  0  -0.594645  -0.869644  0  2.117027  0
O  O102  1  0.90271604  0.74410980  0.08664165  1  0  -0.848574  0  1.88396  0  0  -0.776925  0  2.07891  0  0  -0.801233  0  2.042026  0  0  -0.585495  -0.759555  0  2.104727  0
O  O103  1  0.09728303  0.25589052  0.91335796  1  0  -0.84858  0  1.883976  0  0  -0.776959  0  2.078881  0  0  -0.801266  0  2.042004  0  0  -0.585537  -0.759586  0  2.104695  0
