# generated using pymatgen
data_ZnH8C10(S2N5)2
_symmetry_space_group_name_H-M   'P 1'
_cell_length_a   7.66496901
_cell_length_b   9.54315039
_cell_length_c   13.03873571
_cell_angle_alpha   79.33809943
_cell_angle_beta   72.90344787
_cell_angle_gamma   66.30312545
_symmetry_Int_Tables_number   1
_chemical_formula_structural   ZnH8C10(S2N5)2
_chemical_formula_sum   'Zn2 H16 C20 S8 N20'
_cell_volume   832.30864294
_cell_formula_units_Z   2
loop_
 _symmetry_equiv_pos_site_id
 _symmetry_equiv_pos_as_xyz
  1  'x, y, z'
loop_
 _atom_site_type_symbol
 _atom_site_label
 _atom_site_symmetry_multiplicity
 _atom_site_fract_x
 _atom_site_fract_y
 _atom_site_fract_z
 _atom_site_occupancy
 _atom_site_hle17_bader_spin_density
 _atom_site_hle17_ddec_charge
 _atom_site_hle17_ddec_spin_density
 _atom_site_hle17_ddec_sum_bond_order
 _atom_site_hle17_magmom
 _atom_site_hse06_10hf_bader_spin_density
 _atom_site_hse06_10hf_ddec_charge
 _atom_site_hse06_10hf_ddec_spin_density
 _atom_site_hse06_10hf_ddec_sum_bond_order
 _atom_site_hse06_10hf_magmom
 _atom_site_hse06_bader_spin_density
 _atom_site_hse06_ddec_charge
 _atom_site_hse06_ddec_spin_density
 _atom_site_hse06_ddec_sum_bond_order
 _atom_site_hse06_magmom
 _atom_site_pbe_bader_spin_density
 _atom_site_pbe_cm5_charge
 _atom_site_pbe_ddec_charge
 _atom_site_pbe_ddec_spin_density
 _atom_site_pbe_ddec_sum_bond_order
 _atom_site_pbe_magmom
Zn  Zn0  1  0.14946423  0.23777287  0.25380015  1  0  0.82533  0  2.041904  0  0  0.634089  0  2.522816  0  0  0.672577  0  2.481979  0  0  0.641844  0.607541  0  2.550861  0
Zn  Zn1  1  0.64121130  0.76218594  0.74624001  1  0  0.824969  0  2.043668  0  0  0.633803  0  2.52469  0  0  0.672329  0  2.483807  0  0  0.641628  0.607229  0  2.552778  0
H  H2  1  0.85747295  0.28242191  0.10020316  1  0  0.087864  0  0.977967  0  0  0.093268  0  1.048604  0  0  0.095606  0  1.046745  0  0  0.115496  0.091393  0  1.050151  0
H  H3  1  0.24029472  0.71780553  0.89969399  1  0  0.087763  0  0.978774  0  0  0.092876  0  1.049804  0  0  0.095344  0  1.047846  0  0  0.115455  0.091023  0  1.051279  0
H  H4  1  0.01009416  0.60927406  0.19340168  1  0  0.120004  0  0.941315  0  0  0.122984  0  1.013837  0  0  0.126405  0  1.008795  0  0  0.141938  0.120388  0  1.016933  0
H  H5  1  0.81290499  0.39050967  0.80657440  1  0  0.119436  0  0.943123  0  0  0.122598  0  1.015408  0  0  0.126182  0  1.010557  0  0  0.141918  0.12006  0  1.018402  0
H  H6  1  0.79207454  0.79616373  0.96195057  1  0  0.109928  0  0.938387  0  0  0.11526  0  1.01438  0  0  0.117841  0  1.011306  0  0  0.112186  0.113502  0  1.015768  0
H  H7  1  0.54987123  0.20385118  0.03787555  1  0  0.109941  0  0.938619  0  0  0.115293  0  1.014722  0  0  0.118041  0  1.01179  0  0  0.112389  0.113559  0  1.01605  0
H  H8  1  0.83574128  0.84408519  0.07652870  1  0  0.111588  0  0.951115  0  0  0.121683  0  1.020613  0  0  0.124377  0  1.018155  0  0  0.11243  0.119758  0  1.021751  0
H  H9  1  0.75613468  0.15581982  0.92332098  1  0  0.111243  0  0.95138  0  0  0.121388  0  1.020895  0  0  0.124198  0  1.018605  0  0  0.112412  0.119499  0  1.021979  0
H  H10  1  0.02686109  0.33305485  0.49753995  1  0  0.101624  0  0.99265  0  0  0.09996  0  1.069247  0  0  0.103103  0  1.065686  0  0  0.131393  0.097615  0  1.07186  0
H  H11  1  0.85751578  0.66656230  0.50269100  1  0  0.101208  0  0.993386  0  0  0.099927  0  1.069695  0  0  0.102957  0  1.066241  0  0  0.131694  0.097596  0  1.072312  0
H  H12  1  0.77242511  0.11819244  0.36065677  1  0  0.105705  0  0.986288  0  0  0.108857  0  1.063441  0  0  0.112607  0  1.058805  0  0  0.121482  0.106061  0  1.066453  0
H  H13  1  0.25116152  0.88176553  0.63940350  1  0  0.106636  0  0.987557  0  0  0.109222  0  1.064882  0  0  0.112657  0  1.060335  0  0  0.121696  0.1065  0  1.0678  0
H  H14  1  0.55675009  0.09635031  0.64730374  1  0  0.109021  0  0.935138  0  0  0.118315  0  1.001451  0  0  0.119945  0  0.999751  0  0  0.118957  0.11717  0  1.002186  0
H  H15  1  0.30061534  0.90345266  0.35267393  1  0  0.10855  0  0.934189  0  0  0.117744  0  1.00115  0  0  0.119279  0  0.999385  0  0  0.118981  0.116558  0  1.001881  0
H  H16  1  0.47868870  0.12306178  0.52657438  1  0  0.114569  0  0.899536  0  0  0.129974  0  0.957384  0  0  0.131531  0  0.955947  0  0  0.127765  0.128839  0  0.957985  0
H  H17  1  0.12833619  0.87708836  0.47343792  1  0  0.11312  0  0.900111  0  0  0.128587  0  0.958611  0  0  0.130063  0  0.957073  0  0  0.127386  0.127411  0  0.959219  0
C  C18  1  0.86930944  0.39088863  0.10476561  1  0  0.192485  0  3.729814  0  0  0.136586  0  4.02405  0  0  0.148991  0  4.032682  0  0  0.137166  0.129164  0  4.015561  0
C  C19  1  0.36507174  0.60923696  0.89514305  1  0  0.191496  0  3.734181  0  0  0.136181  0  4.028002  0  0  0.14881  0  4.037073  0  0  0.136918  0.128796  0  4.019447  0
C  C20  1  0.95151360  0.55368189  0.15376306  1  0  0.193642  0  3.610155  0  0  0.109835  0  3.87918  0  0  0.136139  0  3.891428  0  0  0.172751  0.0997  0  3.873172  0
C  C21  1  0.65908344  0.44622969  0.84619176  1  0  0.193427  0  3.607683  0  0  0.110026  0  3.877123  0  0  0.134124  0  3.890579  0  0  0.172319  0.099964  0  3.871003  0
C  C22  1  0.75896981  0.78616561  0.05052576  1  0  -0.076005  0  3.646312  0  0  -0.147571  0  3.882785  0  0  -0.136279  0  3.894331  0  0  -0.040811  -0.148479  0  3.877139  0
C  C23  1  0.59541197  0.21389791  0.94930539  1  0  -0.075713  0  3.646743  0  0  -0.147059  0  3.884125  0  0  -0.137813  0  3.896751  0  0  -0.040701  -0.147884  0  3.87827  0
C  C24  1  0.54327404  0.86011675  0.09817795  1  0  0.134483  0  3.708916  0  0  0.126726  0  4.008279  0  0  0.135264  0  4.020725  0  0  0.115177  0.121329  0  3.998098  0
C  C25  1  0.50124936  0.14010277  0.90163431  1  0  0.135682  0  3.708747  0  0  0.127114  0  4.009161  0  0  0.135891  0  4.021849  0  0  0.114939  0.121721  0  3.998932  0
C  C26  1  0.18294761  0.95819667  0.15374520  1  0  0.167366  0  3.885021  0  0  0.151531  0  4.192291  0  0  0.169452  0  4.208006  0  0  0.098499  0.139687  0  4.181176  0
C  C27  1  0.29463904  0.04195105  0.84610136  1  0  0.16777  0  3.88564  0  0  0.152353  0  4.192156  0  0  0.170287  0  4.207765  0  0  0.098832  0.140512  0  4.181067  0
C  C28  1  0.92789731  0.28474426  0.48698167  1  0  0.207908  0  3.682439  0  0  0.152864  0  3.974093  0  0  0.16584  0  3.981743  0  0  0.147553  0.144888  0  3.966976  0
C  C29  1  0.69963759  0.71494362  0.51318781  1  0  0.207566  0  3.682486  0  0  0.152071  0  3.973628  0  0  0.164851  0  3.981103  0  0  0.147424  0.14406  0  3.966545  0
C  C30  1  0.80169780  0.17373180  0.41613994  1  0  0.165126  0  3.634511  0  0  0.087528  0  3.895093  0  0  0.110367  0  3.909526  0  0  0.156903  0.078185  0  3.88798  0
C  C31  1  0.39151717  0.82623554  0.58392973  1  0  0.165148  0  3.635822  0  0  0.088205  0  3.896414  0  0  0.112581  0  3.909988  0  0  0.157417  0.078747  0  3.889298  0
C  C32  1  0.52021729  0.17722716  0.57793569  1  0  -0.059512  0  3.650559  0  0  -0.13448  0  3.900197  0  0  -0.123586  0  3.911953  0  0  -0.034001  -0.136519  0  3.894818  0
C  C33  1  0.27541628  0.82274677  0.42211578  1  0  -0.055443  0  3.649076  0  0  -0.13071  0  3.900006  0  0  -0.11875  0  3.911186  0  0  -0.032976  -0.132644  0  3.894517  0
C  C34  1  0.34851898  0.32037610  0.61446700  1  0  0.118039  0  3.724358  0  0  0.108748  0  4.029621  0  0  0.116555  0  4.043346  0  0  0.109862  0.103726  0  4.019064  0
C  C35  1  0.28325374  0.67957564  0.38570616  1  0  0.119764  0  3.722632  0  0  0.110361  0  4.028656  0  0  0.118083  0  4.042242  0  0  0.11023  0.10527  0  4.018133  0
C  C36  1  0.09750280  0.55469028  0.68534073  1  0  0.153233  0  3.836997  0  0  0.147499  0  4.13911  0  0  0.160957  0  4.155036  0  0  0.10128  0.138372  0  4.128153  0
C  C37  1  0.33723196  0.44534018  0.31484980  1  0  0.152674  0  3.837569  0  0  0.147832  0  4.138281  0  0  0.161243  0  4.154317  0  0  0.102377  0.138744  0  4.127257  0
S  S38  1  0.36504945  0.79976670  0.08624840  1  0  0.08357  0  2.478895  0  0  0.08579  0  2.814239  0  0  0.084517  0  2.816208  0  0  0.098339  0.086287  0  2.812683  0
S  S39  1  0.25074476  0.20046464  0.91350505  1  0  0.082336  0  2.480394  0  0  0.084816  0  2.815794  0  0  0.083634  0  2.817664  0  0  0.097782  0.085308  0  2.814284  0
S  S40  1  0.94195387  0.99666723  0.17820167  1  0  -0.408221  0  1.939803  0  0  -0.403472  0  2.253095  0  0  -0.420924  0  2.251803  0  0  -0.216432  -0.391263  0  2.253836  0
S  S41  1  0.11657559  0.00350382  0.82164094  1  0  -0.407927  0  1.940356  0  0  -0.403367  0  2.253616  0  0  -0.42073  0  2.252188  0  0  -0.216149  -0.391206  0  2.254427  0
S  S42  1  0.35394493  0.47318422  0.66600481  1  0  0.071149  0  2.509712  0  0  0.06475  0  2.852599  0  0  0.064676  0  2.855387  0  0  0.087438  0.064338  0  2.850624  0
S  S43  1  0.49302652  0.52664462  0.33416852  1  0  0.069636  0  2.509474  0  0  0.063264  0  2.85212  0  0  0.063076  0  2.85497  0  0  0.086735  0.062853  0  2.850148  0
S  S44  1  0.96170345  0.73213824  0.73496951  1  0  -0.39907  0  2.156722  0  0  -0.367424  0  2.531631  0  0  -0.385504  0  2.520778  0  0  -0.196707  -0.354669  0  2.538861  0
S  S45  1  0.42849351  0.26795645  0.26514981  1  0  -0.3986  0  2.15626  0  0  -0.367279  0  2.530801  0  0  -0.385287  0  2.519972  0  0  -0.19695  -0.354566  0  2.537958  0
N  N46  1  0.97775966  0.40465874  0.16660934  1  0  -0.398858  0  3.285472  0  0  -0.316553  0  3.59709  0  0  -0.337311  0  3.602188  0  0  -0.355301  -0.302321  0  3.590697  0
N  N47  1  0.54923884  0.59530887  0.83336091  1  0  -0.39762  0  3.28392  0  0  -0.316055  0  3.596185  0  0  -0.336458  0  3.60193  0  0  -0.355082  -0.301809  0  3.589689  0
N  N48  1  0.83476319  0.62394582  0.08609048  1  0  0.051736  0  3.566877  0  0  0.174904  0  3.747368  0  0  0.133199  0  3.811209  0  0  -0.129384  0.181164  0  3.732538  0
N  N49  1  0.54471831  0.37609246  0.91379163  1  0  0.053831  0  3.56268  0  0  0.176082  0  3.744531  0  0  0.138136  0  3.807217  0  0  -0.128467  0.181977  0  3.730347  0
N  N50  1  0.78011443  0.52260483  0.05403681  1  0  -0.271078  0  2.856905  0  0  -0.27444  0  3.131107  0  0  -0.273686  0  3.151394  0  0  -0.226185  -0.268147  0  3.121197  0
N  N51  1  0.35666541  0.47756574  0.94580031  1  0  -0.271681  0  2.859191  0  0  -0.274611  0  3.133196  0  0  -0.275835  0  3.154173  0  0  -0.226089  -0.268254  0  3.123287  0
N  N52  1  0.47117348  0.98410207  0.14954090  1  0  -0.203748  0  3.063729  0  0  -0.180683  0  3.333814  0  0  -0.186833  0  3.349959  0  0  -0.222116  -0.176395  0  3.323027  0
N  N53  1  0.60458721  0.01605363  0.85031724  1  0  -0.204238  0  3.066516  0  0  -0.180715  0  3.336797  0  0  -0.186815  0  3.352826  0  0  -0.221994  -0.176414  0  3.326  0
N  N54  1  0.27089021  0.03970882  0.18086081  1  0  -0.322511  0  3.318077  0  0  -0.241064  0  3.614022  0  0  -0.26146  0  3.627994  0  0  -0.273391  -0.227325  0  3.604234  0
N  N55  1  0.49128128  0.96038384  0.81905889  1  0  -0.323288  0  3.322982  0  0  -0.24218  0  3.618981  0  0  -0.262507  0  3.632921  0  0  -0.273722  -0.228505  0  3.609307  0
N  N56  1  0.95142629  0.22226940  0.39505425  1  0  -0.399903  0  3.268366  0  0  -0.31597  0  3.57207  0  0  -0.336711  0  3.578878  0  0  -0.353319  -0.301698  0  3.565091  0
N  N57  1  0.56871805  0.77755947  0.60506717  1  0  -0.399996  0  3.268243  0  0  -0.315413  0  3.570966  0  0  -0.336349  0  3.577297  0  0  -0.353876  -0.301143  0  3.564015  0
N  N58  1  0.69609678  0.20585444  0.51690672  1  0  0.044879  0  3.587755  0  0  0.162062  0  3.775654  0  0  0.125159  0  3.835044  0  0  -0.133408  0.169377  0  3.758922  0
N  N59  1  0.41888647  0.79404463  0.48316655  1  0  0.042014  0  3.593003  0  0  0.158492  0  3.782299  0  0  0.119621  0  3.841751  0  0  -0.134566  0.165958  0  3.765206  0
N  N60  1  0.77409100  0.27574145  0.56356904  1  0  -0.256692  0  2.842315  0  0  -0.256224  0  3.111758  0  0  -0.257046  0  3.130547  0  0  -0.220749  -0.250488  0  3.103042  0
N  N61  1  0.61349607  0.72400693  0.43657078  1  0  -0.256054  0  2.841519  0  0  -0.255291  0  3.110919  0  0  -0.254909  0  3.129115  0  0  -0.221005  -0.249615  0  3.102261  0
N  N62  1  0.17131713  0.33472559  0.61494020  1  0  -0.207719  0  3.093146  0  0  -0.18301  0  3.376905  0  0  -0.190724  0  3.393512  0  0  -0.214244  -0.177513  0  3.365455  0
N  N63  1  0.12077531  0.66539337  0.38525917  1  0  -0.208773  0  3.095955  0  0  -0.184086  0  3.380127  0  0  -0.191911  0  3.396877  0  0  -0.214439  -0.178596  0  3.368715  0
N  N64  1  0.02786215  0.46599355  0.65527461  1  0  -0.265568  0  3.037165  0  0  -0.231967  0  3.31778  0  0  -0.244576  0  3.333366  0  0  -0.232173  -0.223252  0  3.307033  0
N  N65  1  0.14881274  0.53416143  0.34495816  1  0  -0.265241  0  3.0399  0  0  -0.231822  0  3.319986  0  0  -0.244495  0  3.335726  0  0  -0.232752  -0.223123  0  3.309215  0
