# generated using pymatgen
data_DyMn2H15C21O13
_symmetry_space_group_name_H-M   'P 1'
_cell_length_a   6.76615979
_cell_length_b   11.66780785
_cell_length_c   14.98500000
_cell_angle_alpha   89.25833832
_cell_angle_beta   89.40487584
_cell_angle_gamma   85.28379752
_symmetry_Int_Tables_number   1
_chemical_formula_structural   DyMn2H15C21O13
_chemical_formula_sum   'Dy2 Mn4 H30 C42 O26'
_cell_volume   1178.85376790
_cell_formula_units_Z   2
loop_
 _symmetry_equiv_pos_site_id
 _symmetry_equiv_pos_as_xyz
  1  'x, y, z'
loop_
 _atom_site_type_symbol
 _atom_site_label
 _atom_site_symmetry_multiplicity
 _atom_site_fract_x
 _atom_site_fract_y
 _atom_site_fract_z
 _atom_site_occupancy
 _atom_site_hle17_bader_spin_density
 _atom_site_hle17_ddec_charge
 _atom_site_hle17_ddec_spin_density
 _atom_site_hle17_ddec_sum_bond_order
 _atom_site_hle17_magmom
 _atom_site_hse06_10hf_bader_spin_density
 _atom_site_hse06_10hf_ddec_charge
 _atom_site_hse06_10hf_ddec_spin_density
 _atom_site_hse06_10hf_ddec_sum_bond_order
 _atom_site_hse06_10hf_magmom
 _atom_site_hse06_bader_spin_density
 _atom_site_hse06_ddec_charge
 _atom_site_hse06_ddec_spin_density
 _atom_site_hse06_ddec_sum_bond_order
 _atom_site_hse06_magmom
 _atom_site_pbe_bader_charge
 _atom_site_pbe_bader_spin_density
 _atom_site_pbe_cm5_charge
 _atom_site_pbe_ddec_charge
 _atom_site_pbe_ddec_spin_density
 _atom_site_pbe_ddec_sum_bond_order
 _atom_site_pbe_magmom
Dy  Dy0  1  0.25682400  0.05963734  0.43823250  1  0  2.246386  0  1.616316  0  0  2.091183  0  2.086732  0  0  2.225231  0  1.891955  0  2.17703  0  1.52158  2.052571  0  2.11805  0
Dy  Dy1  1  0.74313708  0.94036722  0.56176384  1  0  2.246301  0  1.616504  0  0  2.091133  0  2.08695  0  0  2.225185  0  1.892159  0  2.177101  0  1.521541  2.052492  0  2.118317  0
Mn  Mn2  1  0.09808331  0.24131867  0.08407880  1  0  -0.202557  0  5.038054  0  0  -0.102374  0  5.484481  0  0  -0.149538  0  5.530311  0  0.930777  0  0.474266  -0.067708  0  5.445959  0
Mn  Mn3  1  0.90200365  0.75868418  0.91590562  1  0  -0.202622  0  5.038249  0  0  -0.102307  0  5.484411  0  0  -0.149594  0  5.530488  0  0.931443  0  0.474241  -0.067618  0  5.445829  0
Mn  Mn4  1  0.51744422  0.36054862  0.73879558  1  0  -0.173858  0  4.975138  0  0  -0.083254  0  5.433884  0  0  -0.130451  0  5.480748  0  0.926719  0  0.479701  -0.048981  0  5.395559  0
Mn  Mn5  1  0.48251278  0.63944304  0.26120491  1  0  -0.173874  0  4.975117  0  0  -0.083198  0  5.433827  0  0  -0.130396  0  5.480679  0  0.927284  0  0.479728  -0.04889  0  5.395374  0
H  H6  1  0.89034182  0.18836637  0.49547413  1  0  0.383792  0  0.905513  0  0  0.361911  0  0.970353  0  0  0.371714  0  0.961134  0  0.657188  0  0.310291  0.354918  0  0.977812  0
H  H7  1  0.10961223  0.81162529  0.50453171  1  0  0.384127  0  0.905009  0  0  0.362225  0  0.969853  0  0  0.372027  0  0.960634  0  0.656888  0  0.310508  0.35523  0  0.977321  0
H  H8  1  0.25061549  0.00296196  0.09430430  1  0  0.133829  0  0.946623  0  0  0.140815  0  1.010267  0  0  0.142762  0  1.00914  0  0.168692  0  0.121511  0.139214  0  1.01135  0
H  H9  1  0.74950804  0.99703315  0.90568336  1  0  0.133928  0  0.946676  0  0  0.140867  0  1.010296  0  0  0.142818  0  1.00917  0  0.168579  0  0.12149  0.139257  0  1.011372  0
H  H10  1  0.33486490  0.12355507  0.94566406  1  0  0.12548  0  0.929819  0  0  0.136665  0  0.986065  0  0  0.137816  0  0.98769  0  0.10293  0  0.119687  0.13563  0  0.985375  0
H  H11  1  0.66529845  0.87646154  0.05434188  1  0  0.125454  0  0.929794  0  0  0.136668  0  0.986007  0  0  0.137828  0  0.98762  0  0.102627  0  0.119608  0.135628  0  0.985324  0
H  H12  1  0.43884867  0.33326921  0.99818587  1  0  0.121342  0  0.953554  0  0  0.131781  0  1.010777  0  0  0.132021  0  1.013111  0  0.149721  0  0.116904  0.131271  0  1.009724  0
H  H13  1  0.56125371  0.66674998  0.00183034  1  0  0.121242  0  0.953491  0  0  0.131651  0  1.010751  0  0  0.131886  0  1.013093  0  0.149664  0  0.116932  0.131141  0  1.009693  0
H  H14  1  0.41761359  0.33898241  0.17697663  1  0  0.120328  0  0.948138  0  0  0.133075  0  1.00661  0  0  0.134039  0  1.008015  0  0.105136  0  0.117414  0.132226  0  1.005924  0
H  H15  1  0.58241870  0.66103075  0.82304264  1  0  0.120382  0  0.948163  0  0  0.1331  0  1.006663  0  0  0.134067  0  1.008063  0  0.105134  0  0.117306  0.132251  0  1.00598  0
H  H16  1  0.89047518  0.28949003  0.65722374  1  0  0.137364  0  0.939744  0  0  0.145972  0  0.997767  0  0  0.148063  0  0.99664  0  0.150552  0  0.125679  0.144286  0  0.99871  0
H  H17  1  0.10947554  0.71050421  0.34277608  1  0  0.137342  0  0.939709  0  0  0.145943  0  0.997769  0  0  0.148036  0  0.996631  0  0.150057  0  0.125707  0.144252  0  0.998729  0
H  H18  1  0.84464085  0.50562346  0.72205716  1  0  0.126693  0  0.946378  0  0  0.136382  0  1.004461  0  0  0.13699  0  1.006524  0  0.124065  0  0.119881  0.135606  0  1.003516  0
H  H19  1  0.15531675  0.49436390  0.27795605  1  0  0.126607  0  0.946616  0  0  0.13636  0  1.004613  0  0  0.136967  0  1.006677  0  0.124226  0  0.119889  0.135584  0  1.003664  0
H  H20  1  0.48132174  0.59904724  0.67397332  1  0  0.132002  0  0.92668  0  0  0.142673  0  0.983236  0  0  0.145076  0  0.98202  0  0.133492  0  0.121787  0.140778  0  0.984355  0
H  H21  1  0.51864081  0.40094700  0.32603779  1  0  0.131948  0  0.92654  0  0  0.142696  0  0.983033  0  0  0.145094  0  0.981819  0  0.133041  0  0.121756  0.140807  0  0.984153  0
H  H22  1  0.30399822  0.43982484  0.57944273  1  0  0.118525  0  0.944263  0  0  0.13215  0  1.00074  0  0  0.134115  0  1.000469  0  0.109509  0  0.117726  0.130664  0  1.00109  0
H  H23  1  0.69596090  0.56018316  0.42055825  1  0  0.118584  0  0.944401  0  0  0.132281  0  1.000741  0  0  0.134248  0  1.000464  0  0.109621  0  0.117829  0.130795  0  1.001091  0
H  H24  1  0.65207955  0.01598803  0.24161485  1  0  0.1485  0  0.938442  0  0  0.167578  0  0.996497  0  0  0.169483  0  0.996273  0  0.090518  0  0.105261  0.166226  0  0.99648  0
H  H25  1  0.34791230  0.98399761  0.75838353  1  0  0.148567  0  0.938479  0  0  0.167606  0  0.996517  0  0  0.169511  0  0.996296  0  0.090716  0  0.105288  0.166256  0  0.996488  0
H  H26  1  0.91859119  0.01043049  0.24996650  1  0  0.161452  0  0.948627  0  0  0.177147  0  1.009341  0  0  0.17992  0  1.008054  0  0.100241  0  0.108045  0.175131  0  1.010214  0
H  H27  1  0.08139761  0.98957665  0.75003569  1  0  0.161454  0  0.948703  0  0  0.17713  0  1.00939  0  0  0.179903  0  1.008099  0  0.10007  0  0.108013  0.175113  0  1.010262  0
H  H28  1  0.76891752  0.13979939  0.27339394  1  0  0.151513  0  0.917599  0  0  0.173225  0  0.97359  0  0  0.175253  0  0.972723  0  0.098827  0  0.110845  0.171818  0  0.973949  0
H  H29  1  0.23104023  0.86019743  0.72660048  1  0  0.151587  0  0.91766  0  0  0.17323  0  0.973672  0  0  0.175257  0  0.972807  0  0.098795  0  0.110854  0.171833  0  0.97401  0
H  H30  1  0.85858781  0.37161812  0.42550784  1  0  0.068325  0  0.940914  0  0  0.089615  0  1.002428  0  0  0.089667  0  1.002323  0  0.057474  0  0.092694  0.089627  0  1.002247  0
H  H31  1  0.14135452  0.62836236  0.57449683  1  0  0.068154  0  0.940905  0  0  0.089504  0  1.002381  0  0  0.089559  0  1.002275  0  0.057846  0  0.0926  0.089516  0  1.002202  0
H  H32  1  0.11525530  0.34721380  0.39568173  1  0  0.09546  0  0.964797  0  0  0.111369  0  1.031805  0  0  0.111676  0  1.03251  0  0.108148  0  0.104869  0.111008  0  1.031562  0
H  H33  1  0.88468088  0.65277873  0.60432151  1  0  0.095325  0  0.964596  0  0  0.111453  0  1.031419  0  0  0.11177  0  1.032098  0  0.10753  0  0.104718  0.111091  0  1.031179  0
H  H34  1  0.04522065  0.36508788  0.51045666  1  0  0.063208  0  0.952277  0  0  0.08267  0  1.018239  0  0  0.083636  0  1.016942  0  0.038649  0  0.090406  0.08207  0  1.01889  0
H  H35  1  0.95470976  0.63491410  0.48955118  1  0  0.063238  0  0.952561  0  0  0.082698  0  1.01852  0  0  0.083662  0  1.017225  0  0.038128  0  0.090457  0.082101  0  1.019166  0
C  C36  1  0.29638985  0.12795500  0.26283186  1  0  0.637342  0  3.958418  0  0  0.595315  0  4.250336  0  0  0.626943  0  4.255129  0  1.566898  0  0.189062  0.57278  0  4.253254  0
C  C37  1  0.70361608  0.87205644  0.73716419  1  0  0.637592  0  3.957876  0  0  0.595561  0  4.24983  0  0  0.627187  0  4.254628  0  1.567315  0  0.189255  0.573027  0  4.252746  0
C  C38  1  0.32361339  0.15972638  0.16775200  1  0  -0.062512  0  3.675603  0  0  -0.049223  0  3.9281  0  0  -0.058544  0  3.950215  0  -0.112873  0  -0.055484  -0.043569  0  3.913449  0
C  C39  1  0.67646138  0.84027904  0.83224913  1  0  -0.062091  0  3.674736  0  0  -0.048921  0  3.927306  0  0  -0.058224  0  3.949419  0  -0.112878  0  -0.055478  -0.043273  0  3.912648  0
C  C40  1  0.29722075  0.08965769  0.09175048  1  0  -0.0429  0  3.591663  0  0  -0.084905  0  3.869182  0  0  -0.083188  0  3.886508  0  -0.142044  0  -0.107662  -0.086316  0  3.85783  0
C  C41  1  0.70289443  0.91035462  0.90825172  1  0  -0.043215  0  3.591577  0  0  -0.08505  0  3.868956  0  0  -0.083305  0  3.886206  0  -0.140616  0  -0.107661  -0.086442  0  3.857591  0
C  C42  1  0.34217937  0.15361498  0.01362109  1  0  -0.063286  0  3.624682  0  0  -0.097812  0  3.913485  0  0  -0.103126  0  3.936598  0  -0.11583  0  -0.120618  -0.095182  0  3.899038  0
C  C43  1  0.65792362  0.84639991  0.98638115  1  0  -0.063527  0  3.624754  0  0  -0.098139  0  3.913545  0  0  -0.103449  0  3.936657  0  -0.116904  0  -0.12069  -0.095505  0  3.899095  0
C  C44  1  0.39659082  0.26380684  0.04114954  1  0  -0.044514  0  3.637106  0  0  -0.077062  0  3.917025  0  0  -0.08087  0  3.942054  0  -0.121229  0  -0.114549  -0.075267  0  3.901337  0
C  C45  1  0.60352129  0.73620633  0.95885801  1  0  -0.043601  0  3.636886  0  0  -0.076093  0  3.916769  0  0  -0.079886  0  3.941791  0  -0.121064  0  -0.114106  -0.074314  0  3.901113  0
C  C46  1  0.38484269  0.26788426  0.13551056  1  0  -0.064048  0  3.619022  0  0  -0.10403  0  3.892376  0  0  -0.10595  0  3.914653  0  -0.1563  0  -0.117228  -0.103356  0  3.878098  0
C  C47  1  0.61521657  0.73212633  0.86450194  1  0  -0.06444  0  3.619393  0  0  -0.104389  0  3.892759  0  0  -0.106314  0  3.915044  0  -0.156286  0  -0.11721  -0.103719  0  3.878483  0
C  C48  1  0.55513334  0.21955379  0.55599115  1  0  0.724376  0  3.837614  0  0  0.675869  0  4.131827  0  0  0.712391  0  4.125375  0  1.603629  0  0.238622  0.651485  0  4.138666  0
C  C49  1  0.44480458  0.78044734  0.44400199  1  0  0.724362  0  3.837361  0  0  0.67586  0  4.131631  0  0  0.712387  0  4.125182  0  1.603087  0  0.238559  0.65146  0  4.138473  0
C  C50  1  0.58675960  0.32885809  0.60137582  1  0  -0.082797  0  3.673603  0  0  -0.069386  0  3.926765  0  0  -0.078828  0  3.946824  0  -0.120902  0  -0.059007  -0.063617  0  3.912756  0
C  C51  1  0.41321426  0.67112927  0.39862931  1  0  -0.082493  0  3.672926  0  0  -0.069458  0  3.926691  0  0  -0.078918  0  3.946779  0  -0.121371  0  -0.058925  -0.06363  0  3.912589  0
C  C52  1  0.76281262  0.35095150  0.64832480  1  0  -0.061218  0  3.633447  0  0  -0.099959  0  3.906793  0  0  -0.0986  0  3.925022  0  -0.144843  0  -0.114739  -0.101047  0  3.894639  0
C  C53  1  0.23713587  0.64903758  0.35167241  1  0  -0.06125  0  3.633207  0  0  -0.099923  0  3.906738  0  0  -0.098557  0  3.92497  0  -0.144578  0  -0.114804  -0.101034  0  3.894573  0
C  C54  1  0.73744321  0.46427647  0.68284249  1  0  -0.075114  0  3.628606  0  0  -0.100867  0  3.903636  0  0  -0.106221  0  3.927132  0  -0.176741  0  -0.121102  -0.098088  0  3.888715  0
C  C55  1  0.26249200  0.53572293  0.31716603  1  0  -0.074838  0  3.628358  0  0  -0.100663  0  3.903405  0  0  -0.106016  0  3.926893  0  -0.176319  0  -0.121009  -0.097889  0  3.888494  0
C  C56  1  0.54407695  0.51307136  0.65771269  1  0  -0.047014  0  3.618108  0  0  -0.077714  0  3.895848  0  0  -0.078681  0  3.914109  0  -0.102834  0  -0.110731  -0.077546  0  3.884117  0
C  C57  1  0.45587970  0.48693320  0.34229701  1  0  -0.047078  0  3.617683  0  0  -0.077827  0  3.895476  0  0  -0.078788  0  3.913729  0  -0.10289  0  -0.110784  -0.077677  0  3.883769  0
C  C58  1  0.45099041  0.43008496  0.60814948  1  0  -0.067866  0  3.627894  0  0  -0.10462  0  3.898457  0  0  -0.104881  0  3.917153  0  -0.13203  0  -0.116492  -0.104784  0  3.886019  0
C  C59  1  0.54899186  0.56991617  0.39184745  1  0  -0.068043  0  3.628301  0  0  -0.104771  0  3.898972  0  0  -0.105025  0  3.917661  0  -0.131899  0  -0.116604  -0.104953  0  3.886527  0
C  C60  1  0.90427341  0.14961324  0.07278969  1  0  0.218907  0  3.410811  0  0  0.154053  0  3.752878  0  0  0.190367  0  3.752149  0  0.859766  0  0.02614  0.130053  0  3.750546  0
C  C61  1  0.09584678  0.85037412  0.92719272  1  0  0.218963  0  3.410969  0  0  0.154024  0  3.753004  0  0  0.190359  0  3.752264  0  0.858623  0  0.026054  0.130044  0  3.750689  0
C  C62  1  0.00273623  0.33500991  0.99689766  1  0  0.224869  0  3.415772  0  0  0.157445  0  3.768614  0  0  0.193684  0  3.766951  0  0.894054  0  0.030201  0.133449  0  3.766996  0
C  C63  1  0.99727250  0.66498175  0.00308790  1  0  0.225043  0  3.415217  0  0  0.157577  0  3.768104  0  0  0.19384  0  3.766436  0  0.893589  0  0.030198  0.133577  0  3.766484  0
C  C64  1  0.97248821  0.32337623  0.16892534  1  0  0.208833  0  3.429007  0  0  0.142892  0  3.781816  0  0  0.180246  0  3.7788  0  0.846936  0  0.018018  0.118394  0  3.780698  0
C  C65  1  0.02757571  0.67662231  0.83105388  1  0  0.208523  0  3.428864  0  0  0.142526  0  3.781712  0  0  0.179901  0  3.778692  0  0.846203  0  0.01776  0.118026  0  3.780588  0
C  C66  1  0.64775531  0.25526928  0.80787080  1  0  0.23261  0  3.387888  0  0  0.169641  0  3.736637  0  0  0.205641  0  3.734389  0  0.883649  0  0.038916  0.14583  0  3.735511  0
C  C67  1  0.35220566  0.74473614  0.19213420  1  0  0.232763  0  3.387864  0  0  0.169821  0  3.736554  0  0  0.205804  0  3.734328  0  0.883838  0  0.039082  0.146014  0  3.735416  0
C  C68  1  0.44924836  0.44238000  0.83469573  1  0  0.203448  0  3.428763  0  0  0.137884  0  3.78472  0  0  0.173608  0  3.784107  0  0.872109  0  0.024364  0.114297  0  3.782584  0
C  C69  1  0.55068501  0.55762198  0.16530143  1  0  0.203362  0  3.428846  0  0  0.137823  0  3.78481  0  0  0.173551  0  3.784199  0  0.872973  0  0.024362  0.114234  0  3.782662  0
C  C70  1  0.29896546  0.28671642  0.74617930  1  0  0.206712  0  3.403057  0  0  0.145115  0  3.743635  0  0  0.181615  0  3.74223  0  0.85626  0  0.026437  0.121267  0  3.741505  0
C  C71  1  0.70102526  0.71325632  0.25381588  1  0  0.206433  0  3.402945  0  0  0.144835  0  3.743541  0  0  0.181336  0  3.742136  0  0.856776  0  0.026206  0.120987  0  3.741398  0
C  C72  1  0.76272490  0.01250747  0.37464987  1  0  0.835696  0  3.738115  0  0  0.799011  0  4.022229  0  0  0.835408  0  4.016832  0  1.528025  0  0.238073  0.774261  0  4.031144  0
C  C73  1  0.23724358  0.98749709  0.62534710  1  0  0.83605  0  3.737182  0  0  0.799263  0  4.021408  0  0  0.835656  0  4.016011  0  1.528224  0  0.238134  0.774506  0  4.030333  0
C  C74  1  0.77712409  0.04529885  0.27837596  1  0  -0.468749  0  3.624743  0  0  -0.550661  0  3.860334  0  0  -0.557378  0  3.861205  0  -0.112513  0  -0.238639  -0.545398  0  3.858733  0
C  C75  1  0.22285558  0.95469969  0.72162301  1  0  -0.469093  0  3.624997  0  0  -0.550797  0  3.860411  0  0  -0.557514  0  3.861275  0  -0.112443  0  -0.238699  -0.545534  0  3.858824  0
C  C76  1  0.00323045  0.33041217  0.44608816  1  0  0.000915  0  3.647117  0  0  -0.095177  0  3.918865  0  0  -0.087856  0  3.924843  0  0.347066  0  -0.147062  -0.099943  0  3.916391  0
C  C77  1  0.99671361  0.66957691  0.55391241  1  0  0.001215  0  3.646924  0  0  -0.095104  0  3.918663  0  0  -0.087782  0  3.924647  0  0.34824  0  -0.146751  -0.099872  0  3.916188  0
O  O78  1  0.32619878  0.20076548  0.32336830  1  0  -0.683758  0  1.933283  0  0  -0.637382  0  2.165962  0  0  -0.670016  0  2.15893  0  -1.179029  0  -0.378392  -0.620388  0  2.170018  0
O  O79  1  0.67378031  0.79924768  0.67662986  1  0  -0.683908  0  1.933299  0  0  -0.637483  0  2.165938  0  0  -0.670116  0  2.158906  0  -1.179208  0  -0.378465  -0.620484  0  2.169993  0
O  O80  1  0.24823350  0.02687692  0.28323894  1  0  -0.687756  0  1.961434  0  0  -0.644838  0  2.199492  0  0  -0.680087  0  2.192183  0  -1.166273  0  -0.390538  -0.627018  0  2.203567  0
O  O81  1  0.75173266  0.97314398  0.71675654  1  0  -0.687975  0  1.961099  0  0  -0.645097  0  2.199206  0  0  -0.680346  0  2.191894  0  -1.166621  0  -0.390686  -0.627275  0  2.203287  0
O  O82  1  0.39110117  0.20918436  0.51888564  1  0  -0.677322  0  2.011074  0  0  -0.629196  0  2.258752  0  0  -0.665233  0  2.24681  0  -1.175418  0  -0.362549  -0.611543  0  2.264206  0
O  O83  1  0.60886190  0.79082709  0.48111128  1  0  -0.677454  0  2.01084  0  0  -0.629256  0  2.258408  0  0  -0.665302  0  2.246477  0  -1.174674  0  -0.362573  -0.611595  0  2.263869  0
O  O84  1  0.70445120  0.14345970  0.55725098  1  0  -0.733223  0  2.093103  0  0  -0.675273  0  2.337942  0  0  -0.711685  0  2.325821  0  -1.205703  0  -0.381942  -0.657134  0  2.344339  0
O  O85  1  0.29549818  0.85654401  0.44275275  1  0  -0.73347  0  2.093346  0  0  -0.675257  0  2.337908  0  0  -0.711654  0  2.325756  0  -1.205522  0  -0.381929  -0.657136  0  2.344334  0
O  O86  1  0.78335296  0.08434268  0.06559221  1  0  -0.224393  0  2.217087  0  0  -0.153299  0  2.435024  0  0  -0.169348  0  2.431013  0  -1.125102  0  -0.155368  -0.142132  0  2.436966  0
O  O87  1  0.21676872  0.91565501  0.93439743  1  0  -0.224672  0  2.217384  0  0  -0.153485  0  2.435326  0  0  -0.169531  0  2.431291  0  -1.124493  0  -0.155359  -0.142374  0  2.437341  0
O  O88  1  0.94387548  0.39530862  0.93859148  1  0  -0.228022  0  2.190378  0  0  -0.172958  0  2.414865  0  0  -0.190395  0  2.409119  0  -1.12452  0  -0.160337  -0.161183  0  2.417857  0
O  O89  1  0.05609247  0.60467874  0.06141167  1  0  -0.228208  0  2.189668  0  0  -0.173129  0  2.414168  0  0  -0.190574  0  2.408412  0  -1.12433  0  -0.160413  -0.161356  0  2.417165  0
O  O90  1  0.89453510  0.37471682  0.22813552  1  0  -0.251041  0  2.200357  0  0  -0.190642  0  2.430567  0  0  -0.205896  0  2.422763  0  -1.13766  0  -0.17123  -0.179899  0  2.434703  0
O  O91  1  0.10552218  0.62528688  0.77183368  1  0  -0.25078  0  2.20009  0  0  -0.190388  0  2.430382  0  0  -0.205646  0  2.422571  0  -1.1368  0  -0.170954  -0.179642  0  2.434515  0
O  O92  1  0.73310580  0.18799742  0.85459564  1  0  -0.209592  0  2.20469  0  0  -0.154436  0  2.430956  0  0  -0.170829  0  2.423874  0  -1.104538  0  -0.148577  -0.143235  0  2.434731  0
O  O93  1  0.26687968  0.81201231  0.14540920  1  0  -0.209747  0  2.204734  0  0  -0.154614  0  2.430989  0  0  -0.170999  0  2.423916  0  -1.104832  0  -0.148708  -0.143415  0  2.434759  0
O  O94  1  0.40724875  0.49535552  0.89885194  1  0  -0.219175  0  2.210402  0  0  -0.162227  0  2.436387  0  0  -0.179882  0  2.431046  0  -1.122074  0  -0.155724  -0.150308  0  2.439217  0
O  O95  1  0.59272245  0.50466109  0.10114422  1  0  -0.219048  0  2.210408  0  0  -0.162127  0  2.436402  0  0  -0.179785  0  2.431074  0  -1.123276  0  -0.15574  -0.150203  0  2.439217  0
O  O96  1  0.15702459  0.23589529  0.75041959  1  0  -0.215412  0  2.192441  0  0  -0.153078  0  2.40598  0  0  -0.169544  0  2.399602  0  -1.117835  0  -0.155659  -0.14176  0  2.409215  0
O  O97  1  0.84297178  0.76406885  0.24958766  1  0  -0.215112  0  2.19216  0  0  -0.152802  0  2.405719  0  0  -0.169257  0  2.399339  0  -1.118364  0  -0.155422  -0.141493  0  2.408954  0
O  O98  1  0.59381778  0.01190287  0.41378045  1  0  -0.835594  0  2.175845  0  0  -0.77498  0  2.430279  0  0  -0.821668  0  2.418894  0  -1.207053  0  -0.432102  -0.755066  0  2.435191  0
O  O99  1  0.40615574  0.98809739  0.58621587  1  0  -0.835781  0  2.175493  0  0  -0.775163  0  2.43003  0  0  -0.821854  0  2.418637  0  -1.206778  0  -0.432239  -0.755241  0  2.434944  0
O  O100  1  0.91818483  0.98477336  0.42084634  1  0  -0.787363  0  2.049915  0  0  -0.734357  0  2.303821  0  0  -0.777031  0  2.291424  0  -1.20197  0  -0.400448  -0.716497  0  2.310967  0
O  O101  1  0.08178931  0.01523292  0.57915525  1  0  -0.787273  0  2.049384  0  0  -0.734224  0  2.303327  0  0  -0.776886  0  2.290919  0  -1.202472  0  -0.40033  -0.716369  0  2.310484  0
O  O102  1  0.99507339  0.20825294  0.45166139  1  0  -0.618744  0  2.227385  0  0  -0.551769  0  2.474882  0  0  -0.581702  0  2.464174  0  -1.18282  0  -0.472203  -0.537917  0  2.480792  0
O  O103  1  0.00487942  0.79173700  0.54835047  1  0  -0.619033  0  2.22684  0  0  -0.552123  0  2.474494  0  0  -0.582059  0  2.463789  0  -1.18293  0  -0.472535  -0.538269  0  2.480407  0
