# generated using pymatgen
data_Cu2H3C3NCl2
_symmetry_space_group_name_H-M   'P 1'
_cell_length_a   6.86955990
_cell_length_b   7.16473106
_cell_length_c   11.99780108
_cell_angle_alpha   90.00033360
_cell_angle_beta   89.99721130
_cell_angle_gamma   90.00420522
_symmetry_Int_Tables_number   1
_chemical_formula_structural   Cu2H3C3NCl2
_chemical_formula_sum   'Cu8 H12 C12 N4 Cl8'
_cell_volume   590.51436015
_cell_formula_units_Z   4
loop_
 _symmetry_equiv_pos_site_id
 _symmetry_equiv_pos_as_xyz
  1  'x, y, z'
loop_
 _atom_site_type_symbol
 _atom_site_label
 _atom_site_symmetry_multiplicity
 _atom_site_fract_x
 _atom_site_fract_y
 _atom_site_fract_z
 _atom_site_occupancy
 _atom_site_pbe_bader_charge
 _atom_site_pbe_bader_spin_density
 _atom_site_pbe_cm5_charge
 _atom_site_pbe_ddec_charge
 _atom_site_pbe_ddec_spin_density
 _atom_site_pbe_ddec_sum_bond_order
 _atom_site_pbe_magmom
Cu  Cu0  1  0.93456075  0.16104891  0.26471407  1  0.680383  0  0.427077  0.54458  0  2.481384  0
Cu  Cu1  1  0.56544151  0.16106895  0.76472546  1  0.680487  0  0.427008  0.544615  0  2.481691  0
Cu  Cu2  1  0.43457252  0.83894166  0.26471772  1  0.680193  0  0.427058  0.544578  0  2.481671  0
Cu  Cu3  1  0.06543436  0.83893518  0.76472578  1  0.680441  0  0.427036  0.544555  0  2.481363  0
Cu  Cu4  1  0.27197386  0.19402062  0.50478414  1  0.69834  0  0.418397  0.52115  0  2.494914  0
Cu  Cu5  1  0.22804043  0.19401743  0.00477725  1  0.698249  0  0.418342  0.521183  0  2.494936  0
Cu  Cu6  1  0.77197111  0.80597112  0.50479400  1  0.698236  0  0.418183  0.520888  0  2.49466  0
Cu  Cu7  1  0.72804787  0.80597351  0.00477378  1  0.698075  0  0.418417  0.521183  0  2.495091  0
H  H8  1  0.23332325  0.72963794  0.09752627  1  0.142603  0  0.094458  0.162436  0  1.022082  0
H  H9  1  0.26665047  0.72962106  0.59752079  1  0.143195  0  0.094541  0.162659  0  1.022128  0
H  H10  1  0.73333951  0.27038563  0.09753362  1  0.142784  0  0.094514  0.162431  0  1.022243  0
H  H11  1  0.76667110  0.27035340  0.59749980  1  0.142904  0  0.094593  0.162666  0  1.02177  0
H  H12  1  0.39849928  0.53961578  0.14563197  1  0.12212  0  0.096205  0.152223  0  1.023233  0
H  H13  1  0.10149238  0.53962969  0.64561992  1  0.121679  0  0.096162  0.152247  0  1.023281  0
H  H14  1  0.89845536  0.46034144  0.14564295  1  0.12199  0  0.096223  0.152189  0  1.023914  0
H  H15  1  0.60147466  0.46038327  0.64560423  1  0.121476  0  0.096127  0.152251  0  1.023176  0
H  H16  1  0.07615206  0.74228508  0.28520103  1  0.177802  0  0.103696  0.141091  0  1.026593  0
H  H17  1  0.42383420  0.74223939  0.78515815  1  0.177977  0  0.103819  0.141154  0  1.0267  0
H  H18  1  0.57618669  0.25772826  0.28518502  1  0.177991  0  0.103763  0.141071  0  1.026912  0
H  H19  1  0.92387175  0.25775655  0.78515632  1  0.177893  0  0.103735  0.140986  0  1.026521  0
C  C20  1  0.29640977  0.65072451  0.16644802  1  -0.147881  0  -0.224885  -0.334171  0  3.889736  0
C  C21  1  0.20359063  0.65070965  0.66642834  1  -0.147878  0  -0.22496  -0.33447  0  3.889491  0
C  C22  1  0.79639743  0.34930646  0.16645216  1  -0.148062  0  -0.225014  -0.334215  0  3.890493  0
C  C23  1  0.70357974  0.34928043  0.66643081  1  -0.147593  0  -0.224965  -0.334637  0  3.889569  0
C  C24  1  0.20589424  0.65665815  0.27109003  1  -0.069467  0  -0.144403  -0.171394  0  4.13304  0
C  C25  1  0.29410707  0.65663846  0.77107385  1  -0.070251  0  -0.144522  -0.171426  0  4.133165  0
C  C26  1  0.70587435  0.34332340  0.27108416  1  -0.069167  0  -0.144364  -0.171146  0  4.133612  0
C  C27  1  0.79410757  0.34336093  0.77106548  1  -0.07027  0  -0.144418  -0.171158  0  4.132731  0
C  C28  1  0.24883788  0.52611454  0.35603161  1  0.817116  0  0.186411  0.334926  0  3.98997  0
C  C29  1  0.25117476  0.52612959  0.85601070  1  0.817483  0  0.186521  0.335144  0  3.989833  0
C  C30  1  0.74880473  0.47383913  0.35601428  1  0.817104  0  0.186176  0.334705  0  3.990322  0
C  C31  1  0.75116199  0.47389326  0.85601837  1  0.817762  0  0.186479  0.335049  0  3.98921  0
N  N32  1  0.28160734  0.41622006  0.42597058  1  -1.236113  0  -0.402486  -0.417391  0  3.460215  0
N  N33  1  0.21842619  0.41624716  0.92596635  1  -1.236198  0  -0.40255  -0.417579  0  3.459516  0
N  N34  1  0.78157604  0.58373099  0.42594842  1  -1.236416  0  -0.40214  -0.417068  0  3.459645  0
N  N35  1  0.71842401  0.58379159  0.92596086  1  -1.236196  0  -0.402576  -0.41753  0  3.459873  0
Cl  Cl36  1  0.97264596  0.05415213  0.44161341  1  -0.595713  0  -0.286109  -0.475574  0  1.994184  0
Cl  Cl37  1  0.52736901  0.05417112  0.94162745  1  -0.595861  0  -0.286094  -0.475616  0  1.994009  0
Cl  Cl38  1  0.47265217  0.94584914  0.44161557  1  -0.595791  0  -0.286111  -0.475548  0  1.993968  0
Cl  Cl39  1  0.02736503  0.94584719  0.94162377  1  -0.595741  0  -0.286103  -0.475574  0  1.994357  0
Cl  Cl40  1  0.26331860  0.13064168  0.69097832  1  -0.588955  0  -0.268276  -0.457864  0  1.936975  0
Cl  Cl41  1  0.23668905  0.13063796  0.19096204  1  -0.588963  0  -0.268348  -0.457928  0  1.936877  0
Cl  Cl42  1  0.76331424  0.86937154  0.69097245  1  -0.589028  0  -0.268303  -0.457818  0  1.937052  0
Cl  Cl43  1  0.73669633  0.86935665  0.19096033  1  -0.588735  0  -0.26831  -0.457851  0  1.936973  0
