# generated using pymatgen
data_CuH4C5N7Cl
_symmetry_space_group_name_H-M   'P 1'
_cell_length_a   5.71707650
_cell_length_b   8.35750156
_cell_length_c   9.96115871
_cell_angle_alpha   81.45444290
_cell_angle_beta   75.87741154
_cell_angle_gamma   88.35169252
_symmetry_Int_Tables_number   1
_chemical_formula_structural   CuH4C5N7Cl
_chemical_formula_sum   'Cu2 H8 C10 N14 Cl2'
_cell_volume   456.42557316
_cell_formula_units_Z   2
loop_
 _symmetry_equiv_pos_site_id
 _symmetry_equiv_pos_as_xyz
  1  'x, y, z'
loop_
 _atom_site_type_symbol
 _atom_site_label
 _atom_site_symmetry_multiplicity
 _atom_site_fract_x
 _atom_site_fract_y
 _atom_site_fract_z
 _atom_site_occupancy
 _atom_site_hle17_ddec_charge
 _atom_site_hle17_ddec_spin_density
 _atom_site_hle17_ddec_sum_bond_order
 _atom_site_hle17_magmom
 _atom_site_hse06_10hf_ddec_charge
 _atom_site_hse06_10hf_ddec_spin_density
 _atom_site_hse06_10hf_ddec_sum_bond_order
 _atom_site_hse06_10hf_magmom
 _atom_site_hse06_ddec_charge
 _atom_site_hse06_ddec_spin_density
 _atom_site_hse06_ddec_sum_bond_order
 _atom_site_hse06_magmom
 _atom_site_pbe_cm5_charge
 _atom_site_pbe_ddec_charge
 _atom_site_pbe_ddec_spin_density
 _atom_site_pbe_ddec_sum_bond_order
 _atom_site_pbe_magmom
Cu  Cu0  1  0.21405510  0.02925082  0.06847100  1  0.74859  -0.50158  2.015289  -0.339  0.766383  -0.697627  2.429979  -0.531  0.866752  -0.817955  2.352152  -0.644  0.745179  0.713999  -0.59422  2.476822  -0.446
Cu  Cu1  1  0.78595725  0.97075013  0.93153084  1  0.748654  0.501617  2.01562  0.339  0.766384  0.69765  2.430345  0.531  0.866727  0.817953  2.352509  0.644  0.745255  0.71401  0.594231  2.477188  0.446
H  H2  1  0.94067274  0.28005466  0.51029345  1  0.117551  0.00012  0.970584  0.0  0.123029  -9.8e-05  1.037965  -0.001  0.126315  -6e-05  1.037207  0.0  0.104719  0.120827  -0.000129  1.038514  -0.001
H  H3  1  0.05929129  0.71996568  0.48969556  1  0.117574  -0.000121  0.970575  0.0  0.123055  9.8e-05  1.03792  0.001  0.12634  6e-05  1.037166  0.0  0.10474  0.120859  0.000129  1.038466  0.001
H  H4  1  0.28885431  0.47762877  0.45871534  1  0.096789  1.7e-05  0.942109  0.0  0.108871  0.000134  0.999897  0.0  0.110932  0.000136  0.998249  0.0  0.110916  0.10711  0.000138  1.001648  0.0
H  H5  1  0.71111498  0.52238668  0.54128158  1  0.096852  -1.6e-05  0.942106  0.0  0.108905  -0.000134  0.999903  0.0  0.110971  -0.000136  0.998261  0.0  0.110876  0.107145  -0.000138  1.001653  0.0
H  H6  1  0.60162024  0.48621481  0.23118847  1  0.105074  -0.000131  0.981332  0.0  0.111996  -0.00016  1.047869  0.0  0.115184  -0.0001  1.04715  0.0  0.103259  0.10956  -0.000189  1.048694  0.0
H  H7  1  0.39838302  0.51378730  0.76881949  1  0.105102  0.00013  0.981327  0.0  0.112016  0.000159  1.047884  0.0  0.115202  0.0001  1.04716  0.0  0.103277  0.109572  0.000189  1.048717  0.0
H  H8  1  0.55304006  0.29818655  0.06514864  1  0.0826  -0.00088  0.96343  -0.001  0.088513  -0.000948  1.033202  -0.001  0.090756  -0.000757  1.03162  -0.001  0.115537  0.086544  -0.001008  1.034838  -0.001
H  H9  1  0.44697379  0.70180218  0.93486952  1  0.082693  0.000881  0.963113  0.001  0.088511  0.000948  1.033028  0.001  0.090755  0.000757  1.031437  0.001  0.115567  0.086541  0.001008  1.034663  0.001
C  C10  1  0.07426491  0.18811975  0.31607784  1  0.292666  0.003426  3.784773  0.004  0.287765  -0.000206  4.056683  0.0  0.300419  0.000772  4.075404  0.002  0.139938  0.27951  -0.000917  4.044797  0.0
C  C11  1  0.92573134  0.81189088  0.68392001  1  0.292807  -0.003439  3.784801  -0.004  0.287849  0.000209  4.056737  0.0  0.300502  -0.000774  4.075449  -0.002  0.139933  0.279596  0.000917  4.044854  0.0
C  C12  1  0.08193057  0.28954564  0.41392907  1  -0.171554  -0.005398  3.727314  -0.005  -0.189196  -0.002706  3.972063  -0.003  -0.19783  -0.002773  3.99192  -0.003  -0.08798  -0.183745  -0.002413  3.958525  -0.003
C  C13  1  0.91804949  0.71046739  0.58606868  1  -0.171663  0.005415  3.727616  0.005  -0.189301  0.002703  3.972392  0.003  -0.197934  0.002776  3.992249  0.003  -0.087956  -0.183839  0.002413  3.958829  0.003
C  C14  1  0.27401455  0.39796072  0.38410220  1  0.029868  0.005738  3.702266  0.005  0.012627  0.002339  3.949329  0.002  0.018968  0.00267  3.964691  0.003  -0.057973  0.008791  0.001964  3.93876  0.002
C  C15  1  0.72597630  0.60205111  0.61589624  1  0.0299  -0.005755  3.702533  -0.005  0.012713  -0.002337  3.949537  -0.002  0.019041  -0.002673  3.964912  -0.003  -0.057899  0.008883  -0.001964  3.938952  -0.002
C  C16  1  0.44785204  0.40372992  0.25785016  1  -0.11576  -0.00589  3.717532  -0.006  -0.1329  -0.002825  3.97019  -0.003  -0.139981  -0.002795  3.989043  -0.003  -0.086241  -0.128335  -0.002671  3.957413  -0.003
C  C17  1  0.55215308  0.59627342  0.74215439  1  -0.115811  0.005907  3.717546  0.006  -0.13299  0.002824  3.970195  0.003  -0.140065  0.002799  3.989044  0.003  -0.086248  -0.128416  0.002671  3.957424  0.003
C  C18  1  0.42452572  0.29959661  0.16554135  1  0.150855  0.005386  3.667317  0.005  0.120271  0.001407  3.92693  0.002  0.130193  0.002223  3.943672  0.003  0.046303  0.113986  0.000703  3.91659  0.001
C  C19  1  0.57549189  0.70039944  0.83446840  1  0.150836  -0.005403  3.66705  -0.005  0.120319  -0.001407  3.926585  -0.002  0.130238  -0.002226  3.943331  -0.003  0.046231  0.114036  -0.000703  3.916245  -0.001
N  N20  1  0.53872637  0.12104132  0.87780111  1  -0.524169  0.08211  2.803448  0.094  -0.573933  0.045067  3.176589  0.056  -0.626179  0.030229  3.190498  0.041  -0.336916  -0.546465  0.050105  3.171258  0.06
N  N21  1  0.46130027  0.87894633  0.12220339  1  -0.524235  -0.082138  2.803216  -0.094  -0.574034  -0.045079  3.176407  -0.056  -0.626257  -0.030237  3.190256  -0.041  -0.336889  -0.546533  -0.050113  3.170996  -0.06
N  N22  1  0.53318546  0.16956466  0.75807470  1  0.383946  -0.030285  4.155041  -0.044  0.435773  -0.004936  4.465571  -0.013  0.456573  -0.008052  4.503099  -0.016  0.085272  0.423264  -0.001601  4.442169  -0.009
N  N23  1  0.46683214  0.83041934  0.24193147  1  0.384061  0.030286  4.154771  0.044  0.435904  0.004939  4.465264  0.013  0.456705  0.008052  4.502797  0.016  0.085315  0.423401  0.001602  4.441873  0.009
N  N24  1  0.52018036  0.22000187  0.64440473  1  -0.323485  0.123548  2.366552  0.13  -0.345587  0.065094  2.603497  0.073  -0.35777  0.056357  2.616544  0.066  -0.169076  -0.338783  0.066909  2.59552  0.073
N  N25  1  0.47981380  0.77998691  0.35560605  1  -0.323571  -0.123554  2.366436  -0.13  -0.345685  -0.065103  2.603379  -0.073  -0.357878  -0.056354  2.616434  -0.066  -0.169145  -0.338924  -0.066913  2.595453  -0.073
N  N26  1  0.03450266  0.84759656  0.01834610  1  -0.546961  -0.004768  2.93683  -0.006  -0.589514  0.003593  3.328903  0.004  -0.647259  0.00344  3.343503  0.004  -0.362476  -0.556971  0.003462  3.321573  0.004
N  N27  1  0.96548450  0.15239955  0.98165271  1  -0.547125  0.004775  2.936779  0.006  -0.589693  -0.003592  3.328891  -0.004  -0.647453  -0.003438  3.343503  -0.004  -0.362526  -0.557148  -0.003456  3.321563  -0.004
N  N28  1  0.01416874  0.70932377  0.07897146  1  0.392568  0.001549  4.124147  0.002  0.443872  -0.000277  4.42081  -0.001  0.465623  -0.000814  4.4556  -0.001  0.097658  0.430724  8.1e-05  4.396071  0.0
N  N29  1  0.98582404  0.29067246  0.92101252  1  0.392635  -0.001542  4.12428  -0.002  0.443926  0.000281  4.42098  0.001  0.465681  0.000813  4.455755  0.001  0.097643  0.430781  -8e-05  4.396237  0.0
N  N30  1  0.99986236  0.57686053  0.13552864  1  -0.283251  -0.003899  2.368408  -0.004  -0.29327  0.004588  2.585921  0.005  -0.30199  0.005213  2.599039  0.006  -0.133669  -0.285268  0.004925  2.575176  0.005
N  N31  1  0.00016284  0.42312369  0.86444937  1  -0.283202  0.003881  2.368806  0.004  -0.293179  -0.004595  2.586278  -0.005  -0.301894  -0.005207  2.599397  -0.006  -0.13357  -0.285183  -0.004935  2.575527  -0.005
N  N32  1  0.24106799  0.19200840  0.19465577  1  -0.360936  -0.047669  3.35192  -0.057  -0.309502  -0.045059  3.633895  -0.059  -0.340566  -0.04033  3.654287  -0.055  -0.351696  -0.292493  -0.044117  3.622735  -0.056
N  N33  1  0.75894789  0.80799252  0.80535062  1  -0.36114  0.047681  3.352124  0.057  -0.30963  0.045056  3.633995  0.059  -0.340682  0.040331  3.654372  0.055  -0.351757  -0.292628  0.04412  3.622847  0.056
Cl  Cl34  1  0.84727964  0.04624635  0.34929133  1  -0.074383  0.001071  1.431446  0.0  -0.065136  0.000588  1.682036  -0.001  -0.070072  0.000817  1.67582  -0.001  0.037197  -0.062206  0.000301  1.687285  -0.001
Cl  Cl35  1  0.15271479  0.95375704  0.65070563  1  -0.074375  -0.001072  1.431471  0.0  -0.065132  -0.000586  1.682091  0.001  -0.070066  -0.000817  1.675872  0.001  0.037198  -0.062202  -0.000301  1.687335  0.001
