# generated using pymatgen
data_NiH12C14N2O7
_symmetry_space_group_name_H-M   'P 1'
_cell_length_a   8.02452914
_cell_length_b   10.89172811
_cell_length_c   16.44821035
_cell_angle_alpha   90.00014886
_cell_angle_beta   92.96953306
_cell_angle_gamma   89.99999907
_symmetry_Int_Tables_number   1
_chemical_formula_structural   NiH12C14N2O7
_chemical_formula_sum   'Ni4 H48 C56 N8 O28'
_cell_volume   1435.65949955
_cell_formula_units_Z   4
loop_
 _symmetry_equiv_pos_site_id
 _symmetry_equiv_pos_as_xyz
  1  'x, y, z'
loop_
 _atom_site_type_symbol
 _atom_site_label
 _atom_site_symmetry_multiplicity
 _atom_site_fract_x
 _atom_site_fract_y
 _atom_site_fract_z
 _atom_site_occupancy
 _atom_site_pbe_bader_charge
 _atom_site_pbe_bader_spin_density
 _atom_site_pbe_cm5_charge
 _atom_site_pbe_ddec_charge
 _atom_site_pbe_ddec_spin_density
 _atom_site_pbe_ddec_sum_bond_order
 _atom_site_pbe_magmom
Ni  Ni0  1  0.44431749  0.41371926  0.35116817  1  1.178601  1.582248  0.625111  0.839197  1.788191  2.315145  1.566
Ni  Ni1  1  0.55568414  0.91371940  0.14883038  1  1.178617  1.582248  0.625145  0.839287  1.788193  2.315009  1.566
Ni  Ni2  1  0.55568063  0.58628017  0.64883034  1  1.178597  1.582244  0.625131  0.839248  1.788181  2.315047  1.566
Ni  Ni3  1  0.44431400  0.08628187  0.85116996  1  1.178561  1.58225  0.625114  0.839202  1.7882  2.315151  1.566
H  H4  1  0.74935142  0.06735925  0.39199265  1  0.13239  0.000454  0.110556  0.129636  0.000344  1.036733  0.0
H  H5  1  0.25065392  0.56736014  0.10800601  1  0.132427  0.000454  0.110548  0.129634  0.000344  1.036709  0.0
H  H6  1  0.25064921  0.93264110  0.60800714  1  0.132399  0.000454  0.11056  0.129638  0.000344  1.036743  0.0
H  H7  1  0.74934671  0.43263838  0.89199317  1  0.132392  0.000454  0.110573  0.129688  0.000344  1.036723  0.0
H  H8  1  0.82096659  0.86591159  0.61654948  1  0.127803  0.000257  0.112697  0.1273  0.00016  1.025446  0.0
H  H9  1  0.17903055  0.36591157  0.88344831  1  0.127723  0.000257  0.112688  0.127263  0.000161  1.025439  0.0
H  H10  1  0.17902906  0.13409152  0.38345141  1  0.127753  0.000257  0.112695  0.127273  0.00016  1.025421  0.0
H  H11  1  0.82097506  0.63408786  0.11655038  1  0.127692  0.000257  0.112689  0.127239  0.000161  1.025471  0.0
H  H12  1  0.50468375  0.18458166  0.60611609  1  0.114311  0.000622  0.10861  0.119311  0.000433  1.004707  0.0
H  H13  1  0.49532335  0.68457728  0.89388163  1  0.114284  0.000622  0.108613  0.119307  0.000433  1.004717  0.0
H  H14  1  0.49531437  0.81542144  0.39388182  1  0.11434  0.000622  0.108609  0.119352  0.000433  1.004721  0.0
H  H15  1  0.50468977  0.31541848  0.10611905  1  0.114317  0.000622  0.108637  0.11936  0.000433  1.004655  0.0
H  H16  1  0.11386507  0.80017657  0.25808748  1  0.130114  0.001087  0.121192  0.133908  0.00057  0.978793  0.0
H  H17  1  0.88612904  0.30018059  0.24190888  1  0.130113  0.001087  0.121142  0.133847  0.00057  0.978867  0.0
H  H18  1  0.88613182  0.19982195  0.74191283  1  0.130077  0.001087  0.121167  0.133875  0.00057  0.978831  0.0
H  H19  1  0.11386784  0.69982160  0.75809021  1  0.130124  0.001087  0.121173  0.133885  0.00057  0.978845  0.0
H  H20  1  0.32642339  0.63545980  0.24519155  1  0.187175  0.001993  0.125684  0.105035  0.000712  1.009641  0.001
H  H21  1  0.67357197  0.13546295  0.25480638  1  0.187123  0.001994  0.125689  0.105065  0.000712  1.009577  0.001
H  H22  1  0.67357100  0.36453688  0.75480809  1  0.187124  0.001993  0.125677  0.105052  0.000711  1.009587  0.001
H  H23  1  0.32642367  0.86454016  0.74519329  1  0.187198  0.001993  0.1257  0.105053  0.000712  1.009611  0.001
H  H24  1  0.21507273  0.48455582  0.46794697  1  0.123551  0.0023  0.119625  0.094624  0.00101  1.030061  0.002
H  H25  1  0.78493014  0.98455274  0.03205111  1  0.123503  0.0023  0.119632  0.09464  0.001011  1.030023  0.002
H  H26  1  0.78492665  0.51544270  0.53205339  1  0.123583  0.0023  0.119634  0.094655  0.001011  1.030032  0.002
H  H27  1  0.21507174  0.01544578  0.96794931  1  0.123505  0.0023  0.119613  0.094639  0.001011  1.030046  0.002
H  H28  1  0.99823333  0.63850665  0.48932738  1  0.074236  0.000922  0.115221  0.114257  0.000445  1.008344  0.0
H  H29  1  0.00176828  0.13850605  0.01067192  1  0.074198  0.000922  0.115202  0.114243  0.000445  1.008298  0.0
H  H30  1  0.00176607  0.36149279  0.51067420  1  0.074266  0.000922  0.11524  0.114288  0.000445  1.00832  0.0
H  H31  1  0.99823236  0.86149247  0.98932909  1  0.074201  0.000922  0.115208  0.114262  0.000445  1.008329  0.0
H  H32  1  0.94044697  0.80344470  0.50716995  1  0.460798  0.000123  0.324367  0.275901  5.1e-05  0.942674  0.0
H  H33  1  0.05955017  0.30344695  0.99282834  1  0.460789  0.000123  0.324384  0.275992  5.1e-05  0.942604  0.0
H  H34  1  0.05955118  0.19655658  0.49283160  1  0.460784  0.000123  0.324331  0.275846  5.1e-05  0.942675  0.0
H  H35  1  0.94045170  0.69655248  0.00717026  1  0.460732  0.000123  0.324337  0.275917  5.1e-05  0.942626  0.0
H  H36  1  0.59620037  0.59437029  0.43399622  1  0.637585  0.000288  0.289325  0.385278  0.000419  0.950269  0.0
H  H37  1  0.40379874  0.09436808  0.06600356  1  0.63759  0.000288  0.289288  0.385228  0.000419  0.950328  0.0
H  H38  1  0.40379777  0.40563007  0.56600351  1  0.637548  0.000288  0.289334  0.385267  0.000419  0.950278  0.0
H  H39  1  0.59620189  0.90563135  0.93399684  1  0.63758  0.000288  0.289306  0.38525  0.000419  0.950307  0.0
H  H40  1  0.66797254  0.56654991  0.34498465  1  0.651869  -0.000346  0.281713  0.370626  -0.000331  0.97807  0.0
H  H41  1  0.33202406  0.06654623  0.15501380  1  0.651902  -0.000346  0.281742  0.370696  -0.000331  0.977969  0.0
H  H42  1  0.33202559  0.43345044  0.65501447  1  0.651889  -0.000346  0.28172  0.370659  -0.000331  0.978017  0.0
H  H43  1  0.66797157  0.93345321  0.84498526  1  0.651899  -0.000346  0.281733  0.370697  -0.000331  0.97797  0.0
H  H44  1  0.27234109  0.22318096  0.28949604  1  0.637981  -3.2e-05  0.2875  0.382181  0.000107  0.962171  0.0
H  H45  1  0.72765800  0.72318135  0.21050030  1  0.638003  -3.2e-05  0.287519  0.382235  0.000107  0.962116  0.0
H  H46  1  0.72765454  0.77682031  0.71050241  1  0.637973  -3.2e-05  0.287547  0.382329  0.000107  0.961987  0.0
H  H47  1  0.27234138  0.27681900  0.78949945  1  0.637996  -3.2e-05  0.287506  0.38223  0.000107  0.962111  0.0
H  H48  1  0.18769525  0.34836306  0.26173935  1  0.65747  -0.00024  0.290725  0.378987  -0.000143  0.962852  0.0
H  H49  1  0.81230388  0.84836173  0.23825903  1  0.657465  -0.000239  0.290707  0.378973  -0.000144  0.962877  0.0
H  H50  1  0.81230163  0.65163821  0.73825913  1  0.657473  -0.000239  0.290709  0.378981  -0.000144  0.962868  0.0
H  H51  1  0.18769302  0.15163771  0.76174249  1  0.657485  -0.00024  0.290703  0.378977  -0.000144  0.962872  0.0
C  C52  1  0.55183489  0.24459661  0.44696281  1  1.543582  -0.003189  0.198548  0.556885  -0.004602  4.192355  -0.005
C  C53  1  0.44817296  0.74459545  0.05303560  1  1.543547  -0.003189  0.198692  0.557212  -0.004602  4.192145  -0.005
C  C54  1  0.44816324  0.75540466  0.55303570  1  1.543571  -0.003189  0.198553  0.556919  -0.004602  4.192195  -0.005
C  C55  1  0.55183143  0.25540215  0.94696610  1  1.543587  -0.00319  0.198715  0.557163  -0.004602  4.192038  -0.005
C  C56  1  0.62500950  0.13976578  0.49524372  1  -0.086624  0.003425  -0.019905  -0.031626  0.002106  4.013066  0.002
C  C57  1  0.37499959  0.63976350  0.00475515  1  -0.08664  0.003425  -0.019984  -0.031814  0.002106  4.013186  0.002
C  C58  1  0.37499111  0.86023457  0.50475424  1  -0.08677  0.003425  -0.019929  -0.031639  0.002106  4.013075  0.002
C  C59  1  0.62500854  0.36023318  0.99524542  1  -0.086759  0.003425  -0.019939  -0.031609  0.002106  4.013097  0.002
C  C60  1  0.72642704  0.05583045  0.45594564  1  0.101918  -0.0015  -0.082806  -0.181411  -0.001801  3.899607  -0.001
C  C61  1  0.27357955  0.55582924  0.04405363  1  0.101954  -0.0015  -0.082756  -0.181286  -0.001801  3.899357  -0.001
C  C62  1  0.27357484  0.94416899  0.54405417  1  0.102025  -0.0015  -0.082769  -0.181346  -0.001801  3.899462  -0.001
C  C63  1  0.72642607  0.44416744  0.95594627  1  0.102366  -0.0015  -0.082744  -0.18138  -0.001801  3.899494  -0.001
C  C64  1  0.79375771  0.95587595  0.49960925  1  0.279322  0.00134  0.095549  0.239602  0.000659  4.030798  0.001
C  C65  1  0.20624393  0.45587624  0.00038998  1  0.279345  0.00134  0.095499  0.239469  0.000659  4.030896  0.001
C  C66  1  0.20624293  0.04412440  0.50039115  1  0.279313  0.00134  0.095507  0.239493  0.000659  4.030828  0.001
C  C67  1  0.79376294  0.54412136  0.99960935  1  0.278912  0.00134  0.095478  0.239447  0.000659  4.030854  0.001
C  C68  1  0.76482974  0.94248706  0.58241846  1  -0.056284  -0.001437  -0.081051  -0.179985  -0.00197  3.902056  -0.001
C  C69  1  0.23516866  0.44248627  0.91758010  1  -0.056237  -0.001437  -0.081043  -0.179912  -0.00197  3.901945  -0.001
C  C70  1  0.23516715  0.05751513  0.41758185  1  -0.05628  -0.001437  -0.081054  -0.179955  -0.00197  3.901935  -0.001
C  C71  1  0.76483696  0.55751225  0.08241981  1  -0.056219  -0.001437  -0.081077  -0.179949  -0.00197  3.901937  -0.001
C  C72  1  0.65948303  0.02348421  0.62039927  1  -0.052248  0.008475  -0.017453  -0.026631  0.004914  3.995017  0.007
C  C73  1  0.34052157  0.52348252  0.87959933  1  -0.052362  0.008475  -0.017389  -0.026594  0.004914  3.994934  0.007
C  C74  1  0.34051635  0.97651890  0.37959988  1  -0.05198  0.008474  -0.017364  -0.026491  0.004914  3.994857  0.007
C  C75  1  0.65948780  0.47651600  0.12040127  1  -0.051942  0.008475  -0.017358  -0.026403  0.004914  3.994787  0.007
C  C76  1  0.58837725  0.12231417  0.57643536  1  0.03902  -0.001213  -0.07801  -0.113775  -0.001546  3.944381  -0.001
C  C77  1  0.41162985  0.62230990  0.92356347  1  0.039138  -0.001213  -0.078052  -0.113761  -0.001546  3.944627  -0.001
C  C78  1  0.41162088  0.87768894  0.42356376  1  0.038794  -0.001213  -0.078087  -0.113986  -0.001547  3.944663  -0.001
C  C79  1  0.58838076  0.37768586  0.07643716  1  0.038779  -0.001213  -0.07814  -0.114074  -0.001547  3.944591  -0.001
C  C80  1  0.92826314  0.84414231  0.38706178  1  1.408508  -0.000355  0.251161  0.472233  -0.000422  4.093952  0.0
C  C81  1  0.07172850  0.34414764  0.11293702  1  1.408508  -0.000355  0.251191  0.472125  -0.000422  4.094055  0.0
C  C82  1  0.07173626  0.15585804  0.61294041  1  1.40863  -0.000356  0.251114  0.472125  -0.000422  4.093964  0.0
C  C83  1  0.92827337  0.65585364  0.88706158  1  1.408502  -0.000355  0.251194  0.472077  -0.000422  4.094152  0.0
C  C84  1  0.03966796  0.73584450  0.37537012  1  -0.0592  -0.008121  0.006624  0.005517  -0.008932  3.971408  -0.005
C  C85  1  0.96032991  0.23584713  0.12462804  1  -0.059215  -0.00812  0.006607  0.005601  -0.008931  3.971307  -0.005
C  C86  1  0.96033144  0.26415402  0.62463147  1  -0.059068  -0.008119  0.006634  0.005529  -0.008931  3.971397  -0.005
C  C87  1  0.03967072  0.76415414  0.87537113  1  -0.059222  -0.008121  0.006623  0.005634  -0.008932  3.971359  -0.005
C  C88  1  0.13061826  0.73039252  0.30519377  1  0.018965  0.005744  -0.064018  -0.118156  0.003246  3.89472  0.004
C  C89  1  0.86937711  0.23039634  0.19480432  1  0.019124  0.005744  -0.063985  -0.118133  0.003246  3.894684  0.004
C  C90  1  0.86937864  0.26960508  0.69480775  1  0.018775  0.005744  -0.064005  -0.118148  0.003246  3.894728  0.004
C  C91  1  0.13062102  0.76960493  0.80519480  1  0.018964  0.005744  -0.064013  -0.118191  0.003246  3.894753  0.004
C  C92  1  0.24940650  0.63857328  0.29777825  1  0.42703  -0.006074  0.063626  0.114578  -0.007033  3.87487  -0.004
C  C93  1  0.75059135  0.13857346  0.20221974  1  0.426982  -0.006074  0.063632  0.114605  -0.007033  3.874849  -0.004
C  C94  1  0.75059039  0.36142616  0.70222266  1  0.427166  -0.006074  0.063634  0.114541  -0.007032  3.874782  -0.004
C  C95  1  0.24940803  0.86142689  0.79777941  1  0.427022  -0.006074  0.063624  0.11462  -0.007033  3.874826  -0.004
C  C96  1  0.18656836  0.55467041  0.42212205  1  0.505202  -0.004371  0.050856  0.099066  -0.004702  3.91907  -0.003
C  C97  1  0.81343198  0.05467009  0.07787647  1  0.505185  -0.00437  0.050796  0.099014  -0.004702  3.919027  -0.003
C  C98  1  0.81342979  0.44532719  0.57787950  1  0.505376  -0.00437  0.050777  0.098894  -0.004701  3.919353  -0.003
C  C99  1  0.18656865  0.94532934  0.92212392  1  0.50519  -0.004371  0.050774  0.098939  -0.004702  3.919108  -0.003
C  C100  1  0.06687176  0.64365264  0.43396485  1  -0.028969  0.006362  -0.0762  -0.145037  0.003509  3.947659  0.005
C  C101  1  0.93312859  0.14365319  0.06603382  1  -0.028954  0.006362  -0.076134  -0.145015  0.003509  3.947515  0.005
C  C102  1  0.93312763  0.35634588  0.56603612  1  -0.02908  0.006362  -0.076177  -0.144985  0.003509  3.947653  0.005
C  C103  1  0.06687204  0.85634532  0.93396657  1  -0.028945  0.006363  -0.076127  -0.145006  0.003509  3.94757  0.005
C  C104  1  0.61769779  0.00192031  0.70709710  1  1.573746  -0.003102  0.218094  0.577059  -0.003924  4.172857  -0.004
C  C105  1  0.38230306  0.50191736  0.79290138  1  1.573671  -0.003102  0.218131  0.577079  -0.003924  4.172937  -0.004
C  C106  1  0.38229910  0.99808188  0.29290321  1  1.573645  -0.003102  0.218126  0.577079  -0.003924  4.172849  -0.004
C  C107  1  0.61770256  0.49808300  0.20709852  1  1.573609  -0.003102  0.218147  0.577059  -0.003924  4.172863  -0.004
N  N108  1  0.89046979  0.86371971  0.46561321  1  -1.257946  -0.000518  -0.389173  -0.35401  -0.000708  3.611568  -0.001
N  N109  1  0.10952808  0.36372105  0.03438516  1  -1.257924  -0.000518  -0.389221  -0.354096  -0.000708  3.611628  -0.001
N  N110  1  0.10953085  0.13628064  0.53438779  1  -1.258104  -0.000518  -0.389139  -0.353907  -0.000708  3.611518  -0.001
N  N111  1  0.89047379  0.63627747  0.96561404  1  -1.257752  -0.000518  -0.389134  -0.353927  -0.000708  3.611587  -0.001
N  N112  1  0.27827519  0.55269813  0.35581006  1  -1.208488  0.065516  -0.327074  -0.231176  0.037748  3.597324  0.059
N  N113  1  0.72172515  0.05269900  0.14418785  1  -1.208445  0.065518  -0.327075  -0.23122  0.03775  3.597449  0.059
N  N114  1  0.72172295  0.44729946  0.64418966  1  -1.208467  0.065517  -0.327051  -0.231082  0.037748  3.597431  0.059
N  N115  1  0.27827423  0.94730227  0.85581191  1  -1.208429  0.065514  -0.327065  -0.231165  0.037747  3.597414  0.059
O  O116  1  0.59210721  0.25721246  0.37332045  1  -1.129726  0.071173  -0.307393  -0.514908  0.039505  2.219428  0.064
O  O117  1  0.40789939  0.75721159  0.12667795  1  -1.129622  0.07117  -0.307461  -0.515029  0.039503  2.219262  0.064
O  O118  1  0.40789091  0.74278697  0.62667806  1  -1.129674  0.071173  -0.307387  -0.514901  0.039505  2.219296  0.064
O  O119  1  0.59209999  0.24278784  0.87332181  1  -1.129599  0.071174  -0.307529  -0.515073  0.039505  2.21906  0.064
O  O120  1  0.44891105  0.31952142  0.47764651  1  -1.172096  0.057422  -0.313131  -0.560885  0.03182  2.203507  0.051
O  O121  1  0.55109430  0.81952106  0.02235075  1  -1.172188  0.057422  -0.313168  -0.561027  0.03182  2.203485  0.051
O  O122  1  0.55108706  0.68047709  0.52235078  1  -1.172146  0.057425  -0.313123  -0.5609  0.031822  2.203447  0.051
O  O123  1  0.44891009  0.18047746  0.97765095  1  -1.172237  0.05742  -0.313112  -0.560936  0.03182  2.203528  0.051
O  O124  1  0.50922940  0.07399708  0.73474917  1  -1.126695  0.08189  -0.303341  -0.527731  0.044887  2.368541  0.076
O  O125  1  0.49076897  0.57399494  0.76524998  1  -1.126679  0.081891  -0.303362  -0.527765  0.044887  2.368697  0.076
O  O126  1  0.49076873  0.92600694  0.26524995  1  -1.126635  0.081889  -0.303343  -0.527762  0.044886  2.368622  0.076
O  O127  1  0.50923166  0.42600725  0.23474919  1  -1.126611  0.081891  -0.303329  -0.527705  0.044888  2.368678  0.076
O  O128  1  0.69039796  0.91509504  0.74724219  1  -1.19174  0.000301  -0.310778  -0.548417  -0.000952  2.217534  0.001
O  O129  1  0.30960045  0.41509175  0.75275753  1  -1.191746  0.000301  -0.31078  -0.548361  -0.000952  2.217502  0.001
O  O130  1  0.30959643  0.08490623  0.25275684  1  -1.191741  0.000301  -0.310792  -0.548365  -0.000952  2.217408  0.001
O  O131  1  0.69040268  0.58491136  0.24724231  1  -1.191749  0.000301  -0.310799  -0.548392  -0.000952  2.217504  0.001
O  O132  1  0.88094904  0.91233339  0.32957890  1  -1.142722  -0.000704  -0.271977  -0.461735  -0.001019  2.188265  -0.001
O  O133  1  0.11903761  0.41234079  0.17041930  1  -1.142732  -0.000704  -0.271958  -0.461673  -0.001019  2.188221  -0.001
O  O134  1  0.11905036  0.08766420  0.67042329  1  -1.142797  -0.000704  -0.271912  -0.461645  -0.001019  2.188216  -0.001
O  O135  1  0.88096051  0.58766140  0.82957922  1  -1.142736  -0.000704  -0.271969  -0.461669  -0.001019  2.188302  -0.001
O  O136  1  0.64112823  0.52947510  0.39896084  1  -1.24864  0.069897  -0.575328  -0.759182  0.038597  2.128131  0.061
O  O137  1  0.35887087  0.02947211  0.10103821  1  -1.24869  0.069898  -0.575324  -0.759217  0.038597  2.128088  0.061
O  O138  1  0.35886990  0.47052434  0.60103767  1  -1.248663  0.069897  -0.57533  -0.759189  0.038597  2.12814  0.061
O  O139  1  0.64112726  0.97052732  0.89896151  1  -1.248666  0.069896  -0.575319  -0.759209  0.038597  2.128091  0.061
O  O140  1  0.23728187  0.30521574  0.31058143  1  -1.249729  0.06936  -0.579178  -0.766573  0.038652  2.156348  0.061
O  O141  1  0.76272099  0.80521604  0.18941636  1  -1.249775  0.069361  -0.579185  -0.766619  0.038652  2.156283  0.061
O  O142  1  0.76271626  0.69478554  0.68941769  1  -1.249716  0.069359  -0.579197  -0.766707  0.038651  2.15619  0.061
O  O143  1  0.23727716  0.19478523  0.81058459  1  -1.249777  0.069362  -0.579169  -0.766623  0.038653  2.156319  0.061
