# generated using pymatgen
data_AlH6C11SO6
_symmetry_space_group_name_H-M   'P 1'
_cell_length_a   6.59827003
_cell_length_b   12.93004279
_cell_length_c   15.37319744
_cell_angle_alpha   71.60214791
_cell_angle_beta   76.33257996
_cell_angle_gamma   70.66063533
_symmetry_Int_Tables_number   1
_chemical_formula_structural   AlH6C11SO6
_chemical_formula_sum   'Al2 H12 C22 S2 O12'
_cell_volume   1161.52936603
_cell_formula_units_Z   2
loop_
 _symmetry_equiv_pos_site_id
 _symmetry_equiv_pos_as_xyz
  1  'x, y, z'
loop_
 _atom_site_type_symbol
 _atom_site_label
 _atom_site_symmetry_multiplicity
 _atom_site_fract_x
 _atom_site_fract_y
 _atom_site_fract_z
 _atom_site_occupancy
 _atom_site_pbe_bader_charge
 _atom_site_pbe_bader_spin_density
 _atom_site_pbe_cm5_charge
 _atom_site_pbe_ddec_charge
 _atom_site_pbe_ddec_spin_density
 _atom_site_pbe_ddec_sum_bond_order
 _atom_site_pbe_magmom
Al  Al0  1  0.49996686  0.49996108  0.50002517  1  2.500494  0  0.389636  1.635526  0  2.598567  0
Al  Al1  1  0.00001863  0.49993251  0.50001320  1  2.503023  0  0.398438  1.640871  0  2.564523  0
H  H2  1  0.30198115  0.36292308  0.57487625  1  0.641541  0  0.350343  0.432466  0  0.857904  0
H  H3  1  0.69807193  0.63697667  0.42513973  1  0.642886  0  0.350057  0.432187  0  0.857983  0
H  H4  1  0.94169523  0.46949174  0.77085688  1  0.10381  0  0.110109  0.116399  0  0.998207  0
H  H5  1  0.87164170  0.46785756  0.93575258  1  0.046013  0  0.097173  0.093459  0  1.035072  0
H  H6  1  0.05841448  0.53058313  0.22911372  1  0.104489  0  0.110229  0.116559  0  0.998753  0
H  H7  1  0.12845351  0.53231223  0.06420361  1  0.047086  0  0.097019  0.093187  0  1.035442  0
H  H8  1  0.73975349  0.46263060  0.23025051  1  0.100721  0  0.108319  0.112797  0  1.003977  0
H  H9  1  0.81547628  0.46307164  0.06556008  1  0.051261  0  0.096624  0.091832  0  1.036747  0
H  H10  1  0.26029450  0.53747590  0.76975046  1  0.10027  0  0.108128  0.112678  0  1.004454  0
H  H11  1  0.18459712  0.53712494  0.93442594  1  0.052893  0  0.096701  0.092039  0  1.036438  0
H  H12  1  0.51516865  0.89278776  0.44781106  1  0.598265  0  0.302201  0.318045  0  0.983638  0
H  H13  1  0.48472813  0.10714059  0.55216914  1  0.597385  0  0.302336  0.318225  0  0.983152  0
C  C14  1  0.87425869  0.29986572  0.51513180  1  1.61627  0  0.257878  0.659418  0  4.154905  0
C  C15  1  0.65190782  0.49992883  0.66104199  1  1.557803  0  0.261504  0.631937  0  4.11109  0
C  C16  1  0.12571375  0.70003616  0.48489185  1  1.616876  0  0.258223  0.659868  0  4.153967  0
C  C17  1  0.34808132  0.50001029  0.33897640  1  1.557696  0  0.261959  0.632779  0  4.10934  0
C  C18  1  0.60588185  0.50265121  0.76005826  1  -0.032453  0  -0.016351  -0.044455  0  3.979102  0
C  C19  1  0.39417734  0.49740967  0.23991971  1  -0.030843  0  -0.016457  -0.044632  0  3.979116  0
C  C20  1  0.77626378  0.48410996  0.80792099  1  0.008132  0  -0.080655  -0.084614  0  3.976991  0
C  C21  1  0.73454704  0.48343717  0.90098411  1  -0.046606  0  -0.090663  -0.132804  0  3.977549  0
C  C22  1  0.22378390  0.51602472  0.19205695  1  0.005851  0  -0.080808  -0.084676  0  3.9785  0
C  C23  1  0.26555159  0.51671966  0.09899162  1  -0.046651  0  -0.090269  -0.132532  0  3.97777  0
C  C24  1  0.60715219  0.47798672  0.19276907  1  0.002844  0  -0.080321  -0.084245  0  3.983755  0
C  C25  1  0.64773930  0.47863752  0.09971259  1  -0.066735  0  -0.092118  -0.13525  0  3.983203  0
C  C26  1  0.39289726  0.52212925  0.80721837  1  0.003342  0  -0.080093  -0.084037  0  3.983945  0
C  C27  1  0.35234333  0.52156251  0.90026079  1  -0.067856  0  -0.092498  -0.136005  0  3.983665  0
C  C28  1  0.52180611  0.50135463  0.95011102  1  -0.034675  0  -0.002693  0.074987  0  3.977734  0
C  C29  1  0.47830796  0.49882689  0.04985117  1  -0.072191  0  -0.002963  0.074635  0  3.977043  0
C  C30  1  0.22051576  0.88231041  0.47031869  1  0.566605  0  0.092139  0.291312  0  4.063605  0
C  C31  1  0.77938526  0.11761570  0.52966475  1  0.566512  0  0.092243  0.290993  0  4.062739  0
C  C32  1  0.07506666  0.81797844  0.48750382  1  -0.11086  0  -0.030069  -0.231668  0  3.891434  0
C  C33  1  0.92491431  0.18192229  0.51250016  1  -0.110385  0  -0.030324  -0.232042  0  3.892354  0
C  C34  1  0.88828736  0.00831439  0.51437454  1  -0.143574  0  -0.033991  -0.126596  0  4.120013  0
C  C35  1  0.11156944  0.99161585  0.48560933  1  -0.079033  0  -0.034114  -0.12711  0  4.120409  0
S  S36  1  0.80886584  0.89003098  0.52453360  1  0.203224  0  0.079439  0.110025  0  2.877141  0
S  S37  1  0.19101625  0.10988324  0.47546550  1  0.205523  0  0.079833  0.110721  0  2.878224  0
O  O38  1  0.67451966  0.34899600  0.53615837  1  -1.254673  0  -0.231858  -0.582083  0  2.370303  0
O  O39  1  0.85132142  0.47465127  0.62487412  1  -1.269348  0  -0.240736  -0.604741  0  2.361438  0
O  O40  1  0.97015984  0.65472899  0.50370767  1  -1.24406  0  -0.240402  -0.580968  0  2.287154  0
O  O41  1  0.50999234  0.47883057  0.37975273  1  -1.257728  0  -0.237788  -0.587732  0  2.329493  0
O  O42  1  0.32546701  0.65092679  0.46385512  1  -1.254478  0  -0.231774  -0.582011  0  2.370163  0
O  O43  1  0.14863280  0.52521034  0.37514823  1  -1.269564  0  -0.240882  -0.605183  0  2.3607  0
O  O44  1  0.02988896  0.34512147  0.49631565  1  -1.24268  0  -0.240148  -0.58051  0  2.287022  0
O  O45  1  0.48993368  0.52110348  0.62030098  1  -1.257218  0  -0.23754  -0.587268  0  2.329314  0
O  O46  1  0.25885720  0.44433774  0.54816911  1  -1.443809  0  -0.448597  -0.990127  0  2.193957  0
O  O47  1  0.74111599  0.55555327  0.45187661  1  -1.445225  0  -0.448312  -0.989879  0  2.193957  0
O  O48  1  0.43523731  0.84393291  0.44209542  1  -1.110468  0  -0.323997  -0.385839  0  2.346974  0
O  O49  1  0.56463782  0.15600377  0.55791243  1  -1.109699  0  -0.324113  -0.385942  0  2.346084  0
