# generated using pymatgen
data_PrH13C18N2O7
_symmetry_space_group_name_H-M   'P 1'
_cell_length_a   8.98890342
_cell_length_b   10.05497671
_cell_length_c   10.52562943
_cell_angle_alpha   72.35769782
_cell_angle_beta   77.76557149
_cell_angle_gamma   69.92379029
_symmetry_Int_Tables_number   1
_chemical_formula_structural   PrH13C18N2O7
_chemical_formula_sum   'Pr2 H26 C36 N4 O14'
_cell_volume   845.30127590
_cell_formula_units_Z   2
loop_
 _symmetry_equiv_pos_site_id
 _symmetry_equiv_pos_as_xyz
  1  'x, y, z'
loop_
 _atom_site_type_symbol
 _atom_site_label
 _atom_site_symmetry_multiplicity
 _atom_site_fract_x
 _atom_site_fract_y
 _atom_site_fract_z
 _atom_site_occupancy
 _atom_site_hle17_bader_spin_density
 _atom_site_hle17_ddec_charge
 _atom_site_hle17_ddec_spin_density
 _atom_site_hle17_ddec_sum_bond_order
 _atom_site_hle17_magmom
 _atom_site_hse06_10hf_bader_spin_density
 _atom_site_hse06_10hf_ddec_charge
 _atom_site_hse06_10hf_ddec_spin_density
 _atom_site_hse06_10hf_ddec_sum_bond_order
 _atom_site_hse06_10hf_magmom
 _atom_site_hse06_bader_spin_density
 _atom_site_hse06_ddec_charge
 _atom_site_hse06_ddec_spin_density
 _atom_site_hse06_ddec_sum_bond_order
 _atom_site_hse06_magmom
 _atom_site_pbe_bader_spin_density
 _atom_site_pbe_cm5_charge
 _atom_site_pbe_ddec_charge
 _atom_site_pbe_ddec_spin_density
 _atom_site_pbe_ddec_sum_bond_order
 _atom_site_pbe_magmom
Pr  Pr0  1  0.58447597  0.41210567  0.33482775  1  0  2.251181  0  1.685742  0  0  2.062606  0  2.17305  0  0  2.106894  0  2.124815  0  0  1.484278  2.026085  0  2.211244  0
Pr  Pr1  1  0.41552394  0.58789507  0.66516961  1  0  2.251173  0  1.685719  0  0  2.0626  0  2.173029  0  0  2.106877  0  2.124814  0  0  1.484285  2.026078  0  2.211225  0
H  H2  1  0.73225755  0.04200617  0.50702252  1  0  0.078752  0  0.982403  0  0  0.084533  0  1.051091  0  0  0.087331  0  1.048823  0  0  0.115913  0.082137  0  1.053597  0
H  H3  1  0.26774245  0.95799782  0.49297864  1  0  0.078705  0  0.982383  0  0  0.084487  0  1.05108  0  0  0.087286  0  1.048808  0  0  0.11589  0.08209  0  1.053587  0
H  H4  1  0.94798764  0.80511699  0.50306482  1  0  0.111243  0  0.964695  0  0  0.121962  0  1.021579  0  0  0.124983  0  1.021301  0  0  0.107797  0.119744  0  1.022152  0
H  H5  1  0.05201351  0.19488699  0.49693708  1  0  0.11125  0  0.964733  0  0  0.121966  0  1.02162  0  0  0.124988  0  1.021344  0  0  0.107813  0.119749  0  1.022192  0
H  H6  1  0.14847473  0.78978637  0.29575594  1  0  0.113379  0  0.927788  0  0  0.125975  0  0.983837  0  0  0.128625  0  0.982456  0  0  0.116068  0.124005  0  0.985183  0
H  H7  1  0.85152555  0.21021326  0.70424547  1  0  0.113397  0  0.927755  0  0  0.125991  0  0.983805  0  0  0.128643  0  0.982422  0  0  0.116071  0.124021  0  0.985152  0
H  H8  1  0.24527545  0.91327370  0.06565900  1  0  0.115665  0  0.962365  0  0  0.124371  0  1.024707  0  0  0.127592  0  1.023412  0  0  0.107667  0.121715  0  1.026666  0
H  H9  1  0.75472447  0.08672702  0.93434026  1  0  0.115675  0  0.962364  0  0  0.124398  0  1.024693  0  0  0.127619  0  1.023398  0  0  0.107676  0.121746  0  1.026641  0
H  H10  1  0.21265168  0.13244793  0.87537170  1  0  0.098466  0  0.969527  0  0  0.109554  0  1.031467  0  0  0.111334  0  1.032351  0  0  0.10391  0.10819  0  1.031314  0
H  H11  1  0.78734597  0.86755279  0.12463083  1  0  0.098471  0  0.969491  0  0  0.109552  0  1.031441  0  0  0.111334  0  1.032321  0  0  0.103897  0.108187  0  1.031287  0
H  H12  1  0.07365378  0.39314695  0.77896938  1  0  0.10958  0  0.953237  0  0  0.118161  0  1.017067  0  0  0.120616  0  1.016193  0  0  0.113995  0.116599  0  1.017568  0
H  H13  1  0.92634728  0.60685377  0.22103062  1  0  0.1096  0  0.953221  0  0  0.118181  0  1.01705  0  0  0.120635  0  1.016176  0  0  0.114006  0.116618  0  1.017551  0
H  H14  1  0.86353543  0.62410879  0.81061294  1  0  0.114919  0  0.928318  0  0  0.127689  0  0.981036  0  0  0.130804  0  0.980332  0  0  0.113639  0.125271  0  0.982286  0
H  H15  1  0.13646563  0.37589193  0.18938706  1  0  0.114906  0  0.928294  0  0  0.12767  0  0.981024  0  0  0.130785  0  0.980321  0  0  0.113623  0.125251  0  0.982276  0
H  H16  1  0.68797529  0.62100927  0.02891983  1  0  0.084493  0  0.972795  0  0  0.090091  0  1.040376  0  0  0.093325  0  1.036945  0  0  0.123327  0.087661  0  1.042799  0
H  H17  1  0.31202656  0.37899254  0.97108067  1  0  0.08448  0  0.972801  0  0  0.090082  0  1.040385  0  0  0.093316  0  1.036951  0  0  0.12333  0.087651  0  1.042809  0
H  H18  1  0.51519073  0.92857249  0.13170938  1  0  0.130542  0  0.939332  0  0  0.13546  0  1.006148  0  0  0.14028  0  1.00259  0  0  0.112464  0.131882  0  1.00919  0
H  H19  1  0.48480848  0.07143043  0.86828939  1  0  0.130501  0  0.939349  0  0  0.13541  0  1.006186  0  0  0.14024  0  1.002616  0  0  0.112454  0.131831  0  1.009229  0
H  H20  1  0.48769596  0.03757810  0.38287702  1  0  0.116454  0  0.948607  0  0  0.123916  0  1.013866  0  0  0.127899  0  1.01127  0  0  0.109272  0.120891  0  1.016015  0
H  H21  1  0.51230132  0.96242373  0.61712146  1  0  0.116386  0  0.948674  0  0  0.123901  0  1.013881  0  0  0.127885  0  1.011282  0  0  0.109253  0.120876  0  1.01603  0
H  H22  1  0.12536999  0.43752204  0.39072468  1  0  0.126475  0  0.940729  0  0  0.133549  0  1.00311  0  0  0.137885  0  1.000458  0  0  0.117993  0.130592  0  1.004902  0
H  H23  1  0.87462995  0.56247867  0.60927838  1  0  0.126496  0  0.940684  0  0  0.133543  0  1.003101  0  0  0.137877  0  1.00045  0  0  0.11797  0.130585  0  1.004893  0
H  H24  1  0.43722215  0.66706612  0.06962504  1  0  0.436092  0  0.864383  0  0  0.402338  0  0.932905  0  0  0.414271  0  0.915369  0  0  0.292277  0.393923  0  0.945218  0
H  H25  1  0.56278084  0.33293569  0.93037525  1  0  0.436099  0  0.864367  0  0  0.402343  0  0.932894  0  0  0.414275  0  0.91536  0  0  0.292289  0.393929  0  0.945206  0
H  H26  1  0.38026697  0.52371151  0.11941596  1  0  0.405017  0  0.887736  0  0  0.376818  0  0.961077  0  0  0.385717  0  0.948014  0  0  0.29572  0.37088  0  0.969675  0
H  H27  1  0.61973451  0.47629140  0.88058239  1  0  0.404984  0  0.887768  0  0  0.376796  0  0.961096  0  0  0.385695  0  0.948032  0  0  0.295705  0.370857  0  0.969693  0
C  C28  1  0.82044378  0.03072609  0.41909656  1  0  0.143165  0  3.7168  0  0  0.114726  0  3.974803  0  0  0.121717  0  3.991493  0  0  0.056214  0.1097  0  3.964376  0
C  C29  1  0.17955693  0.96927572  0.58090605  1  0  0.14323  0  3.716817  0  0  0.114794  0  3.974813  0  0  0.121784  0  3.991505  0  0  0.056228  0.109768  0  3.964387  0
C  C30  1  0.94113228  0.89806152  0.41582548  1  0  -0.118865  0  3.730709  0  0  -0.130894  0  3.980404  0  0  -0.138178  0  4.003125  0  0  -0.084823  -0.125966  0  3.966054  0
C  C31  1  0.05886808  0.10194138  0.58417592  1  0  -0.118921  0  3.730778  0  0  -0.130945  0  3.980464  0  0  -0.138232  0  4.003188  0  0  -0.084835  -0.126016  0  3.966115  0
C  C32  1  0.05157331  0.88983081  0.30298663  1  0  -0.042059  0  3.664175  0  0  -0.0659  0  3.910115  0  0  -0.064118  0  3.929143  0  0  -0.060139  -0.067035  0  3.898704  0
C  C33  1  0.94842776  0.11016991  0.69701432  1  0  -0.042043  0  3.664109  0  0  -0.065854  0  3.910063  0  0  -0.064071  0  3.929089  0  0  -0.060117  -0.066989  0  3.898652  0
C  C34  1  0.03917255  0.01453674  0.19355816  1  0  0.024128  0  3.792378  0  0  0.0419  0  4.019788  0  0  0.039253  0  4.045301  0  0  -0.000234  0.044243  0  4.002895  0
C  C35  1  0.96082666  0.98546616  0.80644250  1  0  0.024193  0  3.792273  0  0  0.041881  0  4.01979  0  0  0.039234  0  4.045302  0  0  -0.000259  0.044225  0  4.002897  0
C  C36  1  0.14841338  0.01287610  0.07317527  1  0  -0.097111  0  3.736529  0  0  -0.120722  0  3.991907  0  0  -0.124352  0  4.015622  0  0  -0.082632  -0.118841  0  3.977308  0
C  C37  1  0.85158575  0.98712353  0.92682540  1  0  -0.097192  0  3.73652  0  0  -0.120798  0  3.99192  0  0  -0.124428  0  4.015636  0  0  -0.082645  -0.118916  0  3.977322  0
C  C38  1  0.13098876  0.13386449  0.96783534  1  0  -0.092656  0  3.739362  0  0  -0.115312  0  3.992104  0  0  -0.118549  0  4.015962  0  0  -0.083518  -0.113573  0  3.977808  0
C  C39  1  0.86900923  0.86613515  0.03216363  1  0  -0.092642  0  3.739334  0  0  -0.115269  0  3.992082  0  0  -0.118505  0  4.015938  0  0  -0.083488  -0.113528  0  3.977784  0
C  C40  1  0.00679243  0.26635952  0.97648484  1  0  0.024482  0  3.783022  0  0  0.041773  0  4.010264  0  0  0.038974  0  4.034907  0  0  0.000291  0.043586  0  3.995907  0
C  C41  1  0.99320364  0.73363904  0.02351480  1  0  0.024515  0  3.783007  0  0  0.04175  0  4.010317  0  0  0.038949  0  4.034962  0  0  0.000244  0.04356  0  3.995963  0
C  C42  1  0.99112248  0.39465852  0.87104542  1  0  -0.036446  0  3.665703  0  0  -0.060071  0  3.913674  0  0  -0.057394  0  3.931453  0  0  -0.056937  -0.062583  0  3.90313  0
C  C43  1  0.00887893  0.60534111  0.12895484  1  0  -0.036511  0  3.665698  0  0  -0.060112  0  3.913665  0  0  -0.057434  0  3.931444  0  0  -0.056948  -0.062622  0  3.903118  0
C  C44  1  0.87608866  0.52232197  0.88856771  1  0  -0.110056  0  3.723513  0  0  -0.124996  0  3.978565  0  0  -0.131514  0  3.999062  0  0  -0.079831  -0.120981  0  3.965894  0
C  C45  1  0.12391240  0.47767875  0.11143229  1  0  -0.11001  0  3.723429  0  0  -0.124932  0  3.978458  0  0  -0.131452  0  3.99896  0  0  -0.079806  -0.120918  0  3.965788  0
C  C46  1  0.77655974  0.52060685  0.01123500  1  0  0.121762  0  3.744056  0  0  0.095249  0  3.999291  0  0  0.103292  0  4.013836  0  0  0.054573  0.090914  0  3.989007  0
C  C47  1  0.22344096  0.47939497  0.98876286  1  0  0.121727  0  3.744164  0  0  0.095208  0  3.999399  0  0  0.103252  0  4.013942  0  0  0.054547  0.090874  0  3.989114  0
C  C48  1  0.89810062  0.27350585  0.09584566  1  0  0.147356  0  3.741228  0  0  0.142251  0  3.98007  0  0  0.14681  0  4.00072  0  0  0.125098  0.140337  0  3.965637  0
C  C49  1  0.10189475  0.72649489  0.90415538  1  0  0.147297  0  3.741213  0  0  0.142208  0  3.980064  0  0  0.146765  0  4.000714  0  0  0.125099  0.140295  0  3.965631  0
C  C50  1  0.91247292  0.14414729  0.20570407  1  0  0.141286  0  3.733376  0  0  0.138073  0  3.968924  0  0  0.142137  0  3.989578  0  0  0.123623  0.134873  0  3.955002  0
C  C51  1  0.08752587  0.85585343  0.79429825  1  0  0.141318  0  3.733364  0  0  0.13813  0  3.968918  0  0  0.142195  0  3.989571  0  0  0.123673  0.134929  0  3.954997  0
C  C52  1  0.51865790  0.77640299  0.33304673  1  0  0.740573  0  3.860247  0  0  0.700154  0  4.143032  0  0  0.735325  0  4.131337  0  0  0.230864  0.67593  0  4.149988  0
C  C53  1  0.48134316  0.22359774  0.66695232  1  0  0.740678  0  3.860084  0  0  0.700236  0  4.142915  0  0  0.735406  0  4.131222  0  0  0.230902  0.676012  0  4.149876  0
C  C54  1  0.50597823  0.92337082  0.23816509  1  0  -0.164547  0  3.639391  0  0  -0.18246  0  3.892474  0  0  -0.186938  0  3.905437  0  0  -0.079805  -0.179685  0  3.883514  0
C  C55  1  0.49402061  0.07663319  0.76183247  1  0  -0.164551  0  3.63936  0  0  -0.182457  0  3.892483  0  0  -0.186947  0  3.905445  0  0  -0.079845  -0.179684  0  3.883526  0
C  C56  1  0.49557519  0.04205789  0.27681024  1  0  -0.176752  0  3.650638  0  0  -0.197587  0  3.907226  0  0  -0.203391  0  3.922012  0  0  -0.08413  -0.193269  0  3.896769  0
C  C57  1  0.50442288  0.95794503  0.72318778  1  0  -0.176674  0  3.65062  0  0  -0.197555  0  3.907197  0  0  -0.203357  0  3.921985  0  0  -0.084086  -0.193236  0  3.89674  0
C  C58  1  0.49668387  0.18580177  0.18042472  1  0  0.720056  0  3.884769  0  0  0.67207  0  4.182373  0  0  0.706692  0  4.172049  0  0  0.216958  0.6484  0  4.188438  0
C  C59  1  0.50331569  0.81420005  0.81957429  1  0  0.720037  0  3.884854  0  0  0.672053  0  4.182461  0  0  0.706674  0  4.172139  0  0  0.216981  0.648382  0  4.188528  0
C  C60  1  0.18738758  0.54227519  0.51941147  1  0  0.707448  0  3.902927  0  0  0.666185  0  4.187557  0  0  0.700775  0  4.176797  0  0  0.213217  0.641803  0  4.195435  0
C  C61  1  0.81261050  0.45772772  0.48058941  1  0  0.707225  0  3.903087  0  0  0.665961  0  4.18773  0  0  0.700549  0  4.176977  0  0  0.213087  0.641581  0  4.195603  0
C  C62  1  0.07642877  0.49110561  0.47282806  1  0  -0.148804  0  3.603202  0  0  -0.166976  0  3.853582  0  0  -0.171836  0  3.866766  0  0  -0.065751  -0.163703  0  3.845084  0
C  C63  1  0.92357158  0.50889729  0.52717335  1  0  -0.148742  0  3.603068  0  0  -0.166912  0  3.853463  0  0  -0.171777  0  3.866665  0  0  -0.06571  -0.163639  0  3.844963  0
N  N64  1  0.80554151  0.15089556  0.31818004  1  0  -0.420854  0  3.222266  0  0  -0.36857  0  3.486014  0  0  -0.382345  0  3.503814  0  0  -0.36136  -0.358959  0  3.474486  0
N  N65  1  0.19445842  0.84910515  0.68182207  1  0  -0.420885  0  3.222311  0  0  -0.368605  0  3.486061  0  0  -0.38238  0  3.503861  0  0  -0.361386  -0.358993  0  3.474534  0
N  N66  1  0.78405256  0.39988729  0.11095532  1  0  -0.437701  0  3.24617  0  0  -0.386118  0  3.514821  0  0  -0.400048  0  3.531325  0  0  -0.383837  -0.376159  0  3.502185  0
N  N67  1  0.21594735  0.60011344  0.88904394  1  0  -0.437641  0  3.246229  0  0  -0.386051  0  3.514861  0  0  -0.399979  0  3.531363  0  0  -0.383802  -0.376092  0  3.502224  0
O  O68  1  0.59141559  0.66771609  0.28247827  1  0  -0.704726  0  1.984562  0  0  -0.647521  0  2.22876  0  0  -0.672161  0  2.21848  0  0  -0.383401  -0.62758  0  2.234285  0
O  O69  1  0.40858546  0.33228464  0.71751984  1  0  -0.704762  0  1.984537  0  0  -0.647554  0  2.228756  0  0  -0.672191  0  2.218476  0  0  -0.383408  -0.627612  0  2.234283  0
O  O70  1  0.46006087  0.76922487  0.45558948  1  0  -0.740651  0  2.031899  0  0  -0.686689  0  2.28252  0  0  -0.711247  0  2.270776  0  0  -0.390708  -0.66806  0  2.290197  0
O  O71  1  0.53993834  0.23077804  0.54440929  1  0  -0.74069  0  2.03183  0  0  -0.686727  0  2.282465  0  0  -0.711284  0  2.270718  0  0  -0.390716  -0.668098  0  2.290144  0
O  O72  1  0.52693962  0.19440857  0.05594533  1  0  -0.616291  0  1.938084  0  0  -0.556718  0  2.154584  0  0  -0.581048  0  2.144626  0  0  -0.302194  -0.540185  0  2.161037  0
O  O73  1  0.47306265  0.80559543  0.94405352  1  0  -0.61632  0  1.938125  0  0  -0.556722  0  2.154613  0  0  -0.581053  0  2.144657  0  0  -0.302244  -0.540188  0  2.161066  0
O  O74  1  0.46430938  0.29386981  0.23347878  1  0  -0.785364  0  2.023322  0  0  -0.726552  0  2.287419  0  0  -0.7518  0  2.274022  0  0  -0.426311  -0.707415  0  2.295389  0
O  O75  1  0.53569133  0.70613200  0.76652098  1  0  -0.785326  0  2.023326  0  0  -0.726541  0  2.287444  0  0  -0.751786  0  2.274046  0  0  -0.426284  -0.707404  0  2.295412  0
O  O76  1  0.32897408  0.52677040  0.45678297  1  0  -0.802251  0  2.101478  0  0  -0.738671  0  2.356892  0  0  -0.762905  0  2.343874  0  0  -0.415449  -0.720251  0  2.36375  0
O  O77  1  0.67102514  0.47323250  0.54321960  1  0  -0.802162  0  2.1016  0  0  -0.738574  0  2.356991  0  0  -0.762808  0  2.343977  0  0  -0.415392  -0.72016  0  2.363854  0
O  O78  1  0.14182771  0.59913357  0.61895134  1  0  -0.677087  0  1.980891  0  0  -0.631915  0  2.223186  0  0  -0.655114  0  2.215361  0  0  -0.358119  -0.615852  0  2.230054  0
O  O79  1  0.85817114  0.40087043  0.38104908  1  0  -0.677005  0  1.980908  0  0  -0.631827  0  2.223212  0  0  -0.655028  0  2.215388  0  0  -0.358064  -0.615765  0  2.230077  0
O  O80  1  0.41276318  0.59024762  0.15087797  1  0  -0.890285  0  1.875669  0  0  -0.841739  0  2.074575  0  0  -0.859593  0  2.044489  0  0  -0.635977  -0.829268  0  2.095501  0
O  O81  1  0.58723980  0.40975419  0.84912137  1  0  -0.890272  0  1.875687  0  0  -0.8417  0  2.074573  0  0  -0.859553  0  2.04449  0  0  -0.635994  -0.829229  0  2.095495  0
