# generated using pymatgen
data_CdH70(C24O7)2
_symmetry_space_group_name_H-M   'P 1'
_cell_length_a   6.96595379
_cell_length_b   11.08028913
_cell_length_c   17.57745757
_cell_angle_alpha   72.48942619
_cell_angle_beta   78.57201166
_cell_angle_gamma   71.70090947
_symmetry_Int_Tables_number   1
_chemical_formula_structural   CdH70(C24O7)2
_chemical_formula_sum   'Cd1 H70 C48 O14'
_cell_volume   1220.33703543
_cell_formula_units_Z   1
loop_
 _symmetry_equiv_pos_site_id
 _symmetry_equiv_pos_as_xyz
  1  'x, y, z'
loop_
 _atom_site_type_symbol
 _atom_site_label
 _atom_site_symmetry_multiplicity
 _atom_site_fract_x
 _atom_site_fract_y
 _atom_site_fract_z
 _atom_site_occupancy
 _atom_site_hle17_bader_spin_density
 _atom_site_hle17_ddec_charge
 _atom_site_hle17_ddec_spin_density
 _atom_site_hle17_ddec_sum_bond_order
 _atom_site_hle17_magmom
 _atom_site_hse06_10hf_bader_spin_density
 _atom_site_hse06_10hf_ddec_charge
 _atom_site_hse06_10hf_ddec_spin_density
 _atom_site_hse06_10hf_ddec_sum_bond_order
 _atom_site_hse06_10hf_magmom
 _atom_site_hse06_bader_spin_density
 _atom_site_hse06_ddec_charge
 _atom_site_hse06_ddec_spin_density
 _atom_site_hse06_ddec_sum_bond_order
 _atom_site_hse06_magmom
 _atom_site_pbe_bader_spin_density
 _atom_site_pbe_cm5_charge
 _atom_site_pbe_ddec_charge
 _atom_site_pbe_ddec_spin_density
 _atom_site_pbe_ddec_sum_bond_order
 _atom_site_pbe_magmom
Cd  Cd0  1  0.66007671  0.99972092  0.00004032  1  0  1.273804  0  1.586596  0  0  1.099621  0  2.043013  0  0  1.15784  0  1.979072  0  0  0.775387  1.057724  0  2.08737  0
H  H1  1  0.35077399  0.54073536  0.79750563  1  0  0.05434  0  0.928503  0  0  0.06457  0  0.99403  0  0  0.066089  0  0.993032  0  0  0.094401  0.063453  0  0.994791  0
H  H2  1  0.68992481  0.45920653  0.20250686  1  0  0.053378  0  0.929372  0  0  0.063863  0  0.994805  0  0  0.06535  0  0.993837  0  0  0.094119  0.062761  0  0.995541  0
H  H3  1  0.72076824  0.66307262  0.63390237  1  0  0.058216  0  0.964787  0  0  0.077247  0  1.029045  0  0  0.077815  0  1.029353  0  0  0.085386  0.076759  0  1.028972  0
H  H4  1  0.01813556  0.33726732  0.36615811  1  0  0.05881  0  0.96252  0  0  0.07759  0  1.027024  0  0  0.078108  0  1.027389  0  0  0.085491  0.077145  0  1.026899  0
H  H5  1  0.69684957  0.55848795  0.73134893  1  0  0.067305  0  0.939856  0  0  0.080863  0  1.010529  0  0  0.082181  0  1.009951  0  0  0.086599  0.079848  0  1.011039  0
H  H6  1  0.98745667  0.44145255  0.26857377  1  0  0.066515  0  0.940607  0  0  0.080411  0  1.010858  0  0  0.08175  0  1.010242  0  0  0.086287  0.079408  0  1.011371  0
H  H7  1  0.80690683  0.42658929  0.63378120  1  0  0.071879  0  0.94417  0  0  0.090977  0  1.005856  0  0  0.091355  0  1.00693  0  0  0.091721  0.090657  0  1.005173  0
H  H8  1  0.86812581  0.57382443  0.36597448  1  0  0.071586  0  0.944922  0  0  0.090831  0  1.006359  0  0  0.091127  0  1.007539  0  0  0.091483  0.090549  0  1.005643  0
H  H9  1  0.60266128  0.52094635  0.57777633  1  0  0.047998  0  0.957484  0  0  0.067376  0  1.020161  0  0  0.068154  0  1.01988  0  0  0.081608  0.066707  0  1.020478  0
H  H10  1  0.70209691  0.47960323  0.42203800  1  0  0.048564  0  0.957142  0  0  0.067702  0  1.020081  0  0  0.068421  0  1.019866  0  0  0.081778  0.067104  0  1.020316  0
H  H11  1  0.58093583  0.35039270  0.75129710  1  0  0.077568  0  0.935757  0  0  0.092837  0  0.998418  0  0  0.094763  0  0.997441  0  0  0.091127  0.091437  0  0.999171  0
H  H12  1  0.68333158  0.64990244  0.24844130  1  0  0.078874  0  0.935314  0  0  0.094328  0  0.997553  0  0  0.096279  0  0.996571  0  0  0.092261  0.092903  0  0.998342  0
H  H13  1  0.53221058  0.31301426  0.66755261  1  0  0.069021  0  0.949445  0  0  0.08616  0  1.011851  0  0  0.087037  0  1.012036  0  0  0.088437  0.08544  0  1.011893  0
H  H14  1  0.51371689  0.68733159  0.33221448  1  0  0.068806  0  0.95008  0  0  0.086368  0  1.012041  0  0  0.087268  0  1.012199  0  0  0.087914  0.085651  0  1.012071  0
H  H15  1  0.98538919  0.72052043  0.71039690  1  0  0.057812  0  0.963279  0  0  0.076994  0  1.030342  0  0  0.077484  0  1.030914  0  0  0.085815  0.076561  0  1.030019  0
H  H16  1  0.41683943  0.27959181  0.28971629  1  0  0.058939  0  0.961869  0  0  0.078546  0  1.028174  0  0  0.079024  0  1.02878  0  0  0.086809  0.078065  0  1.027915  0
H  H17  1  0.97160075  0.59653922  0.79981930  1  0  0.067989  0  0.929908  0  0  0.089527  0  0.986044  0  0  0.090315  0  0.986198  0  0  0.090117  0.088873  0  0.986033  0
H  H18  1  0.36829194  0.40373075  0.20035994  1  0  0.067112  0  0.929833  0  0  0.088422  0  0.986087  0  0  0.0892  0  0.986257  0  0  0.089097  0.087786  0  0.986039  0
H  H19  1  0.12263351  0.69683786  0.87126886  1  0  0.079543  0  0.917126  0  0  0.097632  0  0.97462  0  0  0.09956  0  0.973466  0  0  0.091943  0.096204  0  0.975544  0
H  H20  1  0.69071518  0.30335046  0.12877053  1  0  0.07903  0  0.918063  0  0  0.097644  0  0.974941  0  0  0.099514  0  0.9738  0  0  0.092087  0.09623  0  0.975867  0
H  H21  1  0.90619689  0.81151964  0.83045530  1  0  0.075713  0  0.939574  0  0  0.092524  0  1.001244  0  0  0.093459  0  1.001687  0  0  0.088196  0.091794  0  1.001039  0
H  H22  1  0.54794499  0.18881336  0.16958564  1  0  0.07709  0  0.939481  0  0  0.093839  0  1.00091  0  0  0.094767  0  1.001308  0  0  0.08916  0.093101  0  1.000738  0
H  H23  1  0.48020846  0.70980031  0.79407309  1  0  0.048748  0  0.926505  0  0  0.059951  0  0.988851  0  0  0.061082  0  0.988221  0  0  0.091131  0.059081  0  0.989403  0
H  H24  1  0.98420764  0.29021927  0.20596272  1  0  0.049488  0  0.925627  0  0  0.06083  0  0.988039  0  0  0.06199  0  0.987426  0  0  0.091398  0.05994  0  0.988582  0
H  H25  1  0.66887717  0.85410375  0.72815464  1  0  0.070925  0  0.952162  0  0  0.089528  0  1.015169  0  0  0.090032  0  1.015817  0  0  0.088543  0.089057  0  1.014835  0
H  H26  1  0.25118851  0.14579949  0.27164395  1  0  0.070844  0  0.952669  0  0  0.089455  0  1.016166  0  0  0.089963  0  1.016821  0  0  0.088407  0.089006  0  1.015792  0
H  H27  1  0.59658946  0.86599294  0.63532866  1  0  0.065605  0  0.970619  0  0  0.083361  0  1.035961  0  0  0.084258  0  1.0362  0  0  0.087878  0.082644  0  1.035887  0
H  H28  1  0.09833616  0.13407009  0.36453743  1  0  0.064726  0  0.970612  0  0  0.08287  0  1.036101  0  0  0.083771  0  1.036317  0  0  0.087544  0.082148  0  1.036054  0
H  H29  1  0.49021924  0.08751729  0.66003658  1  0  0.058953  0  0.930115  0  0  0.072454  0  0.990562  0  0  0.073553  0  0.990213  0  0  0.096526  0.0716  0  0.990912  0
H  H30  1  0.23718921  0.91240323  0.33996249  1  0  0.058766  0  0.930142  0  0  0.072265  0  0.99077  0  0  0.073306  0  0.990486  0  0  0.096461  0.071437  0  0.991101  0
H  H31  1  0.95050826  0.96312248  0.68710620  1  0  0.094562  0  0.969368  0  0  0.105826  0  1.036573  0  0  0.108298  0  1.035723  0  0  0.096558  0.104055  0  1.037263  0
H  H32  1  0.60010201  0.03716223  0.31304639  1  0  0.093964  0  0.969752  0  0  0.105563  0  1.036704  0  0  0.108071  0  1.035801  0  0  0.096711  0.10377  0  1.037429  0
H  H33  1  0.22991889  0.12394806  0.77791020  1  0  0.08449  0  0.980623  0  0  0.09222  0  1.047199  0  0  0.094523  0  1.046616  0  0  0.10981  0.090541  0  1.047708  0
H  H34  1  0.13071968  0.87588663  0.22222444  1  0  0.085073  0  0.979892  0  0  0.092538  0  1.047262  0  0  0.094856  0  1.046657  0  0  0.110073  0.090835  0  1.047796  0
H  H35  1  0.32318853  0.84855273  0.87469556  1  0  0.100468  0  0.914786  0  0  0.109033  0  0.972105  0  0  0.112211  0  0.969787  0  0  0.107125  0.106772  0  0.973822  0
H  H36  1  0.04597815  0.15112624  0.12526922  1  0  0.099471  0  0.915049  0  0  0.108798  0  0.971704  0  0  0.111962  0  0.969388  0  0  0.107227  0.106558  0  0.973402  0
H  H37  1  0.15855926  0.24445622  0.60372537  1  0  0.034943  0  0.930268  0  0  0.053305  0  0.985685  0  0  0.053412  0  0.985996  0  0  0.090959  0.053178  0  0.985568  0
H  H38  1  0.00615559  0.75581869  0.39618287  1  0  0.034766  0  0.929153  0  0  0.053951  0  0.984764  0  0  0.053978  0  0.985134  0  0  0.090776  0.053798  0  0.984697  0
H  H39  1  0.81946384  0.19247654  0.63033131  1  0  0.104106  0  0.973964  0  0  0.123433  0  1.039473  0  0  0.125161  0  1.039069  0  0  0.08794  0.122115  0  1.039894  0
H  H40  1  0.64184160  0.80782017  0.36962756  1  0  0.104589  0  0.974402  0  0  0.123375  0  1.040462  0  0  0.125114  0  1.04006  0  0  0.087849  0.122061  0  1.040857  0
H  H41  1  0.90465921  0.10236867  0.55623169  1  0  0.09038  0  0.962491  0  0  0.112247  0  1.027313  0  0  0.113128  0  1.027953  0  0  0.084119  0.111552  0  1.026919  0
H  H42  1  0.56280592  0.89743750  0.44396425  1  0  0.090835  0  0.963169  0  0  0.112987  0  1.027293  0  0  0.113902  0  1.02789  0  0  0.083827  0.112273  0  1.026923  0
H  H43  1  0.87881063  0.27385161  0.52809511  1  0  0.094568  0  0.95906  0  0  0.118535  0  1.017946  0  0  0.119515  0  1.018626  0  0  0.085477  0.117778  0  1.017513  0
H  H44  1  0.68044253  0.72592061  0.47177778  1  0  0.094436  0  0.958806  0  0  0.117622  0  1.018626  0  0  0.118552  0  1.019375  0  0  0.084571  0.11689  0  1.018148  0
H  H45  1  0.44863112  0.11747814  0.52258394  1  0  0.098758  0  0.958907  0  0  0.121376  0  1.019829  0  0  0.122526  0  1.02015  0  0  0.087314  0.120492  0  1.019663  0
H  H46  1  0.08863368  0.88234220  0.47741726  1  0  0.097502  0  0.95894  0  0  0.120501  0  1.019491  0  0  0.121624  0  1.019853  0  0  0.086968  0.119624  0  1.019314  0
H  H47  1  0.25464854  0.22829213  0.46400215  1  0  0.091635  0  0.971718  0  0  0.1141  0  1.035135  0  0  0.11529  0  1.035276  0  0  0.084509  0.113176  0  1.035115  0
H  H48  1  0.94696055  0.77134594  0.53601153  1  0  0.091596  0  0.97154  0  0  0.11416  0  1.034894  0  0  0.115385  0  1.034998  0  0  0.084632  0.113174  0  1.034941  0
H  H49  1  0.27198568  0.05724190  0.49436604  1  0  0.091167  0  0.96358  0  0  0.113331  0  1.027326  0  0  0.114597  0  1.027337  0  0  0.084069  0.11236  0  1.027402  0
H  H50  1  0.82363620  0.94245959  0.50592552  1  0  0.091039  0  0.963926  0  0  0.112646  0  1.028414  0  0  0.11394  0  1.028391  0  0  0.08362  0.111668  0  1.028479  0
H  H51  1  0.03313530  0.56509080  0.63723457  1  0  0.101252  0  0.980094  0  0  0.12154  0  1.046341  0  0  0.122602  0  1.047014  0  0  0.088268  0.120691  0  1.046023  0
H  H52  1  0.23603594  0.43523877  0.36263393  1  0  0.101507  0  0.980607  0  0  0.121635  0  1.047209  0  0  0.122719  0  1.047833  0  0  0.088472  0.120786  0  1.046885  0
H  H53  1  0.18523196  0.41342711  0.61865527  1  0  0.095585  0  0.972533  0  0  0.11261  0  1.042081  0  0  0.114554  0  1.04105  0  0  0.084155  0.111157  0  1.042908  0
H  H54  1  0.21852073  0.58677587  0.38133391  1  0  0.096097  0  0.971552  0  0  0.113496  0  1.040698  0  0  0.115453  0  1.039622  0  0  0.085176  0.112036  0  1.041543  0
H  H55  1  0.27448438  0.55489604  0.57969743  1  0  0.097823  0  0.979285  0  0  0.121082  0  1.036179  0  0  0.122654  0  1.035905  0  0  0.086419  0.119908  0  1.036444  0
H  H56  1  0.40978489  0.44508941  0.42026809  1  0  0.09902  0  0.979223  0  0  0.122308  0  1.036024  0  0  0.123887  0  1.035757  0  0  0.086983  0.121124  0  1.036287  0
H  H57  1  0.16572554  0.79753956  0.61182205  1  0  0.09316  0  0.994254  0  0  0.114896  0  1.057963  0  0  0.115497  0  1.059309  0  0  0.084424  0.114416  0  1.057078  0
H  H58  1  0.57518677  0.20288041  0.38847477  1  0  0.091712  0  0.994179  0  0  0.113824  0  1.057755  0  0  0.114426  0  1.059093  0  0  0.083832  0.113333  0  1.056885  0
H  H59  1  0.37825404  0.69974569  0.56390052  1  0  0.085017  0  0.993937  0  0  0.108111  0  1.053569  0  0  0.109095  0  1.053664  0  0  0.081138  0.107345  0  1.053579  0
H  H60  1  0.64315532  0.30051805  0.43624780  1  0  0.084563  0  0.994217  0  0  0.107691  0  1.053772  0  0  0.108685  0  1.053863  0  0  0.081279  0.1069  0  1.053821  0
H  H61  1  0.39326847  0.84427110  0.58120835  1  0  0.090976  0  0.994928  0  0  0.112132  0  1.060088  0  0  0.112663  0  1.061709  0  0  0.084185  0.111676  0  1.059069  0
H  H62  1  0.81904708  0.15584006  0.41889623  1  0  0.090441  0  0.995102  0  0  0.111815  0  1.060077  0  0  0.112353  0  1.061696  0  0  0.083672  0.111353  0  1.059049  0
H  H63  1  0.00438356  0.26713691  0.80153163  1  0  0.415175  0  0.821384  0  0  0.385147  0  0.898357  0  0  0.397443  0  0.883894  0  0  0.317115  0.376305  0  0.908835  0
H  H64  1  0.07364036  0.73214640  0.19844723  1  0  0.416729  0  0.818394  0  0  0.387114  0  0.894778  0  0  0.399487  0  0.880198  0  0  0.318624  0.378233  0  0.905312  0
H  H65  1  0.74616865  0.09558546  0.81073385  1  0  0.399801  0  0.892909  0  0  0.366125  0  0.97753  0  0  0.378102  0  0.964947  0  0  0.302553  0.357759  0  0.986225  0
H  H66  1  0.65167847  0.90429100  0.18922025  1  0  0.399823  0  0.892879  0  0  0.366229  0  0.977342  0  0  0.378203  0  0.964792  0  0  0.302936  0.35787  0  0.986014  0
H  H67  1  0.60058131  0.27150100  0.96091143  1  0  0.425193  0  0.823509  0  0  0.40825  0  0.877333  0  0  0.416621  0  0.867485  0  0  0.319237  0.402254  0  0.884261  0
H  H68  1  0.83338881  0.72823777  0.03874516  1  0  0.425329  0  0.823076  0  0  0.408228  0  0.877179  0  0  0.41662  0  0.867486  0  0  0.319641  0.402207  0  0.884139  0
H  H69  1  0.41908690  0.27211607  0.91867944  1  0  0.438878  0  0.854247  0  0  0.407401  0  0.917398  0  0  0.418148  0  0.901521  0  0  0.294638  0.399749  0  0.928716  0
H  H70  1  0.61038323  0.72734378  0.08110846  1  0  0.438782  0  0.854052  0  0  0.407167  0  0.917493  0  0  0.417948  0  0.901546  0  0  0.294989  0.399511  0  0.928825  0
C  C71  1  0.19664388  0.37268725  0.77677263  1  0  0.648428  0  3.693411  0  0  0.599113  0  3.998879  0  0  0.630774  0  3.991522  0  0  0.246634  0.577468  0  4.003432  0
C  C72  1  0.34678137  0.62703186  0.22315395  1  0  0.646909  0  3.695014  0  0  0.596686  0  4.002189  0  0  0.628346  0  3.994873  0  0  0.245588  0.575047  0  4.006718  0
C  C73  1  0.29157946  0.46836150  0.70814371  1  0  0.012447  0  3.544032  0  0  0.038258  0  3.77378  0  0  0.033192  0  3.792725  0  0  -0.010161  0.041653  0  3.760838  0
C  C74  1  0.46896530  0.53177402  0.29180988  1  0  0.014232  0  3.541042  0  0  0.040613  0  3.769692  0  0  0.035514  0  3.788769  0  0  -0.008469  0.04398  0  3.756824  0
C  C75  1  0.27942607  0.58736738  0.74105326  1  0  -0.059956  0  3.536243  0  0  -0.0654  0  3.760956  0  0  -0.067427  0  3.780114  0  0  -0.079948  -0.063901  0  3.747745  0
C  C76  1  0.60862501  0.41267338  0.25897491  1  0  -0.059057  0  3.534067  0  0  -0.064589  0  3.759498  0  0  -0.06659  0  3.778624  0  0  -0.080038  -0.063095  0  3.746285  0
C  C77  1  0.40883809  0.68140714  0.68884621  1  0  0.121072  0  3.496937  0  0  0.15129  0  3.716605  0  0  0.15106  0  3.736813  0  0  -0.01353  0.15147  0  3.702697  0
C  C78  1  0.77959409  0.31865028  0.31124483  1  0  0.122785  0  3.494629  0  0  0.150822  0  3.718158  0  0  0.150641  0  3.738406  0  0  -0.013764  0.150973  0  3.704218  0
C  C79  1  0.62987139  0.59865485  0.67403423  1  0  -0.159041  0  3.661921  0  0  -0.204069  0  3.916309  0  0  -0.205907  0  3.931746  0  0  -0.166122  -0.202604  0  3.905567  0
C  C80  1  0.90318689  0.40151492  0.32591590  1  0  -0.157363  0  3.65843  0  0  -0.201925  0  3.913396  0  0  -0.203744  0  3.928841  0  0  -0.164585  -0.200512  0  3.90269  0
C  C81  1  0.64702474  0.48455597  0.63918088  1  0  -0.096013  0  3.694478  0  0  -0.137374  0  3.955002  0  0  -0.138012  0  3.969907  0  0  -0.16819  -0.1367  0  3.94462  0
C  C82  1  0.77153646  0.51584933  0.36061109  1  0  -0.097165  0  3.694977  0  0  -0.13871  0  3.955728  0  0  -0.139233  0  3.970553  0  0  -0.16861  -0.138128  0  3.945428  0
C  C83  1  0.51966137  0.39466651  0.69309205  1  0  -0.146867  0  3.644366  0  0  -0.19116  0  3.898869  0  0  -0.192631  0  3.9134  0  0  -0.16521  -0.189971  0  3.888803  0
C  C84  1  0.60828882  0.60563608  0.30670898  1  0  -0.148876  0  3.646628  0  0  -0.193508  0  3.900836  0  0  -0.194954  0  3.915208  0  0  -0.166314  -0.1923  0  3.890791  0
C  C85  1  0.06243247  0.66440168  0.76437221  1  0  -0.123248  0  3.684589  0  0  -0.172932  0  3.949149  0  0  -0.173796  0  3.963926  0  0  -0.169019  -0.1721  0  3.938821  0
C  C86  1  0.49162153  0.33576993  0.23571460  1  0  -0.124514  0  3.686529  0  0  -0.173531  0  3.949196  0  0  -0.174448  0  3.96399  0  0  -0.169038  -0.172635  0  3.938836  0
C  C87  1  0.06287018  0.75642039  0.81405500  1  0  -0.157548  0  3.660757  0  0  -0.204367  0  3.923821  0  0  -0.205338  0  3.93661  0  0  -0.165836  -0.20352  0  3.914784  0
C  C88  1  0.63335082  0.24377933  0.18598601  1  0  -0.157856  0  3.66559  0  0  -0.2046  0  3.928851  0  0  -0.205449  0  3.941524  0  0  -0.166409  -0.203847  0  3.919955  0
C  C89  1  0.19227602  0.85186012  0.77097094  1  0  0.111032  0  3.527649  0  0  0.132089  0  3.753585  0  0  0.132451  0  3.772709  0  0  -0.004476  0.131893  0  3.740526  0
C  C90  1  0.81485268  0.14829148  0.22907302  1  0  0.113517  0  3.525776  0  0  0.132435  0  3.755839  0  0  0.132862  0  3.774817  0  0  -0.004793  0.132219  0  3.742785  0
C  C91  1  0.40972225  0.77505625  0.73985544  1  0  -0.061742  0  3.49001  0  0  -0.067112  0  3.716052  0  0  -0.069173  0  3.734275  0  0  -0.07712  -0.065624  0  3.703438  0
C  C92  1  0.92476327  0.22494004  0.26018516  1  0  -0.063505  0  3.487594  0  0  -0.068459  0  3.716265  0  0  -0.07068  0  3.73469  0  0  -0.076977  -0.066859  0  3.703515  0
C  C93  1  0.53614621  0.87426977  0.69672751  1  0  -0.154499  0  3.62355  0  0  -0.204832  0  3.877321  0  0  -0.205843  0  3.890761  0  0  -0.163371  -0.203911  0  3.867958  0
C  C94  1  0.10724785  0.12568095  0.30319332  1  0  -0.152611  0  3.623073  0  0  -0.203972  0  3.878624  0  0  -0.204924  0  3.892056  0  0  -0.163715  -0.20309  0  3.86924  0
C  C95  1  0.40481005  0.01610849  0.69387886  1  0  -0.012064  0  3.633617  0  0  -0.026149  0  3.875898  0  0  -0.025962  0  3.891544  0  0  -0.084978  -0.026137  0  3.865023  0
C  C96  1  0.11431343  0.98391130  0.30613676  1  0  -0.01423  0  3.633182  0  0  -0.027981  0  3.876229  0  0  -0.02771  0  3.891784  0  0  -0.085836  -0.028025  0  3.865424  0
C  C97  1  0.20762274  0.04208895  0.66013499  1  0  0.022475  0  3.63588  0  0  0.040666  0  3.871524  0  0  0.040606  0  3.894144  0  0  -0.022182  0.040679  0  3.85621  0
C  C98  1  0.90915355  0.95815088  0.33996411  1  0  0.02402  0  3.63168  0  0  0.043073  0  3.86804  0  0  0.043011  0  3.890604  0  0  -0.021263  0.043086  0  3.852724  0
C  C99  1  0.09927271  0.95716132  0.70113318  1  0  -0.171766  0  3.628717  0  0  -0.203209  0  3.880722  0  0  -0.205795  0  3.900168  0  0  -0.107404  -0.201464  0  3.86761  0
C  C100  1  0.75694032  0.04311450  0.29897413  1  0  -0.172885  0  3.625431  0  0  -0.204564  0  3.878894  0  0  -0.207145  0  3.898253  0  0  -0.107398  -0.202787  0  3.865759  0
C  C101  1  0.34165683  0.02772344  0.78127993  1  0  -0.161608  0  3.635547  0  0  -0.16839  0  3.865648  0  0  -0.17505  0  3.880158  0  0  -0.087578  -0.163839  0  3.855819  0
C  C102  1  0.14992673  0.97212370  0.21877515  1  0  -0.160036  0  3.635446  0  0  -0.167773  0  3.867783  0  0  -0.174473  0  3.882271  0  0  -0.086304  -0.163168  0  3.857926  0
C  C103  1  0.23032963  0.92381498  0.82973938  1  0  -0.174093  0  3.550328  0  0  -0.182993  0  3.778031  0  0  -0.189101  0  3.791115  0  0  -0.078985  -0.178786  0  3.76899  0
C  C104  1  0.98320563  0.07606637  0.17034004  1  0  -0.17445  0  3.550679  0  0  -0.18329  0  3.77963  0  0  -0.189352  0  3.792724  0  0  -0.079826  -0.179129  0  3.770587  0
C  C105  1  0.50253330  0.03322947  0.82533074  1  0  0.70134  0  3.729483  0  0  0.642181  0  4.043836  0  0  0.676313  0  4.03549  0  0  0.243032  0.618815  0  4.049058  0
C  C106  1  0.36033995  0.96648900  0.17464084  1  0  0.699994  0  3.730257  0  0  0.640991  0  4.044906  0  0  0.675124  0  4.03659  0  0  0.24152  0.617636  0  4.050096  0
C  C107  1  0.14429000  0.15692729  0.58973576  1  0  0.084673  0  3.70167  0  0  0.090813  0  3.933883  0  0  0.090746  0  3.95251  0  0  -0.085006  0.09086  0  3.921158  0
C  C108  1  0.89038748  0.84322832  0.41030910  1  0  0.084686  0  3.69823  0  0  0.087977  0  3.934306  0  0  0.088035  0  3.952711  0  0  -0.085565  0.08802  0  3.921602  0
C  C109  1  0.92394702  0.18312980  0.57555321  1  0  -0.319115  0  3.690938  0  0  -0.400832  0  3.932622  0  0  -0.403394  0  3.943358  0  0  -0.247871  -0.398767  0  3.925244  0
C  C110  1  0.68218941  0.81688332  0.42448735  1  0  -0.31981  0  3.690578  0  0  -0.399742  0  3.93225  0  0  -0.40238  0  3.943065  0  0  -0.246461  -0.397624  0  3.924769  0
C  C111  1  0.28876507  0.13898437  0.51336628  1  0  -0.316612  0  3.682123  0  0  -0.397026  0  3.922136  0  0  -0.39951  0  3.932482  0  0  -0.244125  -0.395007  0  3.915043  0
C  C112  1  0.94097817  0.86084080  0.48674563  1  0  -0.315109  0  3.679888  0  0  -0.394774  0  3.920284  0  0  -0.397304  0  3.930583  0  0  -0.243236  -0.392676  0  3.913148  0
C  C113  1  0.18972477  0.50324592  0.63166831  1  0  -0.309359  0  3.671887  0  0  -0.39578  0  3.912886  0  0  -0.397666  0  3.922953  0  0  -0.247449  -0.394142  0  3.905924  0
C  C114  1  0.32550161  0.49689251  0.36829265  1  0  -0.311823  0  3.672654  0  0  -0.398437  0  3.9137  0  0  -0.400378  0  3.923861  0  0  -0.249651  -0.396798  0  3.906792  0
C  C115  1  0.33131277  0.75939516  0.60737989  1  0  -0.338098  0  3.69049  0  0  -0.425031  0  3.925426  0  0  -0.42833  0  3.938642  0  0  -0.253008  -0.422516  0  3.91633  0
C  C116  1  0.69857456  0.24084422  0.39277598  1  0  -0.336633  0  3.690133  0  0  -0.423389  0  3.925135  0  0  -0.426713  0  3.938364  0  0  -0.252135  -0.420837  0  3.916023  0
C  C117  1  0.03125530  0.98408111  0.87590197  1  0  0.701146  0  3.788664  0  0  0.649062  0  4.090829  0  0  0.683321  0  4.083181  0  0  0.217199  0.625738  0  4.095198  0
C  C118  1  0.89035890  0.01568074  0.12431088  1  0  0.69966  0  3.791182  0  0  0.648395  0  4.09199  0  0  0.682633  0  4.084387  0  0  0.21686  0.625085  0  4.096335  0
O  O119  1  0.04313103  0.34089080  0.75821117  1  0  -0.535436  0  2.07951  0  0  -0.475327  0  2.293473  0  0  -0.49765  0  2.279029  0  0  -0.319843  -0.459729  0  2.303193  0
O  O120  1  0.14293726  0.65869247  0.24183137  1  0  -0.53548  0  2.079132  0  0  -0.475424  0  2.293229  0  0  -0.497829  0  2.278639  0  0  -0.319558  -0.459777  0  2.303043  0
O  O121  1  0.25651328  0.32496778  0.84353026  1  0  -0.560126  0  1.979155  0  0  -0.517641  0  2.1959  0  0  -0.538544  0  2.185848  0  0  -0.284968  -0.503277  0  2.202641  0
O  O122  1  0.42542791  0.67442578  0.15626408  1  0  -0.560033  0  1.979402  0  0  -0.517279  0  2.196753  0  0  -0.538182  0  2.18669  0  0  -0.285273  -0.502925  0  2.20348  0
O  O123  1  0.64434635  0.08657487  0.77879100  1  0  -0.55201  0  2.138635  0  0  -0.499776  0  2.37638  0  0  -0.523507  0  2.36466  0  0  -0.31935  -0.4833  0  2.383955  0
O  O124  1  0.50889324  0.91349034  0.22118005  1  0  -0.552324  0  2.139202  0  0  -0.49944  0  2.376031  0  0  -0.523252  0  2.36444  0  0  -0.320043  -0.482966  0  2.383581  0
O  O125  1  0.49110059  0.99580999  0.89964130  1  0  -0.577909  0  2.023034  0  0  -0.516417  0  2.267864  0  0  -0.542667  0  2.255689  0  0  -0.288989  -0.498242  0  2.275836  0
O  O126  1  0.38589865  0.00347617  0.10032627  1  0  -0.576955  0  2.020745  0  0  -0.51579  0  2.265368  0  0  -0.542014  0  2.253252  0  0  -0.287922  -0.497623  0  2.27329  0
O  O127  1  0.97104612  0.90892044  0.93973847  1  0  -0.631496  0  1.997709  0  0  -0.570796  0  2.245708  0  0  -0.600786  0  2.234766  0  0  -0.319623  -0.549835  0  2.252532  0
O  O128  1  0.81869325  0.09077109  0.06048992  1  0  -0.631243  0  1.999572  0  0  -0.570679  0  2.247212  0  0  -0.600711  0  2.236306  0  0  -0.319368  -0.549676  0  2.254007  0
O  O129  1  0.92799676  0.10361947  0.84706716  1  0  -0.697255  0  1.957286  0  0  -0.638615  0  2.18543  0  0  -0.663768  0  2.172058  0  0  -0.340339  -0.620814  0  2.194084  0
O  O130  1  0.87791916  0.89611868  0.15317326  1  0  -0.696981  0  1.958708  0  0  -0.638735  0  2.186266  0  0  -0.663869  0  2.172931  0  0  -0.340825  -0.620946  0  2.194887  0
O  O131  1  0.49133043  0.23103628  0.96700225  1  0  -0.823515  0  1.822953  0  0  -0.771024  0  1.997284  0  0  -0.79094  0  1.967122  0  0  -0.5796  -0.75693  0  2.018179  0
O  O132  1  0.68972490  0.76863899  0.03280710  1  0  -0.823266  0  1.8232  0  0  -0.770557  0  1.99767  0  0  -0.790519  0  1.967674  0  0  -0.580154  -0.756436  0  2.018567  0
