# generated using pymatgen
data_ZnH12C14(NO)4
_symmetry_space_group_name_H-M   'P 1'
_cell_length_a   8.30786224
_cell_length_b   9.86026541
_cell_length_c   9.97839309
_cell_angle_alpha   90.00024679
_cell_angle_beta   89.99966006
_cell_angle_gamma   103.96469394
_symmetry_Int_Tables_number   1
_chemical_formula_structural   ZnH12C14(NO)4
_chemical_formula_sum   'Zn2 H24 C28 N8 O8'
_cell_volume   793.24849191
_cell_formula_units_Z   2
loop_
 _symmetry_equiv_pos_site_id
 _symmetry_equiv_pos_as_xyz
  1  'x, y, z'
loop_
 _atom_site_type_symbol
 _atom_site_label
 _atom_site_symmetry_multiplicity
 _atom_site_fract_x
 _atom_site_fract_y
 _atom_site_fract_z
 _atom_site_occupancy
 _atom_site_hle17_bader_spin_density
 _atom_site_hle17_ddec_charge
 _atom_site_hle17_ddec_spin_density
 _atom_site_hle17_ddec_sum_bond_order
 _atom_site_hle17_magmom
 _atom_site_hse06_10hf_bader_spin_density
 _atom_site_hse06_10hf_ddec_charge
 _atom_site_hse06_10hf_ddec_spin_density
 _atom_site_hse06_10hf_ddec_sum_bond_order
 _atom_site_hse06_10hf_magmom
 _atom_site_hse06_bader_spin_density
 _atom_site_hse06_ddec_charge
 _atom_site_hse06_ddec_spin_density
 _atom_site_hse06_ddec_sum_bond_order
 _atom_site_hse06_magmom
 _atom_site_pbe_bader_spin_density
 _atom_site_pbe_cm5_charge
 _atom_site_pbe_ddec_charge
 _atom_site_pbe_ddec_spin_density
 _atom_site_pbe_ddec_sum_bond_order
 _atom_site_pbe_magmom
Zn  Zn0  1  0.59736142  0.34089181  0.10261397  1  0  1.007774  0  1.892199  0  0  0.813853  0  2.375113  0  0  0.859081  0  2.321089  0  0  0.70872  0.782254  0  2.412658  0
Zn  Zn1  1  0.09736303  0.84089097  0.89738552  1  0  1.007796  0  1.892155  0  0  0.813872  0  2.375066  0  0  0.859101  0  2.321046  0  0  0.708732  0.782277  0  2.412598  0
H  H2  1  0.90666884  0.64983518  0.47880970  1  0  0.302792  0  0.957067  0  0  0.281503  0  1.020977  0  0  0.290799  0  1.013881  0  0  0.301638  0.274932  0  1.025976  0
H  H3  1  0.40666539  0.14983526  0.52119044  1  0  0.302775  0  0.95708  0  0  0.281483  0  1.020991  0  0  0.290779  0  1.013895  0  0  0.301641  0.274916  0  1.025985  0
H  H4  1  0.72475238  0.40681936  0.41544572  1  0  0.094217  0  0.945266  0  0  0.103243  0  1.007559  0  0  0.105632  0  1.005178  0  0  0.133196  0.101472  0  1.009272  0
H  H5  1  0.22475413  0.90681965  0.58455742  1  0  0.094238  0  0.945218  0  0  0.103256  0  1.007522  0  0  0.105648  0  1.005142  0  0  0.133215  0.101488  0  1.00923  0
H  H6  1  0.12593673  0.53521081  0.93459520  1  0  0.311228  0  0.933009  0  0  0.289428  0  0.995066  0  0  0.298225  0  0.988464  0  0  0.310437  0.283176  0  0.999889  0
H  H7  1  0.62593656  0.03521153  0.06540585  1  0  0.311213  0  0.932998  0  0  0.28942  0  0.995048  0  0  0.298217  0  0.988446  0  0  0.31044  0.283167  0  0.999872  0
H  H8  1  0.97755650  0.35964250  0.11207852  1  0  0.112779  0  0.971329  0  0  0.121113  0  1.032989  0  0  0.124043  0  1.031706  0  0  0.119199  0.118958  0  1.033991  0
H  H9  1  0.47755758  0.85964373  0.88792418  1  0  0.112779  0  0.971277  0  0  0.121125  0  1.032925  0  0  0.124052  0  1.031645  0  0  0.119207  0.118967  0  1.033931  0
H  H10  1  0.27620342  0.63399025  0.23348315  1  0  0.098954  0  0.964354  0  0  0.105585  0  1.031202  0  0  0.108575  0  1.030528  0  0  0.101129  0.103378  0  1.031811  0
H  H11  1  0.77620459  0.13399207  0.76651757  1  0  0.098955  0  0.964306  0  0  0.105592  0  1.031154  0  0  0.108582  0  1.030479  0  0  0.101123  0.103386  0  1.03176  0
H  H12  1  0.22478024  0.23803038  0.21267147  1  0  0.116878  0  0.968591  0  0  0.123892  0  1.031166  0  0  0.126943  0  1.02917  0  0  0.116671  0.121594  0  1.032827  0
H  H13  1  0.72478057  0.73803125  0.78732795  1  0  0.11688  0  0.968563  0  0  0.123895  0  1.031137  0  0  0.126947  0  1.02914  0  0  0.116663  0.121599  0  1.032798  0
H  H14  1  0.43357943  0.53469279  0.91747845  1  0  0.09958  0  0.942329  0  0  0.109732  0  1.002649  0  0  0.112593  0  0.999152  0  0  0.13775  0.107665  0  1.005043  0
H  H15  1  0.93358005  0.03469252  0.08252307  1  0  0.099571  0  0.942341  0  0  0.109726  0  1.002661  0  0  0.112588  0  0.999163  0  0  0.137752  0.107656  0  1.005057  0
H  H16  1  0.65552511  0.01191704  0.48985784  1  0  0.090291  0  0.966591  0  0  0.099819  0  1.030474  0  0  0.102508  0  1.030002  0  0  0.099551  0.097786  0  1.03107  0
H  H17  1  0.15553183  0.51191186  0.51014096  1  0  0.090274  0  0.966621  0  0  0.099815  0  1.030484  0  0  0.102505  0  1.030011  0  0  0.099557  0.097782  0  1.031073  0
H  H18  1  0.44677898  0.57321607  0.41955965  1  0  0.089454  0  0.941336  0  0  0.10273  0  0.995547  0  0  0.105854  0  0.993972  0  0  0.101665  0.100699  0  0.996493  0
H  H19  1  0.94678070  0.07321105  0.58044297  1  0  0.089417  0  0.941341  0  0  0.102729  0  0.995525  0  0  0.105852  0  0.993949  0  0  0.101667  0.100703  0  0.99647  0
H  H20  1  0.96413006  0.80936035  0.27142480  1  0  0.111232  0  0.960853  0  0  0.122594  0  1.017204  0  0  0.125117  0  1.016276  0  0  0.121593  0.120726  0  1.01805  0
H  H21  1  0.46412413  0.30936526  0.72857273  1  0  0.111174  0  0.960808  0  0  0.12255  0  1.01716  0  0  0.125075  0  1.01623  0  0  0.121568  0.120683  0  1.018003  0
H  H22  1  0.80432347  0.64513654  0.05986073  1  0  0.107392  0  0.980789  0  0  0.11293  0  1.048246  0  0  0.115505  0  1.047439  0  0  0.11451  0.110934  0  1.049246  0
H  H23  1  0.30431982  0.14514209  0.94013991  1  0  0.107398  0  0.980819  0  0  0.112921  0  1.048269  0  0  0.115498  0  1.047461  0  0  0.114487  0.110924  0  1.049279  0
H  H24  1  0.63605174  0.76361120  0.54908646  1  0  0.091969  0  0.948641  0  0  0.104641  0  1.005293  0  0  0.107598  0  1.003779  0  0  0.102353  0.102463  0  1.006451  0
H  H25  1  0.13605804  0.26360583  0.45091351  1  0  0.091888  0  0.948703  0  0  0.104557  0  1.005372  0  0  0.107514  0  1.003859  0  0  0.102316  0.102384  0  1.006525  0
C  C26  1  0.76861633  0.49305480  0.34682253  1  0  0.209409  0  3.691154  0  0  0.149148  0  3.961001  0  0  0.162829  0  3.974166  0  0  0.139313  0.140361  0  3.951636  0
C  C27  1  0.26861736  0.99305844  0.65317977  1  0  0.209444  0  3.691089  0  0  0.149194  0  3.960939  0  0  0.162865  0  3.974107  0  0  0.139322  0.140403  0  3.951573  0
C  C28  1  0.47682640  0.96262471  0.32965916  1  0  -0.0806  0  3.742566  0  0  -0.065282  0  3.977099  0  0  -0.070092  0  3.99831  0  0  -0.014606  -0.062156  0  3.963008  0
C  C29  1  0.97682907  0.46262100  0.67033696  1  0  -0.080538  0  3.742448  0  0  -0.065364  0  3.977193  0  0  -0.070177  0  3.998406  0  0  -0.014635  -0.062234  0  3.963104  0
C  C30  1  0.50330018  0.11377538  0.29133749  1  0  0.674732  0  3.873137  0  0  0.616272  0  4.17838  0  0  0.65104  0  4.168292  0  0  0.221004  0.592456  0  4.184913  0
C  C31  1  0.00330447  0.61377501  0.70866050  1  0  0.674643  0  3.87311  0  0  0.616114  0  4.17852  0  0  0.650888  0  4.168428  0  0  0.220932  0.592301  0  4.185045  0
C  C32  1  0.36889546  0.85559285  0.25711045  1  0  -0.067483  0  3.723576  0  0  -0.054335  0  3.957525  0  0  -0.059918  0  3.978736  0  0  -0.015594  -0.050813  0  3.943297  0
C  C33  1  0.86889648  0.35559355  0.74288776  1  0  -0.067489  0  3.723589  0  0  -0.054237  0  3.957473  0  0  -0.059817  0  3.978685  0  0  -0.015537  -0.05072  0  3.943254  0
C  C34  1  0.10849318  0.37815100  0.08984967  1  0  -0.007893  0  3.687241  0  0  -0.043972  0  3.943711  0  0  -0.042895  0  3.963689  0  0  0.001831  -0.044728  0  3.930315  0
C  C35  1  0.60849395  0.87815225  0.91015292  1  0  -0.007849  0  3.687167  0  0  -0.04393  0  3.943632  0  0  -0.042852  0  3.963609  0  0  0.001837  -0.044686  0  3.930241  0
C  C36  1  0.25889506  0.88912902  0.14834378  1  0  0.639262  0  3.943502  0  0  0.589189  0  4.243831  0  0  0.623094  0  4.23555  0  0  0.20017  0.566137  0  4.248697  0
C  C37  1  0.75889721  0.38913215  0.85165211  1  0  0.639333  0  3.943358  0  0  0.589282  0  4.243631  0  0  0.623184  0  4.235351  0  0  0.200189  0.566236  0  4.24849  0
C  C38  1  0.35942528  0.71591627  0.29077291  1  0  -0.069537  0  3.723708  0  0  -0.091681  0  3.973282  0  0  -0.091717  0  3.992862  0  0  -0.085815  -0.091437  0  3.960052  0
C  C39  1  0.85942651  0.21591687  0.70922575  1  0  -0.069649  0  3.723816  0  0  -0.091824  0  3.973397  0  0  -0.091859  0  3.992977  0  0  -0.085865  -0.091577  0  3.960168  0
C  C40  1  0.23094705  0.32002926  0.13921491  1  0  -0.019001  0  3.740465  0  0  -0.050542  0  4.001101  0  0  -0.050013  0  4.022243  0  0  -0.00743  -0.051036  0  3.987124  0
C  C41  1  0.73094902  0.82002931  0.86078583  1  0  -0.019013  0  3.740398  0  0  -0.050553  0  4.00104  0  0  -0.050022  0  4.02218  0  0  -0.007412  -0.05105  0  3.987068  0
C  C42  1  0.34350213  0.47122553  0.98473687  1  0  0.220283  0  3.663537  0  0  0.159877  0  3.928581  0  0  0.174411  0  3.940089  0  0  0.147348  0.150558  0  3.920219  0
C  C43  1  0.84350155  0.97122508  0.01526496  1  0  0.220309  0  3.663486  0  0  0.159903  0  3.928529  0  0  0.17444  0  3.940034  0  0  0.147341  0.15059  0  3.920161  0
C  C44  1  0.57126352  0.92834827  0.43498944  1  0  -0.097959  0  3.768176  0  0  -0.119522  0  4.017275  0  0  -0.121591  0  4.038535  0  0  -0.093865  -0.11807  0  4.00301  0
C  C45  1  0.07126942  0.42834429  0.56500754  1  0  -0.097934  0  3.768227  0  0  -0.119464  0  4.017374  0  0  -0.121532  0  4.038634  0  0  -0.093856  -0.11801  0  4.003104  0
C  C46  1  0.45414044  0.68249359  0.39562616  1  0  -0.066381  0  3.771925  0  0  -0.081795  0  4.026457  0  0  -0.083632  0  4.046601  0  0  -0.090376  -0.080715  0  4.01275  0
C  C47  1  0.95414292  0.18249177  0.60437389  1  0  -0.066247  0  3.771862  0  0  -0.081686  0  4.026392  0  0  -0.083518  0  4.046532  0  0  -0.090355  -0.080611  0  4.012695  0
C  C48  1  0.89133802  0.70225372  0.26884318  1  0  -0.003962  0  3.688554  0  0  -0.040893  0  3.946741  0  0  -0.040011  0  3.967362  0  0  0.000992  -0.041331  0  3.932775  0
C  C49  1  0.39133297  0.20225759  0.73115426  1  0  -0.003887  0  3.688453  0  0  -0.040841  0  3.94665  0  0  -0.039964  0  3.967273  0  0  0.000946  -0.041274  0  3.93268  0
C  C50  1  0.81285274  0.62098550  0.16511207  1  0  -0.009092  0  3.72891  0  0  -0.042024  0  3.992628  0  0  -0.040718  0  4.013547  0  0  -0.009192  -0.042817  0  3.978448  0
C  C51  1  0.31284674  0.12098865  0.83488842  1  0  -0.009211  0  3.728884  0  0  -0.042109  0  3.992622  0  0  -0.040806  0  4.01354  0  0  -0.009146  -0.042906  0  3.978445  0
C  C52  1  0.56017849  0.78881915  0.46802355  1  0  -0.06267  0  3.773954  0  0  -0.078902  0  4.027501  0  0  -0.079593  0  4.047689  0  0  -0.091678  -0.07826  0  4.013693  0
C  C53  1  0.06018249  0.28881611  0.53197490  1  0  -0.062622  0  3.774042  0  0  -0.078855  0  4.027603  0  0  -0.079545  0  4.047791  0  0  -0.091634  -0.078215  0  4.013802  0
N  N54  1  0.86218513  0.61965357  0.38167988  1  0  -0.286752  0  3.47997  0  0  -0.217347  0  3.713941  0  0  -0.234587  0  3.731235  0  0  -0.37558  -0.205796  0  3.702197  0
N  N55  1  0.36218318  0.11965709  0.61832036  1  0  -0.286734  0  3.480019  0  0  -0.217322  0  3.713987  0  0  -0.23456  0  3.731282  0  0  -0.375562  -0.205775  0  3.70224  0
N  N56  1  0.37717706  0.37905583  0.07222293  1  0  -0.409538  0  3.346339  0  0  -0.322616  0  3.648529  0  0  -0.343487  0  3.660529  0  0  -0.370122  -0.308316  0  3.640153  0
N  N57  1  0.87717591  0.87905504  0.92777734  1  0  -0.409563  0  3.346321  0  0  -0.322648  0  3.64852  0  0  -0.343522  0  3.660522  0  0  -0.370138  -0.308354  0  3.640144  0
N  N58  1  0.73666345  0.49039621  0.21527837  1  0  -0.415062  0  3.351678  0  0  -0.329986  0  3.65574  0  0  -0.3504  0  3.667306  0  0  -0.369649  -0.315968  0  3.647366  0
N  N59  1  0.23666397  0.99040130  0.78472507  1  0  -0.415025  0  3.351762  0  0  -0.329967  0  3.655829  0  0  -0.350374  0  3.667392  0  0  -0.369644  -0.315945  0  3.647447  0
N  N60  1  0.18224083  0.47238211  0.99310735  1  0  -0.268031  0  3.464072  0  0  -0.20041  0  3.700184  0  0  -0.21655  0  3.715595  0  0  -0.373089  -0.18966  0  3.689716  0
N  N61  1  0.68224060  0.97238268  0.00689528  1  0  -0.26806  0  3.46407  0  0  -0.200448  0  3.700179  0  0  -0.216589  0  3.71559  0  0  -0.373105  -0.189699  0  3.689708  0
O  O62  1  0.56001484  0.14511331  0.17173499  1  0  -0.635287  0  2.113003  0  0  -0.549569  0  2.372725  0  0  -0.578393  0  2.357874  0  0  -0.312123  -0.529687  0  2.383031  0
O  O63  1  0.06002049  0.64511226  0.82826285  1  0  -0.635306  0  2.113001  0  0  -0.549535  0  2.372746  0  0  -0.578358  0  2.357887  0  0  -0.312127  -0.529657  0  2.383049  0
O  O64  1  0.48031804  0.20348344  0.37385403  1  0  -0.59656  0  1.948432  0  0  -0.549582  0  2.170762  0  0  -0.572333  0  2.160249  0  0  -0.304799  -0.53338  0  2.177256  0
O  O65  1  0.98032027  0.70348276  0.62614398  1  0  -0.596503  0  1.948427  0  0  -0.549493  0  2.170809  0  0  -0.572247  0  2.160295  0  0  -0.30475  -0.533293  0  2.177299  0
O  O66  1  0.19653431  0.99219668  0.16055053  1  0  -0.630087  0  1.910952  0  0  -0.587457  0  2.137377  0  0  -0.610261  0  2.12813  0  0  -0.328319  -0.571385  0  2.143356  0
O  O67  1  0.69653774  0.49219977  0.83944611  1  0  -0.630089  0  1.910929  0  0  -0.587474  0  2.137348  0  0  -0.610277  0  2.128103  0  0  -0.328296  -0.571406  0  2.143327  0
O  O68  1  0.23428275  0.80290383  0.04822533  1  0  -0.652338  0  2.059234  0  0  -0.579638  0  2.338373  0  0  -0.607661  0  2.323814  0  0  -0.336844  -0.560004  0  2.347603  0
O  O69  1  0.73428187  0.30290728  0.95177332  1  0  -0.652362  0  2.059133  0  0  -0.579677  0  2.33826  0  0  -0.607712  0  2.323736  0  0  -0.336868  -0.56004  0  2.347488  0
