# generated using pymatgen
data_CuH8(C2O)5
_symmetry_space_group_name_H-M   'P 1'
_cell_length_a   8.68081175
_cell_length_b   21.90792824
_cell_length_c   21.90787169
_cell_angle_alpha   120.00001241
_cell_angle_beta   89.99999440
_cell_angle_gamma   89.99993542
_symmetry_Int_Tables_number   1
_chemical_formula_structural   CuH8(C2O)5
_chemical_formula_sum   'Cu12 H96 C120 O60'
_cell_volume   3608.21505436
_cell_formula_units_Z   12
loop_
 _symmetry_equiv_pos_site_id
 _symmetry_equiv_pos_as_xyz
  1  'x, y, z'
loop_
 _atom_site_type_symbol
 _atom_site_label
 _atom_site_symmetry_multiplicity
 _atom_site_fract_x
 _atom_site_fract_y
 _atom_site_fract_z
 _atom_site_occupancy
 _atom_site_pbe_bader_charge
 _atom_site_pbe_bader_spin_density
 _atom_site_pbe_cm5_charge
 _atom_site_pbe_ddec_charge
 _atom_site_pbe_ddec_spin_density
 _atom_site_pbe_ddec_sum_bond_order
 _atom_site_pbe_magmom
Cu  Cu0  1  0.60554682  0.94667146  0.41617798  1  1.14866  0.602797  0.718902  0.936937  0.751605  2.137768  0.601
Cu  Cu1  1  0.60554754  0.46950318  0.05333160  1  1.149906  0.602818  0.71882  0.936919  0.751622  2.137912  0.601
Cu  Cu2  1  0.60554272  0.58382662  0.53049447  1  1.147851  0.602805  0.718828  0.936965  0.751636  2.138029  0.601
Cu  Cu3  1  0.89446001  0.05333256  0.46950788  1  1.149872  0.602847  0.718826  0.936937  0.751655  2.138175  0.601
Cu  Cu4  1  0.89445023  0.41617116  0.94666718  1  1.148623  0.602806  0.718832  0.936906  0.751629  2.13796  0.601
Cu  Cu5  1  0.89445125  0.53049645  0.58382387  1  1.147373  0.602776  0.718843  0.936873  0.751615  2.137899  0.601
Cu  Cu6  1  0.39445722  0.05333174  0.58382602  1  1.149414  0.602811  0.718849  0.936831  0.751612  2.138041  0.601
Cu  Cu7  1  0.39445189  0.53049552  0.94666685  1  1.14999  0.602823  0.718857  0.936934  0.751627  2.137932  0.601
Cu  Cu8  1  0.39445210  0.41617503  0.46950377  1  1.14728  0.602797  0.718805  0.936902  0.751646  2.13815  0.601
Cu  Cu9  1  0.10554633  0.94667188  0.53049578  1  1.149362  0.602828  0.718784  0.936887  0.751655  2.138222  0.601
Cu  Cu10  1  0.10554690  0.58382995  0.05333525  1  1.148445  0.602812  0.718858  0.936962  0.751631  2.137889  0.601
Cu  Cu11  1  0.10554472  0.46950449  0.41617417  1  1.14797  0.602788  0.718836  0.936839  0.751613  2.137975  0.601
H  H12  1  0.11179262  0.74888811  0.07706071  1  0.08586  -9.9e-05  0.106761  0.128985  -0.000121  1.008047  0.0
H  H13  1  0.11179435  0.32817185  0.25111310  1  0.072103  -0.000101  0.106768  0.129008  -0.000121  1.008054  0.0
H  H14  1  0.11180038  0.92294092  0.67182860  1  0.075332  -0.0001  0.106769  0.12901  -0.000121  1.008142  0.0
H  H15  1  0.38820524  0.25111126  0.32817213  1  0.071934  -0.000101  0.106761  0.128993  -0.000121  1.008073  0.0
H  H16  1  0.38820545  0.07705956  0.74888529  1  0.085571  -9.9e-05  0.106767  0.128993  -0.000121  1.008137  0.0
H  H17  1  0.38820458  0.67182707  0.92293904  1  0.075424  -0.0001  0.106764  0.128996  -0.000121  1.008098  0.0
H  H18  1  0.88820335  0.25111059  0.92293773  1  0.085876  -9.9e-05  0.106767  0.128972  -0.000121  1.008106  0.0
H  H19  1  0.88820392  0.67182495  0.74888450  1  0.071719  -0.000101  0.106765  0.12899  -0.000121  1.00811  0.0
H  H20  1  0.88820827  0.07706109  0.32817475  1  0.075385  -0.0001  0.106772  0.129001  -0.000121  1.008057  0.0
H  H21  1  0.61179188  0.74888797  0.67182579  1  0.071905  -0.000101  0.106809  0.129074  -0.000121  1.007979  0.0
H  H22  1  0.61180089  0.92294103  0.25111400  1  0.085536  -9.9e-05  0.106736  0.128953  -0.000121  1.008141  0.0
H  H23  1  0.61179485  0.32817136  0.07705966  1  0.075392  -0.0001  0.106761  0.129024  -0.000121  1.00807  0.0
H  H24  1  0.72006644  0.69810991  0.16453898  1  0.082475  0.000157  0.111235  0.102179  0.000101  1.011295  0.0
H  H25  1  0.72006791  0.46642917  0.30189121  1  0.089183  0.00015  0.111265  0.102212  0.000102  1.011275  0.0
H  H26  1  0.72007427  0.83546248  0.53357156  1  0.082947  0.000155  0.111282  0.102187  0.000101  1.011248  0.0
H  H27  1  0.77993350  0.30189047  0.46642890  1  0.088012  0.00015  0.111228  0.10218  0.000101  1.011318  0.0
H  H28  1  0.77993713  0.16453808  0.69810806  1  0.082599  0.000159  0.11127  0.10225  0.000102  1.011252  0.0
H  H29  1  0.77993083  0.53356969  0.83545948  1  0.085431  0.000155  0.111241  0.102135  0.000101  1.011306  0.0
H  H30  1  0.27993183  0.30189114  0.83546077  1  0.082498  0.000157  0.111259  0.102196  0.000101  1.011285  0.0
H  H31  1  0.27993037  0.53356783  0.69810711  1  0.089208  0.00015  0.111239  0.102095  0.000102  1.011356  0.0
H  H32  1  0.27993667  0.16453824  0.46642943  1  0.082713  0.000155  0.111233  0.102159  0.000101  1.011274  0.0
H  H33  1  0.22006248  0.69811031  0.53357111  1  0.087888  0.00015  0.111232  0.102186  0.000101  1.01127  0.0
H  H34  1  0.22007497  0.83546211  0.30189346  1  0.08239  0.000159  0.111269  0.10214  0.000102  1.011333  0.0
H  H35  1  0.22006975  0.46642874  0.16453923  1  0.085614  0.000155  0.111252  0.102195  0.000101  1.011273  0.0
H  H36  1  0.85707556  0.66915154  0.20585282  1  0.073889  0.000374  0.115437  0.104751  9.4e-05  0.945103  0.0
H  H37  1  0.85708034  0.53670049  0.33085244  1  0.072815  0.000373  0.115422  0.104738  9.4e-05  0.945105  0.0
H  H38  1  0.85708457  0.79415154  0.46330066  1  0.093434  0.000365  0.115425  0.104717  9.4e-05  0.945074  0.0
H  H39  1  0.64292092  0.33084845  0.53669925  1  0.072941  0.000374  0.115403  0.104716  9.4e-05  0.945071  0.0
H  H40  1  0.64292684  0.20585055  0.66914992  1  0.073919  0.000373  0.11542  0.10473  9.3e-05  0.945041  0.0
H  H41  1  0.64291955  0.46329774  0.79414624  1  0.093255  0.000364  0.115412  0.104727  9.4e-05  0.94513  0.0
H  H42  1  0.14292042  0.33084846  0.79414798  1  0.073958  0.000374  0.115424  0.10471  9.4e-05  0.945092  0.0
H  H43  1  0.14292024  0.46329755  0.66914850  1  0.072729  0.000373  0.115389  0.104658  9.4e-05  0.945038  0.0
H  H44  1  0.14292868  0.20585395  0.53670194  1  0.093328  0.000364  0.115395  0.104711  9.4e-05  0.94512  0.0
H  H45  1  0.35707275  0.66915025  0.46329920  1  0.072763  0.000374  0.115398  0.104678  9.4e-05  0.945096  0.0
H  H46  1  0.35708411  0.79415185  0.33085486  1  0.076074  0.000374  0.1154  0.10468  9.4e-05  0.945079  0.0
H  H47  1  0.35708103  0.53670012  0.20585031  1  0.093362  0.000364  0.115403  0.104722  9.4e-05  0.945069  0.0
H  H48  1  0.09390688  0.95987012  0.25759684  1  0.10716  0.000284  0.103488  0.118829  0.000182  1.002317  0.0
H  H49  1  0.09390669  0.29772635  0.04013103  1  0.059675  0.000283  0.103491  0.118826  0.000182  1.002332  0.0
H  H50  1  0.09390484  0.74240522  0.70227376  1  0.061148  0.000289  0.10351  0.118851  0.000182  1.002295  0.0
H  H51  1  0.40609558  0.04013019  0.29772563  1  0.05935  0.000283  0.103526  0.118852  0.000182  1.002255  0.0
H  H52  1  0.40609635  0.25759542  0.95986770  1  0.107257  0.000284  0.103517  0.118861  0.000182  1.002302  0.0
H  H53  1  0.40608883  0.70227371  0.74240350  1  0.061172  0.000289  0.103499  0.118821  0.000182  1.002271  0.0
H  H54  1  0.90609255  0.04012851  0.74240259  1  0.107339  0.000284  0.103496  0.118831  0.000182  1.002268  0.0
H  H55  1  0.90609504  0.70227424  0.95986826  1  0.059731  0.000283  0.103505  0.118847  0.000182  1.002358  0.0
H  H56  1  0.90609229  0.25759576  0.29772697  1  0.061254  0.000289  0.103513  0.118873  0.000182  1.002257  0.0
H  H57  1  0.59390731  0.95986956  0.70227176  1  0.059347  0.000283  0.103507  0.118849  0.000182  1.002294  0.0
H  H58  1  0.59390423  0.74240616  0.04013152  1  0.107086  0.000284  0.103501  0.118853  0.000182  1.002359  0.0
H  H59  1  0.59390599  0.29772545  0.25759540  1  0.061217  0.000289  0.10354  0.118875  0.000182  1.002237  0.0
H  H60  1  0.21934118  0.84523321  0.06723021  1  0.035731  0.00012  0.087811  0.121338  6.2e-05  1.012264  0.0
H  H61  1  0.21934321  0.22199487  0.15476582  1  0.033349  0.000121  0.087824  0.121353  6.2e-05  1.012272  0.0
H  H62  1  0.21934329  0.93277002  0.77800627  1  0.027414  0.000122  0.087845  0.121378  6.2e-05  1.012248  0.0
H  H63  1  0.28065899  0.15476490  0.22199519  1  0.033489  0.000121  0.087847  0.121385  6.2e-05  1.01225  0.0
H  H64  1  0.28065791  0.06722970  0.84523223  1  0.035721  0.00012  0.087802  0.121319  6.2e-05  1.012284  0.0
H  H65  1  0.28065573  0.77800431  0.93277001  1  0.027429  0.000122  0.087816  0.121352  6.2e-05  1.012254  0.0
H  H66  1  0.78065364  0.15476496  0.93276876  1  0.03578  0.00012  0.087813  0.121334  6.2e-05  1.012268  0.0
H  H67  1  0.78065737  0.77800383  0.84523263  1  0.033342  0.000121  0.087799  0.121318  6.2e-05  1.012297  0.0
H  H68  1  0.78065729  0.06723049  0.22199767  1  0.027432  0.000122  0.08781  0.121348  6.2e-05  1.012265  0.0
H  H69  1  0.71934159  0.84523270  0.77800162  1  0.033468  0.000121  0.087808  0.121322  6.2e-05  1.012249  0.0
H  H70  1  0.71934152  0.93277103  0.15476509  1  0.035717  0.00012  0.087819  0.121347  6.2e-05  1.012302  0.0
H  H71  1  0.71934254  0.22199458  0.06722915  1  0.027396  0.000122  0.087823  0.121361  6.2e-05  1.012255  0.0
H  H72  1  0.33410111  0.89237429  0.14380619  1  0.048964  1.3e-05  0.089115  0.128862  -3e-06  1.030881  0.0
H  H73  1  0.33409972  0.25143072  0.10762467  1  0.050177  1.3e-05  0.089124  0.128869  -3e-06  1.030883  0.0
H  H74  1  0.33410110  0.85619331  0.74857013  1  0.049161  1.3e-05  0.089125  0.12887  -3e-06  1.030872  0.0
H  H75  1  0.16590136  0.10762501  0.25143122  1  0.049571  1.3e-05  0.089123  0.128874  -3e-06  1.03087  0.0
H  H76  1  0.16590124  0.14380752  0.89237326  1  0.049355  1.3e-05  0.089127  0.128883  -3e-06  1.030831  0.0
H  H77  1  0.16589808  0.74856865  0.85619360  1  0.04766  1.3e-05  0.089111  0.128843  -3e-06  1.030899  0.0
H  H78  1  0.66589717  0.10762467  0.85619199  1  0.048899  1.3e-05  0.08911  0.128839  -3e-06  1.03091  0.0
H  H79  1  0.66590086  0.74856752  0.89237332  1  0.05018  1.3e-05  0.089121  0.128884  -3e-06  1.030865  0.0
H  H80  1  0.66589948  0.14380674  0.25143336  1  0.048993  1.3e-05  0.089109  0.12887  -3e-06  1.030882  0.0
H  H81  1  0.83410153  0.89237297  0.74856704  1  0.04953  1.3e-05  0.089105  0.128866  -3e-06  1.030883  0.0
H  H82  1  0.83409934  0.85619485  0.10762517  1  0.049383  1.3e-05  0.089132  0.128883  -3e-06  1.030864  0.0
H  H83  1  0.83410135  0.25143024  0.14380556  1  0.047681  1.3e-05  0.089114  0.128868  -3e-06  1.030894  0.0
H  H84  1  0.17174642  0.93387116  0.13089622  1  0.026692  1e-05  0.089196  0.123002  0.0  1.001121  0.0
H  H85  1  0.17174632  0.19702414  0.06612805  1  0.025523  1e-05  0.08919  0.122997  0.0  1.001128  0.0
H  H86  1  0.17174414  0.86910253  0.80297564  1  0.025734  1e-05  0.089156  0.122951  0.0  1.001146  0.0
H  H87  1  0.32825375  0.06612789  0.19702398  1  0.025446  1e-05  0.089177  0.122975  0.0  1.001159  0.0
H  H88  1  0.32825474  0.13089732  0.93387047  1  0.026718  1e-05  0.089208  0.12302  0.0  1.00112  0.0
H  H89  1  0.32825033  0.80297555  0.86910380  1  0.026192  1e-05  0.089195  0.123005  0.0  1.001108  0.0
H  H90  1  0.82825070  0.06612754  0.86910223  1  0.026817  1e-05  0.08917  0.12297  0.0  1.001134  0.0
H  H91  1  0.82825310  0.80297410  0.93386994  1  0.025577  1e-05  0.089214  0.123039  0.0  1.001104  0.0
H  H92  1  0.82825183  0.13089641  0.19702622  1  0.026027  1e-05  0.089209  0.123038  0.0  1.001116  0.0
H  H93  1  0.67174798  0.93387061  0.80297375  1  0.02552  1e-05  0.089203  0.123009  0.0  1.001134  0.0
H  H94  1  0.67174469  0.86910361  0.06612757  1  0.026798  1e-05  0.089175  0.122974  0.0  1.00113  0.0
H  H95  1  0.67174795  0.19702426  0.13089628  1  0.026099  1e-05  0.089192  0.123005  0.0  1.00112  0.0
H  H96  1  0.84735739  0.79184659  0.26086797  1  0.091982  0.000486  0.107707  0.128379  0.000377  1.020093  0.0
H  H97  1  0.84735440  0.46902025  0.20815643  1  0.099038  0.000486  0.107705  0.12837  0.000377  1.020073  0.0
H  H98  1  0.84735859  0.73913735  0.53098002  1  0.099779  0.000486  0.1077  0.12836  0.000377  1.020075  0.0
H  H99  1  0.65264484  0.20815575  0.46902146  1  0.10113  0.000485  0.107686  0.128347  0.000377  1.020086  0.0
H  H100  1  0.65264358  0.26086494  0.79184241  1  0.091254  0.000487  0.107702  0.12838  0.000377  1.020063  0.0
H  H101  1  0.65264090  0.53097912  0.73913303  1  0.100271  0.000485  0.107705  0.128368  0.000377  1.020095  0.0
H  H102  1  0.15264665  0.20815334  0.73913382  1  0.092208  0.000486  0.107681  0.128311  0.000377  1.020151  0.0
H  H103  1  0.15264042  0.53097766  0.79184281  1  0.099057  0.000486  0.107708  0.128383  0.000377  1.020051  0.0
H  H104  1  0.15264545  0.26086750  0.46902141  1  0.099644  0.000485  0.107706  0.128368  0.000377  1.020152  0.0
H  H105  1  0.34734998  0.79184648  0.53097894  1  0.101295  0.000485  0.107683  0.128343  0.000377  1.020129  0.0
H  H106  1  0.34736160  0.73913676  0.20815851  1  0.091344  0.000487  0.107712  0.128373  0.000377  1.020009  0.0
H  H107  1  0.34735622  0.46901958  0.26086541  1  0.100302  0.000485  0.107699  0.128343  0.000377  1.020129  0.0
C  C108  1  0.07409447  0.78650701  0.13036161  1  -0.014518  -0.000901  -0.096074  -0.245202  -0.00106  3.908234  -0.001
C  C109  1  0.07409625  0.34385361  0.21349484  1  0.007189  -0.000897  -0.096052  -0.245262  -0.00106  3.908385  -0.001
C  C110  1  0.07410121  0.86964194  0.65614709  1  0.006986  -0.000898  -0.09607  -0.245318  -0.001059  3.908344  -0.001
C  C111  1  0.42590453  0.21349295  0.34385327  1  0.008245  -0.000897  -0.096022  -0.245155  -0.001059  3.90826  -0.001
C  C112  1  0.42590691  0.13035869  0.78650310  1  -0.012959  -0.000901  -0.096062  -0.24517  -0.001059  3.908263  -0.001
C  C113  1  0.42590270  0.65614512  0.86963845  1  0.006771  -0.000899  -0.096057  -0.245257  -0.001059  3.908321  -0.001
C  C114  1  0.92590265  0.21349215  0.86963730  1  -0.014294  -0.0009  -0.096103  -0.245238  -0.001059  3.90839  -0.001
C  C115  1  0.92590203  0.65614456  0.78650413  1  0.007739  -0.000898  -0.096002  -0.245087  -0.00106  3.908254  -0.001
C  C116  1  0.92590628  0.13036087  0.34385547  1  0.00666  -0.000898  -0.096063  -0.245173  -0.001059  3.908319  -0.001
C  C117  1  0.57409374  0.78650635  0.65614367  1  0.008421  -0.000897  -0.096064  -0.245227  -0.001059  3.908234  -0.001
C  C118  1  0.57410173  0.86964236  0.21349665  1  -0.012977  -0.000901  -0.095991  -0.245107  -0.00106  3.908208  -0.001
C  C119  1  0.57409788  0.34385286  0.13035981  1  0.006986  -0.000899  -0.096055  -0.245299  -0.00106  3.908368  -0.001
C  C120  1  0.89648393  0.92874426  0.33525740  1  1.555798  -0.000262  0.218078  0.589542  -0.000218  4.162035  -0.003
C  C121  1  0.89648931  0.40650918  0.07125607  1  1.556822  -0.000318  0.218121  0.589628  -0.000219  4.162056  -0.003
C  C122  1  0.89648889  0.66474683  0.59349022  1  1.557406  -0.000297  0.218019  0.589361  -0.000218  4.162095  -0.003
C  C123  1  0.60350678  0.07125225  0.40650849  1  1.557528  -0.000316  0.2181  0.589564  -0.000218  4.162042  -0.003
C  C124  1  0.60350751  0.33525279  0.92874203  1  1.556227  -0.000262  0.21814  0.589563  -0.000218  4.162153  -0.003
C  C125  1  0.60350601  0.59348932  0.66474459  1  1.557321  -0.000299  0.218341  0.589919  -0.000218  4.16189  -0.003
C  C126  1  0.10351665  0.07125552  0.66474635  1  1.55569  -0.000261  0.218169  0.58976  -0.000218  4.1621  -0.003
C  C127  1  0.10350782  0.59349010  0.92874454  1  1.556689  -0.000318  0.218137  0.589537  -0.000218  4.162036  -0.003
C  C128  1  0.10350478  0.33525554  0.40650820  1  1.557378  -0.0003  0.218167  0.589613  -0.000218  4.162088  -0.003
C  C129  1  0.39648919  0.92874756  0.59349159  1  1.55753  -0.000316  0.218077  0.589631  -0.000219  4.161845  -0.003
C  C130  1  0.39648847  0.66474728  0.07125778  1  1.556052  -0.000262  0.218024  0.589387  -0.000218  4.161947  -0.003
C  C131  1  0.39648420  0.40651010  0.33525404  1  1.557037  -0.000297  0.218121  0.589613  -0.000218  4.162115  -0.003
C  C132  1  0.82519491  0.66678210  0.15586569  1  0.439788  0.01008  -0.05895  -0.114469  0.006975  3.877773  0.008
C  C133  1  0.82519514  0.48908062  0.33321936  1  0.435898  0.010088  -0.059019  -0.114564  0.006975  3.877901  0.008
C  C134  1  0.82520268  0.84413925  0.51091979  1  0.425811  0.010087  -0.059113  -0.11455  0.006978  3.878  0.008
C  C135  1  0.67480388  0.33321781  0.48908122  1  0.436097  0.010093  -0.059  -0.114536  0.006977  3.877927  0.008
C  C136  1  0.67481103  0.15586259  0.66678062  1  0.439766  0.010076  -0.059007  -0.114574  0.006974  3.877885  0.008
C  C137  1  0.67480014  0.51091605  0.84413382  1  0.423876  0.010084  -0.058945  -0.114441  0.006976  3.877795  0.008
C  C138  1  0.17480222  0.33321718  0.84413492  1  0.439757  0.010082  -0.058984  -0.114476  0.006977  3.877767  0.008
C  C139  1  0.17480429  0.51091539  0.66677904  1  0.435817  0.010089  -0.058918  -0.114219  0.006975  3.877575  0.008
C  C140  1  0.17480596  0.15586565  0.48908433  1  0.426816  0.010084  -0.058936  -0.114405  0.006976  3.877795  0.008
C  C141  1  0.32519094  0.66678233  0.51091761  1  0.436161  0.010095  -0.058955  -0.114446  0.006977  3.87773  0.008
C  C142  1  0.32519877  0.84413773  0.33322261  1  0.437962  0.010076  -0.059059  -0.114423  0.006974  3.877885  0.008
C  C143  1  0.32519699  0.48908174  0.15586371  1  0.423535  0.010084  -0.058974  -0.114508  0.006976  3.877837  0.008
C  C144  1  0.06315177  0.90415036  0.23106141  1  -0.051757  0.000813  -0.097171  -0.189069  0.000348  3.925707  0.001
C  C145  1  0.06315376  0.32690971  0.09585140  1  -0.015549  0.000816  -0.097112  -0.189022  0.000347  3.925399  0.001
C  C146  1  0.06315192  0.76894231  0.67309001  1  -0.008326  0.000809  -0.097163  -0.189157  0.000348  3.925579  0.001
C  C147  1  0.43685068  0.09585006  0.32691022  1  -0.016605  0.000819  -0.097145  -0.189024  0.000348  3.925388  0.001
C  C148  1  0.43685043  0.23105861  0.90414641  1  -0.051368  0.000812  -0.097141  -0.189058  0.000347  3.925658  0.001
C  C149  1  0.43684521  0.67308925  0.76893882  1  -0.0083  0.00081  -0.097146  -0.189039  0.000348  3.925419  0.001
C  C150  1  0.93684766  0.09584919  0.76893893  1  -0.051628  0.000813  -0.09714  -0.189055  0.000348  3.92545  0.001
C  C151  1  0.93685028  0.67308820  0.90414784  1  -0.015309  0.000816  -0.097146  -0.189058  0.000347  3.925631  0.001
C  C152  1  0.93684751  0.23105985  0.32691136  1  -0.008098  0.000809  -0.097153  -0.189104  0.000348  3.925563  0.001
C  C153  1  0.56315220  0.90414962  0.67308815  1  -0.016677  0.000818  -0.097143  -0.188988  0.000347  3.925569  0.001
C  C154  1  0.56315130  0.76894297  0.09585281  1  -0.051225  0.000813  -0.097171  -0.189182  0.000347  3.92568  0.001
C  C155  1  0.56315307  0.32690945  0.23105963  1  -0.008015  0.000809  -0.097185  -0.189095  0.000348  3.925494  0.001
C  C156  1  0.98053508  0.76190360  0.16580008  1  0.382994  0.001417  0.085685  0.273927  0.000985  4.057015  0.001
C  C157  1  0.98053673  0.40389434  0.23809977  1  0.40698  0.001404  0.08568  0.273869  0.000985  4.057011  0.001
C  C158  1  0.98054070  0.83420597  0.59610646  1  0.427174  0.001402  0.08572  0.27393  0.000986  4.05684  0.001
C  C159  1  0.51946487  0.23809776  0.40389469  1  0.405872  0.001405  0.085702  0.273876  0.000986  4.056903  0.001
C  C160  1  0.51946839  0.16579524  0.76189897  1  0.381693  0.001417  0.085696  0.27389  0.000986  4.056966  0.001
C  C161  1  0.51946201  0.59610413  0.83420155  1  0.427049  0.001402  0.085759  0.273973  0.000986  4.056871  0.001
C  C162  1  0.01946435  0.23809724  0.83420261  1  0.382709  0.001417  0.085725  0.273913  0.000985  4.056876  0.001
C  C163  1  0.01946385  0.59610278  0.76190026  1  0.406481  0.001405  0.085659  0.273785  0.000986  4.057118  0.001
C  C164  1  0.01946565  0.16579801  0.40389674  1  0.427033  0.001402  0.085716  0.273927  0.000986  4.056977  0.001
C  C165  1  0.48053111  0.76190147  0.59610323  1  0.405616  0.001405  0.085699  0.273954  0.000986  4.056892  0.001
C  C166  1  0.48054026  0.83420476  0.23810183  1  0.381749  0.001417  0.085714  0.273849  0.000986  4.05686  0.001
C  C167  1  0.48053742  0.40389412  0.16579644  1  0.427107  0.001402  0.085719  0.273915  0.000986  4.056833  0.001
C  C168  1  0.21514451  0.88361640  0.12390230  1  -0.06403  0.000328  -0.239425  -0.410568  0.000212  3.96817  0.0
C  C169  1  0.21514658  0.24028429  0.11638304  1  -0.061467  0.000327  -0.239386  -0.410556  0.000212  3.968132  0.0
C  C170  1  0.21514561  0.87609794  0.75971644  1  -0.050553  0.000326  -0.239401  -0.410572  0.000212  3.968125  0.0
C  C171  1  0.28485566  0.11638209  0.24028402  1  -0.061365  0.000327  -0.239436  -0.410614  0.000212  3.968092  0.0
C  C172  1  0.28485559  0.12390211  0.88361591  1  -0.064723  0.000328  -0.239421  -0.410586  0.000212  3.968096  0.0
C  C173  1  0.28485353  0.75971588  0.87609815  1  -0.049987  0.000326  -0.239401  -0.410574  0.000212  3.968098  0.0
C  C174  1  0.78485031  0.11638204  0.87609641  1  -0.064203  0.000328  -0.239357  -0.410503  0.000212  3.968107  0.0
C  C175  1  0.78485400  0.75971467  0.88361515  1  -0.061974  0.000327  -0.239411  -0.410606  0.000212  3.968057  0.0
C  C176  1  0.78485382  0.12390218  0.24028606  1  -0.050626  0.000326  -0.239427  -0.410655  0.000212  3.968099  0.0
C  C177  1  0.71514723  0.88361597  0.75971325  1  -0.061171  0.000327  -0.239432  -0.410582  0.000212  3.968109  0.0
C  C178  1  0.71514384  0.87609920  0.11638357  1  -0.0645  0.000328  -0.239424  -0.410607  0.000212  3.968172  0.0
C  C179  1  0.71514705  0.24028419  0.12390166  1  -0.049964  0.000326  -0.239404  -0.410593  0.000212  3.968161  0.0
C  C180  1  0.92487086  0.80834129  0.23290692  1  0.024188  0.001225  -0.107927  -0.250009  0.000804  3.988945  0.001
C  C181  1  0.92487141  0.42456397  0.19166120  1  -0.060984  0.001285  -0.10795  -0.24998  0.000804  3.988984  0.001
C  C182  1  0.92487204  0.76709839  0.57543580  1  -0.029884  0.001242  -0.107949  -0.250013  0.000805  3.988978  0.001
C  C183  1  0.57512908  0.19166034  0.42456438  1  -0.06291  0.001287  -0.107948  -0.249972  0.000805  3.989165  0.001
C  C184  1  0.57513013  0.23290262  0.80833687  1  0.024957  0.001225  -0.107959  -0.250015  0.000804  3.988966  0.001
C  C185  1  0.57512735  0.57543418  0.76709295  1  -0.030033  0.00124  -0.107966  -0.250013  0.000804  3.988943  0.001
C  C186  1  0.07513087  0.19165818  0.76709440  1  0.024145  0.001226  -0.107901  -0.24992  0.000804  3.988924  0.001
C  C187  1  0.07512687  0.57543367  0.80833830  1  -0.060551  0.001285  -0.107944  -0.249993  0.000804  3.98905  0.001
C  C188  1  0.07513085  0.23290502  0.42456524  1  -0.02943  0.001241  -0.107962  -0.250048  0.000805  3.989259  0.001
C  C189  1  0.42486805  0.80834052  0.57543465  1  -0.062858  0.001287  -0.107924  -0.249982  0.000805  3.98913  0.001
C  C190  1  0.42487505  0.76709836  0.19166386  1  0.02482  0.001225  -0.107935  -0.249976  0.000804  3.988914  0.001
C  C191  1  0.42487208  0.42456387  0.23290432  1  -0.030292  0.00124  -0.107922  -0.249947  0.000804  3.989003  0.001
C  C192  1  0.96643023  0.87962749  0.26512940  1  -0.032961  0.017184  -0.01831  -0.000804  0.011875  4.012078  0.014
C  C193  1  0.96642865  0.38550265  0.12037681  1  0.022884  0.017146  -0.018267  -0.000778  0.011875  4.012075  0.014
C  C194  1  0.96642695  0.73487589  0.61449800  1  -0.038373  0.017191  -0.018248  -0.000623  0.011875  4.012064  0.014
C  C195  1  0.53357892  0.12037687  0.38550326  1  0.02456  0.017142  -0.018337  -0.000885  0.011875  4.012282  0.014
C  C196  1  0.53357176  0.26512501  0.87962158  1  -0.033395  0.017183  -0.018283  -0.000768  0.011875  4.012193  0.014
C  C197  1  0.53356782  0.61449830  0.73487186  1  -0.038409  0.017188  -0.01831  -0.000835  0.011874  4.012119  0.014
C  C198  1  0.03357496  0.12037289  0.73487284  1  -0.033201  0.017183  -0.018322  -0.000899  0.011875  4.012206  0.014
C  C199  1  0.03357078  0.61449716  0.87962327  1  0.022925  0.017144  -0.018292  -0.000792  0.011875  4.012207  0.014
C  C200  1  0.03357248  0.26512562  0.38550220  1  -0.038598  0.017193  -0.018303  -0.000787  0.011876  4.012306  0.014
C  C201  1  0.46642396  0.87962490  0.61449668  1  0.024497  0.017142  -0.018344  -0.000955  0.011875  4.012357  0.014
C  C202  1  0.46642882  0.73487552  0.12037869  1  -0.033168  0.017182  -0.018262  -0.000685  0.011875  4.012065  0.014
C  C203  1  0.46642931  0.38550066  0.26512632  1  -0.038477  0.017191  -0.018302  -0.00083  0.011875  4.012048  0.014
C  C204  1  0.11612270  0.85748275  0.16254033  1  0.004487  0.00119  -0.009479  0.180553  0.000721  4.007126  0.001
C  C205  1  0.11612464  0.30505647  0.14252050  1  0.004069  0.001191  -0.009586  0.180565  0.000721  4.006973  0.001
C  C206  1  0.11612613  0.83746420  0.69494360  1  0.002647  0.00119  -0.009559  0.180657  0.000721  4.006984  0.001
C  C207  1  0.38387861  0.14251945  0.30505731  1  0.004427  0.00119  -0.009541  0.180577  0.000721  4.007034  0.001
C  C208  1  0.38387853  0.16253607  0.85747769  1  0.004668  0.00119  -0.009525  0.180555  0.000721  4.006975  0.001
C  C209  1  0.38387432  0.69494329  0.83746238  1  0.002986  0.00119  -0.009534  0.180613  0.000721  4.00692  0.001
C  C210  1  0.88387328  0.14251888  0.83746158  1  0.004397  0.00119  -0.009537  0.180615  0.000721  4.006983  0.001
C  C211  1  0.88387825  0.69494223  0.85747795  1  0.004218  0.001191  -0.009551  0.180549  0.000721  4.006876  0.001
C  C212  1  0.88387676  0.16253716  0.30505856  1  0.002663  0.00119  -0.00954  0.180594  0.000721  4.00698  0.001
C  C213  1  0.61612312  0.85748096  0.69494126  1  0.004304  0.00119  -0.009528  0.180513  0.000721  4.007128  0.001
C  C214  1  0.61612435  0.83746525  0.14252180  1  0.004375  0.00119  -0.009521  0.180664  0.000721  4.006965  0.001
C  C215  1  0.61612511  0.30505579  0.16253751  1  0.002761  0.00119  -0.009545  0.180603  0.000721  4.00709  0.001
C  C216  1  0.79114751  0.59005952  0.10184918  1  1.598115  -0.001495  0.222061  0.630127  -0.001199  4.084267  -0.003
C  C217  1  0.79115105  0.51178459  0.40994179  1  1.597966  -0.001447  0.222007  0.630087  -0.0012  4.084595  -0.003
C  C218  1  0.79114128  0.89815429  0.48821291  1  1.585106  -0.00143  0.222054  0.629976  -0.001197  4.084589  -0.003
C  C219  1  0.70885473  0.40994059  0.51178728  1  1.597739  -0.001452  0.222045  0.629975  -0.001198  4.0845  -0.003
C  C220  1  0.70885056  0.10184468  0.59005746  1  1.599316  -0.001505  0.22201  0.630084  -0.0012  4.084282  -0.003
C  C221  1  0.70884652  0.48821036  0.89815169  1  1.586127  -0.001431  0.22199  0.630004  -0.001199  4.084371  -0.003
C  C222  1  0.20885076  0.40994067  0.89815234  1  1.598252  -0.001496  0.222033  0.630071  -0.001199  4.084292  -0.003
C  C223  1  0.20884608  0.48821123  0.59005588  1  1.598238  -0.001448  0.221955  0.629938  -0.0012  4.084378  -0.003
C  C224  1  0.20886391  0.10185191  0.51179356  1  1.585237  -0.001429  0.222134  0.63013  -0.001198  4.084168  -0.003
C  C225  1  0.29113548  0.59005917  0.48821011  1  1.597843  -0.001455  0.222213  0.630163  -0.001199  4.084259  -0.003
C  C226  1  0.29115348  0.89815696  0.40994444  1  1.599187  -0.001506  0.221967  0.630042  -0.001201  4.084466  -0.003
C  C227  1  0.29114945  0.51178644  0.10184591  1  1.585914  -0.001432  0.222022  0.630015  -0.001199  4.084485  -0.003
O  O228  1  0.77884750  0.90527140  0.35161153  1  -1.115562  0.103825  -0.316284  -0.557587  0.06437  2.466694  0.095
O  O229  1  0.77884242  0.44633767  0.09473171  1  -1.118403  0.103835  -0.316399  -0.557761  0.064378  2.466486  0.095
O  O230  1  0.77883517  0.64839512  0.55365853  1  -1.121928  0.103843  -0.316374  -0.557724  0.064384  2.466271  0.095
O  O231  1  0.72116971  0.09473325  0.44633981  1  -1.11911  0.103861  -0.316447  -0.557815  0.064395  2.466079  0.095
O  O232  1  0.72115777  0.35160547  0.90526665  1  -1.115949  0.103838  -0.31643  -0.557762  0.064377  2.466562  0.095
O  O233  1  0.72115290  0.55366371  0.64839046  1  -1.122475  0.103832  -0.316573  -0.557949  0.064376  2.46664  0.095
O  O234  1  0.22115999  0.09472877  0.64839366  1  -1.11551  0.103842  -0.316392  -0.557772  0.064381  2.466701  0.095
O  O235  1  0.22115471  0.55366017  0.90526851  1  -1.118376  0.10384  -0.316404  -0.557735  0.064381  2.46649  0.095
O  O236  1  0.22116310  0.35160655  0.44633604  1  -1.122282  0.103847  -0.316461  -0.557865  0.064385  2.466395  0.095
O  O237  1  0.27883318  0.90526754  0.55366020  1  -1.119118  0.103845  -0.316407  -0.557819  0.064386  2.466102  0.095
O  O238  1  0.27884165  0.64839386  0.09473664  1  -1.115875  0.103842  -0.316343  -0.557676  0.064379  2.466264  0.095
O  O239  1  0.27884307  0.44633839  0.35160823  1  -1.122147  0.103822  -0.316368  -0.557707  0.064372  2.466639  0.095
O  O240  1  0.94691045  0.69133415  0.13027913  1  -1.094495  0.001769  -0.178286  -0.192602  0.000574  2.665631  0.002
O  O241  1  0.94690849  0.43894274  0.30866911  1  -1.092137  0.00177  -0.178282  -0.192556  0.000574  2.665758  0.002
O  O242  1  0.94691476  0.86972706  0.56105810  1  -1.099032  0.001773  -0.178277  -0.192549  0.000575  2.665777  0.002
O  O243  1  0.55309180  0.30866678  0.43894137  1  -1.091266  0.00177  -0.178272  -0.19255  0.000575  2.665701  0.002
O  O244  1  0.55309779  0.13027355  0.69132913  1  -1.094651  0.001768  -0.178315  -0.192609  0.000573  2.665756  0.002
O  O245  1  0.55308679  0.56105456  0.86972144  1  -1.099137  0.001772  -0.178324  -0.192609  0.000574  2.665618  0.002
O  O246  1  0.05309013  0.30866578  0.86972266  1  -1.094557  0.001769  -0.178294  -0.192571  0.000574  2.665657  0.002
O  O247  1  0.05308979  0.56105445  0.69132994  1  -1.092055  0.00177  -0.178325  -0.192636  0.000574  2.665671  0.002
O  O248  1  0.05309273  0.13027704  0.43894681  1  -1.099496  0.001772  -0.178294  -0.192581  0.000575  2.665677  0.002
O  O249  1  0.44690532  0.69133252  0.56105557  1  -1.091189  0.001769  -0.178326  -0.192591  0.000574  2.665637  0.002
O  O250  1  0.44691431  0.86972566  0.30867246  1  -1.094802  0.001768  -0.178323  -0.192631  0.000573  2.665669  0.002
O  O251  1  0.44691148  0.43894304  0.13027537  1  -1.099204  0.001772  -0.178266  -0.192516  0.000574  2.665621  0.002
O  O252  1  0.66059178  0.56925536  0.11088877  1  -1.10365  0.100791  -0.318565  -0.517057  0.063387  2.300119  0.09
O  O253  1  0.66058257  0.54162929  0.43074463  1  -1.105899  0.100801  -0.318616  -0.517117  0.063398  2.300021  0.09
O  O254  1  0.66059820  0.88911464  0.45837344  1  -1.100526  0.10077  -0.318459  -0.516816  0.063373  2.300448  0.09
O  O255  1  0.83940470  0.43074420  0.54163021  1  -1.106956  0.100782  -0.318516  -0.516899  0.063383  2.300243  0.09
O  O256  1  0.83942128  0.11088865  0.56925503  1  -1.104886  0.100819  -0.318623  -0.517088  0.063399  2.299743  0.09
O  O257  1  0.83940578  0.45836489  0.88911072  1  -1.10082  0.100806  -0.318529  -0.516981  0.063393  2.300039  0.09
O  O258  1  0.33940419  0.43074399  0.88911085  1  -1.103738  0.100796  -0.318537  -0.516998  0.06339  2.300212  0.09
O  O259  1  0.33941225  0.45836509  0.56925266  1  -1.105804  0.100799  -0.318569  -0.51705  0.063397  2.299905  0.09
O  O260  1  0.33940699  0.11089154  0.54163670  1  -1.101011  0.10077  -0.318598  -0.517023  0.063372  2.300295  0.09
O  O261  1  0.16058666  0.56925712  0.45836927  1  -1.107066  0.100775  -0.318637  -0.517021  0.06338  2.300282  0.09
O  O262  1  0.16058045  0.88911332  0.43074563  1  -1.104776  0.100825  -0.318588  -0.517102  0.063403  2.299776  0.09
O  O263  1  0.16058904  0.54163014  0.11088775  1  -1.100606  0.100808  -0.318595  -0.517053  0.063395  2.3001  0.09
O  O264  1  0.95675470  0.98944337  0.37202443  1  -1.112815  0.084243  -0.313231  -0.532029  0.052616  2.400193  0.076
O  O265  1  0.95675330  0.38257911  0.01056173  1  -1.108889  0.08429  -0.313163  -0.531934  0.052612  2.400335  0.076
O  O266  1  0.95674598  0.62798337  0.61741734  1  -1.1057  0.084282  -0.313068  -0.531749  0.052607  2.400635  0.076
O  O267  1  0.54325329  0.01056514  0.38258604  1  -1.109099  0.084271  -0.313098  -0.53183  0.0526  2.400774  0.076
O  O268  1  0.54324580  0.37201731  0.98943562  1  -1.112666  0.084235  -0.31312  -0.531863  0.052611  2.400381  0.076
O  O269  1  0.54323858  0.61741993  0.62797830  1  -1.105218  0.084291  -0.313223  -0.532111  0.052613  2.400271  0.076
O  O270  1  0.04325164  0.01055839  0.62797917  1  -1.112803  0.08424  -0.313175  -0.531937  0.052615  2.400317  0.076
O  O271  1  0.04324959  0.61742009  0.98943986  1  -1.108927  0.084281  -0.313184  -0.531887  0.052606  2.40038  0.076
O  O272  1  0.04324308  0.37201866  0.38258234  1  -1.105386  0.084285  -0.313122  -0.531821  0.052609  2.400603  0.076
O  O273  1  0.45674729  0.98943661  0.61741757  1  -1.109051  0.08428  -0.313101  -0.531834  0.052605  2.400551  0.076
O  O274  1  0.45674556  0.62798302  0.01056393  1  -1.112706  0.084227  -0.313122  -0.531805  0.052606  2.400398  0.076
O  O275  1  0.45675163  0.38257956  0.37201936  1  -1.105237  0.084297  -0.313179  -0.531927  0.052617  2.40034  0.076
O  O276  1  0.88703261  0.55206665  0.05419980  1  -1.118593  0.07562  -0.301709  -0.558044  0.047284  2.430216  0.069
O  O277  1  0.88702343  0.50212853  0.44793293  1  -1.118884  0.075574  -0.301589  -0.557855  0.047275  2.43055  0.069
O  O278  1  0.88703431  0.94580916  0.49787240  1  -1.113068  0.075575  -0.301757  -0.55808  0.047293  2.430107  0.069
O  O279  1  0.61296503  0.44793327  0.50212860  1  -1.117302  0.07559  -0.301713  -0.557961  0.047285  2.430148  0.069
O  O280  1  0.61298171  0.05419772  0.55206687  1  -1.11886  0.075599  -0.301596  -0.557896  0.047268  2.430543  0.069
O  O281  1  0.61296607  0.49786821  0.94580027  1  -1.114111  0.075548  -0.30167  -0.557953  0.047277  2.430363  0.069
O  O282  1  0.11296682  0.44793366  0.94580343  1  -1.118668  0.075624  -0.301712  -0.558029  0.047286  2.430154  0.069
O  O283  1  0.11297369  0.49786965  0.55206605  1  -1.118978  0.075567  -0.301582  -0.557813  0.04727  2.430345  0.069
O  O284  1  0.11296972  0.05419867  0.50213518  1  -1.113069  0.075566  -0.301762  -0.558107  0.047288  2.43004  0.069
O  O285  1  0.38702633  0.55206394  0.49786678  1  -1.117468  0.075601  -0.301747  -0.5581  0.04729  2.430103  0.069
O  O286  1  0.38702002  0.94580286  0.44793609  1  -1.118855  0.075602  -0.301534  -0.557808  0.047269  2.430496  0.069
O  O287  1  0.38702760  0.50212965  0.05419628  1  -1.113894  0.075555  -0.301656  -0.557942  0.04728  2.430293  0.069
