# generated using pymatgen
data_ZnH13C14N2O5
_symmetry_space_group_name_H-M   'P 1'
_cell_length_a   8.01026706
_cell_length_b   9.30889904
_cell_length_c   9.73866601
_cell_angle_alpha   98.73882017
_cell_angle_beta   93.95101705
_cell_angle_gamma   110.66019736
_symmetry_Int_Tables_number   1
_chemical_formula_structural   ZnH13C14N2O5
_chemical_formula_sum   'Zn2 H26 C28 N4 O10'
_cell_volume   665.67332387
_cell_formula_units_Z   2
loop_
 _symmetry_equiv_pos_site_id
 _symmetry_equiv_pos_as_xyz
  1  'x, y, z'
loop_
 _atom_site_type_symbol
 _atom_site_label
 _atom_site_symmetry_multiplicity
 _atom_site_fract_x
 _atom_site_fract_y
 _atom_site_fract_z
 _atom_site_occupancy
 _atom_site_hle17_bader_spin_density
 _atom_site_hle17_ddec_charge
 _atom_site_hle17_ddec_spin_density
 _atom_site_hle17_ddec_sum_bond_order
 _atom_site_hle17_magmom
 _atom_site_hse06_10hf_bader_spin_density
 _atom_site_hse06_10hf_ddec_charge
 _atom_site_hse06_10hf_ddec_spin_density
 _atom_site_hse06_10hf_ddec_sum_bond_order
 _atom_site_hse06_10hf_magmom
 _atom_site_hse06_bader_spin_density
 _atom_site_hse06_ddec_charge
 _atom_site_hse06_ddec_spin_density
 _atom_site_hse06_ddec_sum_bond_order
 _atom_site_hse06_magmom
 _atom_site_pbe_bader_spin_density
 _atom_site_pbe_cm5_charge
 _atom_site_pbe_ddec_charge
 _atom_site_pbe_ddec_spin_density
 _atom_site_pbe_ddec_sum_bond_order
 _atom_site_pbe_magmom
Zn  Zn0  1  0.61715457  0.66977062  0.50811140  1  0  1.066856  0  1.844464  0  0  0.898965  0  2.309318  0  0  0.9505  0  2.24527  0  0  0.680655  0.86298  0  2.353743  0
Zn  Zn1  1  0.38284428  0.33022903  0.49188772  1  0  1.066909  0  1.844414  0  0  0.899012  0  2.309241  0  0  0.950549  0  2.245193  0  0  0.68066  0.863013  0  2.353674  0
H  H2  1  0.43740327  0.88261908  0.89543884  1  0  0.093487  0  0.965098  0  0  0.102113  0  1.032299  0  0  0.105104  0  1.030167  0  0  0.100717  0.099935  0  1.033851  0
H  H3  1  0.56259958  0.11738409  0.10456304  1  0  0.093454  0  0.965102  0  0  0.102079  0  1.03231  0  0  0.105071  0  1.030169  0  0  0.100706  0.099903  0  1.03386  0
H  H4  1  0.29397521  0.91431599  0.11354188  1  0  0.113167  0  0.950789  0  0  0.124611  0  1.010593  0  0  0.128474  0  1.008319  0  0  0.106706  0.12175  0  1.012612  0
H  H5  1  0.70602542  0.08568484  0.88646058  1  0  0.113136  0  0.950824  0  0  0.124609  0  1.010596  0  0  0.128462  0  1.008333  0  0  0.106706  0.121751  0  1.012611  0
H  H6  1  0.16453190  0.42538657  0.12287404  1  0  0.105332  0  0.968201  0  0  0.117353  0  1.028198  0  0  0.120389  0  1.027492  0  0  0.103663  0.115233  0  1.028888  0
H  H7  1  0.83546819  0.57461308  0.87712309  1  0  0.105338  0  0.968167  0  0  0.117354  0  1.028189  0  0  0.120387  0  1.027488  0  0  0.103656  0.115244  0  1.028863  0
H  H8  1  0.30345810  0.39625714  0.90731569  1  0  0.096348  0  0.949855  0  0  0.105738  0  1.01367  0  0  0.108769  0  1.011677  0  0  0.103923  0.103568  0  1.015174  0
H  H9  1  0.69654250  0.60374368  0.09268369  1  0  0.096371  0  0.94987  0  0  0.10576  0  1.013677  0  0  0.10879  0  1.011685  0  0  0.103931  0.103593  0  1.01518  0
H  H10  1  0.98760434  0.60978945  0.39398580  1  0  0.111801  0  0.933471  0  0  0.121769  0  0.996484  0  0  0.12367  0  0.995881  0  0  0.116352  0.12025  0  0.997114  0
H  H11  1  0.01239256  0.39020552  0.60601254  1  0  0.111775  0  0.93352  0  0  0.121772  0  0.996487  0  0  0.123673  0  0.995884  0  0  0.116348  0.120252  0  0.997117  0
H  H12  1  0.97141910  0.46490927  0.24643325  1  0  0.079357  0  0.952029  0  0  0.085794  0  1.024895  0  0  0.08708  0  1.024475  0  0  0.102087  0.085114  0  1.024902  0
H  H13  1  0.02858350  0.53509039  0.75356401  1  0  0.079356  0  0.952086  0  0  0.085807  0  1.02492  0  0  0.087094  0  1.024501  0  0  0.102095  0.085125  0  1.024926  0
H  H14  1  0.90253994  0.79572077  0.29601187  1  0  0.098218  0  0.970973  0  0  0.102543  0  1.0452  0  0  0.105647  0  1.040964  0  0  0.135216  0.099994  0  1.048825  0
H  H15  1  0.09745942  0.20428005  0.70398950  1  0  0.098198  0  0.970921  0  0  0.102521  0  1.045159  0  0  0.105626  0  1.040922  0  0  0.135199  0.099973  0  1.048781  0
H  H16  1  0.64349275  0.03235519  0.55678531  1  0  0.113793  0  0.954352  0  0  0.122742  0  1.014999  0  0  0.125628  0  1.01316  0  0  0.121113  0.120472  0  1.016631  0
H  H17  1  0.35650736  0.96764446  0.44321490  1  0  0.113814  0  0.954329  0  0  0.122759  0  1.01498  0  0  0.125648  0  1.013138  0  0  0.121121  0.12049  0  1.016609  0
H  H18  1  0.81125109  0.21963154  0.37289433  1  0  0.119241  0  0.956434  0  0  0.129676  0  1.0169  0  0  0.131981  0  1.016238  0  0  0.123169  0.128174  0  1.017285  0
H  H19  1  0.18874775  0.78036810  0.62710376  1  0  0.11922  0  0.956475  0  0  0.12968  0  1.016916  0  0  0.131996  0  1.016239  0  0  0.123163  0.128178  0  1.017304  0
H  H20  1  0.13973201  0.10830404  0.23406604  1  0  0.088081  0  0.936321  0  0  0.103023  0  0.999178  0  0  0.104086  0  0.998294  0  0  0.109762  0.102112  0  1.000229  0
H  H21  1  0.86026761  0.89169445  0.76593398  1  0  0.088104  0  0.936313  0  0  0.103054  0  0.99916  0  0  0.104116  0  0.998279  0  0  0.109776  0.102144  0  1.000216  0
H  H22  1  0.98376495  0.19020073  0.18184780  1  0  0.073405  0  0.934777  0  0  0.088913  0  1.001422  0  0  0.089513  0  1.001148  0  0  0.108564  0.088469  0  1.00165  0
H  H23  1  0.01623566  0.80980009  0.81815260  1  0  0.07341  0  0.93478  0  0  0.088924  0  1.001422  0  0  0.089524  0  1.001148  0  0  0.108561  0.088476  0  1.001653  0
H  H24  1  0.79921175  0.93386891  0.01983958  1  0  0.074127  0  0.935361  0  0  0.093329  0  0.994889  0  0  0.093623  0  0.996225  0  0  0.093549  0.092782  0  0.99456  0
H  H25  1  0.20078887  0.06613192  0.98016185  1  0  0.074123  0  0.935359  0  0  0.093326  0  0.994873  0  0  0.09362  0  0.996209  0  0  0.093558  0.092779  0  0.994542  0
H  H26  1  0.96094425  0.85577285  0.06887558  1  0  0.06917  0  0.947409  0  0  0.086958  0  1.011598  0  0  0.087261  0  1.012811  0  0  0.092975  0.087057  0  1.010462  0
H  H27  1  0.03905462  0.14422681  0.93112559  1  0  0.069183  0  0.9474  0  0  0.086971  0  1.011578  0  0  0.087274  0  1.012789  0  0  0.092984  0.08707  0  1.010439  0
C  C28  1  0.44677212  0.60925461  0.75008183  1  0  0.661332  0  3.899543  0  0  0.611078  0  4.18877  0  0  0.646357  0  4.181691  0  0  0.206772  0.586303  0  4.193806  0
C  C29  1  0.55322945  0.39074855  0.24991794  1  0  0.661295  0  3.899633  0  0  0.611052  0  4.188864  0  0  0.646331  0  4.18179  0  0  0.206761  0.586286  0  4.193884  0
C  C30  1  0.37639702  0.63613371  0.88575216  1  0  -0.109929  0  3.793747  0  0  -0.087476  0  4.029661  0  0  -0.098037  0  4.052798  0  0  -0.037104  -0.080477  0  4.014008  0
C  C31  1  0.62360707  0.36386946  0.11424877  1  0  -0.10994  0  3.793807  0  0  -0.087498  0  4.029733  0  0  -0.098058  0  4.05287  0  0  -0.037126  -0.0805  0  4.014084  0
C  C32  1  0.37667349  0.78322568  0.94598205  1  0  -0.060081  0  3.777017  0  0  -0.085353  0  4.030288  0  0  -0.08166  0  4.048974  0  0  -0.089781  -0.087323  0  4.017105  0
C  C33  1  0.62332763  0.21677632  0.05402060  1  0  -0.059994  0  3.777017  0  0  -0.085264  0  4.030285  0  0  -0.081567  0  4.048971  0  0  -0.089744  -0.087233  0  4.017104  0
C  C34  1  0.29559382  0.80110463  0.06589032  1  0  -0.193638  0  3.742206  0  0  -0.213696  0  3.997456  0  0  -0.22036  0  4.015626  0  0  -0.106527  -0.209497  0  3.985492  0
C  C35  1  0.70440680  0.19889620  0.93411214  1  0  -0.19362  0  3.742292  0  0  -0.21369  0  3.997547  0  0  -0.220346  0  4.015721  0  0  -0.106512  -0.209493  0  3.985588  0
C  C36  1  0.21347880  0.67169168  0.12826371  1  0  0.291159  0  3.790909  0  0  0.280229  0  4.050878  0  0  0.293584  0  4.065686  0  0  0.087512  0.271153  0  4.040906  0
C  C37  1  0.78651881  0.32830796  0.87173637  1  0  0.291179  0  3.790902  0  0  0.280229  0  4.050906  0  0  0.293584  0  4.065713  0  0  0.087495  0.271146  0  4.040946  0
C  C38  1  0.22075599  0.52599858  0.07325644  1  0  -0.198326  0  3.739338  0  0  -0.216694  0  3.990159  0  0  -0.224495  0  4.010966  0  0  -0.108292  -0.211474  0  3.976467  0
C  C39  1  0.77924412  0.47400107  0.92674274  1  0  -0.198282  0  3.739266  0  0  -0.216655  0  3.990081  0  0  -0.224457  0  4.010888  0  0  -0.108241  -0.211435  0  3.976397  0
C  C40  1  0.29994636  0.50944690  0.95236144  1  0  -0.02944  0  3.75356  0  0  -0.054797  0  4.005317  0  0  -0.050904  0  4.023805  0  0  -0.081763  -0.057359  0  3.992807  0
C  C41  1  0.70005549  0.49055392  0.04763800  1  0  -0.029535  0  3.753624  0  0  -0.05488  0  4.005365  0  0  -0.050985  0  4.023853  0  0  -0.0818  -0.057449  0  3.992866  0
C  C42  1  0.21885228  0.54264730  0.39183807  1  0  0.664714  0  3.878614  0  0  0.614002  0  4.177377  0  0  0.647278  0  4.171222  0  0  0.206541  0.59149  0  4.180791  0
C  C43  1  0.78114860  0.45735119  0.60816202  1  0  0.664733  0  3.878568  0  0  0.614021  0  4.177322  0  0  0.647297  0  4.171168  0  0  0.206541  0.591505  0  4.18074  0
C  C44  1  0.06375581  0.57238262  0.31582341  1  0  -0.079634  0  3.604789  0  0  -0.135843  0  3.865328  0  0  -0.133126  0  3.866669  0  0  -0.072408  -0.138009  0  3.864447  0
C  C45  1  0.93624159  0.42761352  0.68417615  1  0  -0.079666  0  3.604917  0  0  -0.135878  0  3.865438  0  0  -0.133164  0  3.866781  0  0  -0.072396  -0.13804  0  3.864548  0
C  C46  1  0.85333386  0.88346836  0.34310574  1  0  0.17408  0  3.628884  0  0  0.113351  0  3.893088  0  0  0.127469  0  3.905658  0  0  0.14396  0.103963  0  3.884744  0
C  C47  1  0.14666673  0.11653246  0.65689364  1  0  0.174081  0  3.628916  0  0  0.113348  0  3.893123  0  0  0.127466  0  3.905694  0  0  0.143952  0.10396  0  3.88477  0
C  C48  1  0.72099097  0.00980653  0.47517105  1  0  0.01014  0  3.724994  0  0  -0.026766  0  3.99647  0  0  -0.024064  0  4.015049  0  0  -4.5e-05  -0.028184  0  3.984079  0
C  C49  1  0.27900839  0.99019428  0.52482929  1  0  0.010127  0  3.724983  0  0  -0.02678  0  3.996471  0  0  -0.024082  0  4.015051  0  0  -3.5e-05  -0.028198  0  3.984082  0
C  C50  1  0.80320675  0.10397238  0.38489402  1  0  -0.055682  0  3.662418  0  0  -0.099039  0  3.926064  0  0  -0.097984  0  3.945746  0  0  0.001481  -0.099969  0  3.913082  0
C  C51  1  0.19679336  0.89602727  0.61510516  1  0  -0.055631  0  3.662417  0  0  -0.09901  0  3.92606  0  0  -0.097961  0  3.945736  0  0  0.00152  -0.099944  0  3.913086  0
C  C52  1  0.99765941  0.07979967  0.19469589  1  0  0.006035  0  3.614068  0  0  -0.056625  0  3.872053  0  0  -0.051949  0  3.882678  0  0  -0.051624  -0.059738  0  3.865037  0
C  C53  1  0.00234120  0.92020116  0.80530452  1  0  0.006002  0  3.61409  0  0  -0.056682  0  3.872086  0  0  -0.052006  0  3.882708  0  0  -0.051645  -0.059804  0  3.865084  0
C  C54  1  0.94324409  0.96505104  0.05527508  1  0  -0.128137  0  3.686793  0  0  -0.170428  0  3.95093  0  0  -0.172117  0  3.965682  0  0  -0.162335  -0.169239  0  3.941122  0
C  C55  1  0.05675555  0.03494745  0.94472597  1  0  -0.128158  0  3.686831  0  0  -0.170411  0  3.950947  0  0  -0.172101  0  3.965701  0  0  -0.162359  -0.169221  0  3.941137  0
N  N56  1  0.88637522  0.02251910  0.30229515  1  0  -0.062576  0  3.567201  0  0  0.033334  0  3.782983  0  0  0.018224  0  3.810194  0  0  -0.240959  0.043504  0  3.76444  0
N  N57  1  0.11362490  0.97748056  0.69770506  1  0  -0.062592  0  3.5672  0  0  0.033319  0  3.782996  0  0  0.018208  0  3.810209  0  0  -0.24098  0.043497  0  3.76445  0
N  N58  1  0.75285603  0.87225499  0.44777030  1  0  -0.380311  0  3.282001  0  0  -0.302556  0  3.577446  0  0  -0.32343  0  3.590194  0  0  -0.360482  -0.288143  0  3.568431  0
N  N59  1  0.24714285  0.12774467  0.55223190  1  0  -0.380329  0  3.282118  0  0  -0.30256  0  3.577547  0  0  -0.323434  0  3.590298  0  0  -0.360493  -0.288144  0  3.568524  0
O  O60  1  0.55627964  0.72648672  0.70784999  1  0  -0.635292  0  2.02174  0  0  -0.571653  0  2.280502  0  0  -0.599272  0  2.267175  0  0  -0.322707  -0.552285  0  2.290038  0
O  O61  1  0.44372194  0.27351644  0.29214977  1  0  -0.635323  0  2.021894  0  0  -0.571678  0  2.280637  0  0  -0.599295  0  2.267303  0  0  -0.322719  -0.55231  0  2.290163  0
O  O62  1  0.38852151  0.46852660  0.68399063  1  0  -0.659131  0  2.109721  0  0  -0.593925  0  2.379748  0  0  -0.622494  0  2.367174  0  0  -0.318133  -0.573919  0  2.388176  0
O  O63  1  0.61147805  0.53147771  0.31600920  1  0  -0.659062  0  2.109773  0  0  -0.59385  0  2.379741  0  0  -0.622419  0  2.367168  0  0  -0.318099  -0.573848  0  2.388165  0
O  O64  1  0.18532359  0.40268788  0.40915473  1  0  -0.64399  0  2.07037  0  0  -0.580913  0  2.34434  0  0  -0.609315  0  2.332105  0  0  -0.316594  -0.560869  0  2.351866  0
O  O65  1  0.81467601  0.59731060  0.59084220  1  0  -0.643966  0  2.070299  0  0  -0.5809  0  2.344278  0  0  -0.609301  0  2.332044  0  0  -0.316594  -0.560857  0  2.351805  0
O  O66  1  0.36272724  0.65941990  0.43228845  1  0  -0.609911  0  2.089707  0  0  -0.543802  0  2.348071  0  0  -0.571785  0  2.337535  0  0  -0.303464  -0.524488  0  2.355035  0
O  O67  1  0.63727288  0.34057975  0.56771176  1  0  -0.609925  0  2.089697  0  0  -0.543817  0  2.348061  0  0  -0.5718  0  2.337525  0  0  -0.303471  -0.524501  0  2.355025  0
O  O68  1  0.12651608  0.69723195  0.24000694  1  0  -0.263765  0  2.353418  0  0  -0.195993  0  2.591206  0  0  -0.213687  0  2.594289  0  0  -0.172494  -0.183362  0  2.588763  0
O  O69  1  0.87348104  0.30276652  0.75999295  1  0  -0.263777  0  2.353391  0  0  -0.196007  0  2.591191  0  0  -0.2137  0  2.594272  0  0  -0.172521  -0.183372  0  2.588744  0
