# generated using pymatgen
data_ZnH13C20N5O4
_symmetry_space_group_name_H-M   'P 1'
_cell_length_a   10.26002135
_cell_length_b   16.34961521
_cell_length_c   24.20797249
_cell_angle_alpha   90.76867901
_cell_angle_beta   89.99870639
_cell_angle_gamma   90.00039822
_symmetry_Int_Tables_number   1
_chemical_formula_structural   ZnH13C20N5O4
_chemical_formula_sum   'Zn8 H104 C160 N40 O32'
_cell_volume   4060.45902707
_cell_formula_units_Z   8
loop_
 _symmetry_equiv_pos_site_id
 _symmetry_equiv_pos_as_xyz
  1  'x, y, z'
loop_
 _atom_site_type_symbol
 _atom_site_label
 _atom_site_symmetry_multiplicity
 _atom_site_fract_x
 _atom_site_fract_y
 _atom_site_fract_z
 _atom_site_occupancy
 _atom_site_pbe_bader_charge
 _atom_site_pbe_bader_spin_density
 _atom_site_pbe_cm5_charge
 _atom_site_pbe_ddec_charge
 _atom_site_pbe_ddec_spin_density
 _atom_site_pbe_ddec_sum_bond_order
 _atom_site_pbe_magmom
Zn  Zn0  1  0.27488527  0.37978245  0.26825949  1  1.320742  0  0.68935  0.841311  0  2.326575  0
Zn  Zn1  1  0.77490616  0.12021638  0.23173926  1  1.320624  0  0.689317  0.841211  0  2.326501  0
Zn  Zn2  1  0.72511216  0.62022088  0.73173837  1  1.320577  0  0.689357  0.841369  0  2.326465  0
Zn  Zn3  1  0.22508932  0.87978635  0.76826231  1  1.320583  0  0.689377  0.841287  0  2.326488  0
Zn  Zn4  1  0.25380326  0.02060216  0.64009253  1  1.31989  0  0.694054  0.831086  0  2.331101  0
Zn  Zn5  1  0.75380674  0.47940032  0.85990907  1  1.319712  0  0.694043  0.831089  0  2.331146  0
Zn  Zn6  1  0.74619124  0.97939691  0.35991108  1  1.319763  0  0.693998  0.830991  0  2.331137  0
Zn  Zn7  1  0.24619556  0.52060302  0.14009209  1  1.319639  0  0.694068  0.831095  0  2.331027  0
H  H8  1  0.10653268  0.00741595  0.85517270  1  0.142303  0  0.123542  0.107061  0  0.980232  0
H  H9  1  0.60656235  0.49258594  0.64483898  1  0.142826  0  0.123575  0.107109  0  0.980305  0
H  H10  1  0.89346280  0.99258067  0.14483088  1  0.1425  0  0.123537  0.107047  0  0.980241  0
H  H11  1  0.39342826  0.50740884  0.35516294  1  0.142896  0  0.123565  0.10705  0  0.980204  0
H  H12  1  0.48447357  0.93398295  0.82391764  1  0.130154  0  0.113748  0.082972  0  1.05595  0
H  H13  1  0.98449486  0.56602106  0.67607474  1  0.155221  0  0.11372  0.083002  0  1.055945  0
H  H14  1  0.51552679  0.06601794  0.17608144  1  0.130098  0  0.113749  0.082982  0  1.05596  0
H  H15  1  0.01548892  0.43396822  0.32392796  1  0.154927  0  0.113798  0.083234  0  1.056081  0
H  H16  1  0.55748412  0.36380088  0.00687407  1  0.101078  0  0.107023  0.110338  0  1.045241  0
H  H17  1  0.05747293  0.13620560  0.49311980  1  0.101135  0  0.107025  0.110244  0  1.045302  0
H  H18  1  0.44253475  0.63621712  0.99312059  1  0.100905  0  0.106985  0.110251  0  1.045361  0
H  H19  1  0.94252742  0.86380934  0.50687154  1  0.101254  0  0.107004  0.110267  0  1.045378  0
H  H20  1  0.62114349  0.40373479  0.28529606  1  0.160691  0  0.10456  0.122953  0  1.0333  0
H  H21  1  0.12115346  0.09626525  0.21470541  1  0.160831  0  0.104573  0.122968  0  1.033246  0
H  H22  1  0.37886466  0.59626305  0.71470630  1  0.160899  0  0.104592  0.123016  0  1.033218  0
H  H23  1  0.87884300  0.90373015  0.78529817  1  0.160738  0  0.104582  0.123028  0  1.03328  0
H  H24  1  0.65678269  0.53517807  0.13303261  1  0.062487  0  0.098949  0.10195  0  1.027654  0
H  H25  1  0.15678674  0.96482759  0.36696485  1  0.062625  0  0.098989  0.101995  0  1.027674  0
H  H26  1  0.34320792  0.46482710  0.86696650  1  0.062614  0  0.098981  0.101988  0  1.027616  0
H  H27  1  0.84322238  0.03517575  0.63303424  1  0.062508  0  0.098965  0.101939  0  1.027722  0
H  H28  1  0.89698969  0.50633433  0.13088805  1  0.121906  0  0.107427  0.12244  0  1.022232  0
H  H29  1  0.39698713  0.99367355  0.36911042  1  0.122022  0  0.107382  0.122423  0  1.022247  0
H  H30  1  0.10300774  0.49367083  0.86910651  1  0.122028  0  0.107422  0.122404  0  1.022221  0
H  H31  1  0.60301517  0.00633346  0.63088870  1  0.121945  0  0.107434  0.122443  0  1.022329  0
H  H32  1  0.15294127  0.36102162  0.95466099  1  0.175078  0  0.108817  0.126716  0  1.0463  0
H  H33  1  0.65293816  0.13898106  0.54534365  1  0.17491  0  0.108777  0.126631  0  1.046377  0
H  H34  1  0.84707175  0.63898050  0.04534182  1  0.174831  0  0.108757  0.12658  0  1.04636  0
H  H35  1  0.34706901  0.86101006  0.45466196  1  0.174943  0  0.108783  0.12659  0  1.046381  0
H  H36  1  0.52439734  0.30597641  0.21910511  1  0.075213  0  0.119499  0.093052  0  1.000228  0
H  H37  1  0.02440781  0.19401650  0.28089682  1  0.075265  0  0.119559  0.093127  0  1.000216  0
H  H38  1  0.47560789  0.69402448  0.78089396  1  0.07525  0  0.119493  0.093034  0  1.000243  0
H  H39  1  0.97559254  0.80598746  0.71910600  1  0.075189  0  0.119551  0.093132  0  1.000189  0
H  H40  1  0.56863535  0.17994434  0.76938263  1  0.115506  0  0.110269  0.120453  0  1.005778  0
H  H41  1  0.06864307  0.32005614  0.73061371  1  0.115379  0  0.110241  0.120406  0  1.005738  0
H  H42  1  0.43137085  0.82006145  0.23061772  1  0.115577  0  0.110306  0.120506  0  1.00577  0
H  H43  1  0.93136898  0.67993742  0.26938903  1  0.115343  0  0.110317  0.120499  0  1.005719  0
H  H44  1  0.25145357  0.08865849  0.46297735  1  0.058322  0  0.099844  0.100655  0  1.009094  0
H  H45  1  0.75145686  0.41132740  0.03702152  1  0.05857  0  0.099861  0.100749  0  1.009002  0
H  H46  1  0.74852436  0.91132835  0.53702823  1  0.058564  0  0.099973  0.100786  0  1.009063  0
H  H47  1  0.24853959  0.58866675  0.96297378  1  0.058382  0  0.099886  0.10073  0  1.009029  0
H  H48  1  0.10871411  0.12516939  0.72732429  1  0.126655  0  0.116533  0.088928  0  1.010643  0
H  H49  1  0.60872593  0.37483983  0.77267917  1  0.126717  0  0.116543  0.08898  0  1.01068  0
H  H50  1  0.89128137  0.87483519  0.27268019  1  0.126967  0  0.116542  0.088883  0  1.010685  0
H  H51  1  0.39128806  0.62516043  0.22731618  1  0.126862  0  0.116537  0.088939  0  1.010633  0
H  H52  1  0.49729614  0.09965651  0.68575658  1  0.116468  0  0.116764  0.091368  0  1.037383  0
H  H53  1  0.99730798  0.40033964  0.81424057  1  0.116116  0  0.11674  0.091324  0  1.037319  0
H  H54  1  0.50269837  0.90034011  0.31424701  1  0.116262  0  0.116724  0.091322  0  1.037288  0
H  H55  1  0.00269432  0.59965820  0.18575889  1  0.116415  0  0.116742  0.091349  0  1.037349  0
H  H56  1  0.59921866  0.23030354  0.13554095  1  0.164054  0  0.111027  0.129822  0  1.034195  0
H  H57  1  0.09921872  0.26969212  0.36445987  1  0.16404  0  0.110999  0.129823  0  1.034279  0
H  H58  1  0.40078266  0.76969736  0.86445977  1  0.164051  0  0.110991  0.129811  0  1.034239  0
H  H59  1  0.90077188  0.73031000  0.63554211  1  0.163896  0  0.111039  0.129839  0  1.034263  0
H  H60  1  0.16247732  0.20766462  0.81218902  1  0.127501  0  0.112764  0.125187  0  0.990884  0
H  H61  1  0.66248492  0.29234603  0.68780980  1  0.127683  0  0.112827  0.125259  0  0.990842  0
H  H62  1  0.83753083  0.79234728  0.18781303  1  0.127699  0  0.112836  0.125239  0  0.990798  0
H  H63  1  0.33752907  0.70765301  0.31218595  1  0.127278  0  0.112807  0.125264  0  0.990855  0
H  H64  1  0.48597755  0.43735852  0.09190234  1  0.121543  0  0.114109  0.088052  0  1.03351  0
H  H65  1  0.98596407  0.06265037  0.40809693  1  0.121384  0  0.114121  0.088123  0  1.033584  0
H  H66  1  0.51404814  0.56265583  0.90809849  1  0.121284  0  0.114158  0.088199  0  1.033524  0
H  H67  1  0.01403043  0.93736579  0.59189483  1  0.121172  0  0.114134  0.088143  0  1.033593  0
H  H68  1  0.19328007  0.20530091  0.08865383  1  0.116424  0  0.10942  0.121637  0  1.035685  0
H  H69  1  0.69327778  0.29469881  0.41134736  1  0.116354  0  0.10941  0.121685  0  1.035594  0
H  H70  1  0.80671931  0.79469999  0.91134814  1  0.116298  0  0.109388  0.121618  0  1.035668  0
H  H71  1  0.30671477  0.70530452  0.58865256  1  0.11639  0  0.109429  0.121691  0  1.035657  0
H  H72  1  0.13653372  0.28379812  0.17377150  1  0.113297  0  0.118856  0.093574  0  1.008735  0
H  H73  1  0.63653216  0.21620137  0.32623023  1  0.113606  0  0.118889  0.093605  0  1.008808  0
H  H74  1  0.86347053  0.71620217  0.82623335  1  0.113362  0  0.118873  0.093579  0  1.008678  0
H  H75  1  0.36346234  0.78380197  0.67376763  1  0.1134  0  0.118849  0.093546  0  1.008816  0
H  H76  1  0.57101287  0.01111794  0.90467798  1  0.072993  0  0.10972  0.115472  0  0.993204  0
H  H77  1  0.07101894  0.48888313  0.59530967  1  0.073833  0  0.109687  0.115393  0  0.993232  0
H  H78  1  0.42899430  0.98887867  0.09532065  1  0.073086  0  0.109717  0.115478  0  0.993231  0
H  H79  1  0.92896289  0.51110492  0.40469344  1  0.073527  0  0.109704  0.115348  0  0.993216  0
H  H80  1  0.49986799  0.26263011  0.54654608  1  0.085445  0  0.101955  0.104403  0  1.001624  0
H  H81  1  0.99986673  0.23737091  0.95344489  1  0.085397  0  0.10191  0.104269  0  1.001684  0
H  H82  1  0.50013919  0.73736708  0.45344471  1  0.085624  0  0.101909  0.104285  0  1.001638  0
H  H83  1  0.00013752  0.76263425  0.04655298  1  0.08564  0  0.10192  0.104354  0  1.001597  0
H  H84  1  0.17692555  0.09239726  0.93777305  1  0.101036  0  0.115264  0.127803  0  0.986221  0
H  H85  1  0.67693721  0.40760248  0.56223752  1  0.101001  0  0.115266  0.127762  0  0.986205  0
H  H86  1  0.82307967  0.90760242  0.06223097  1  0.101542  0  0.1153  0.127803  0  0.986218  0
H  H87  1  0.32305339  0.59238436  0.43776599  1  0.101473  0  0.115354  0.127816  0  0.986347  0
H  H88  1  0.09844155  0.42847559  0.04465004  1  0.102918  0  0.1206  0.096883  0  0.983464  0
H  H89  1  0.59844808  0.07152927  0.45535788  1  0.103078  0  0.120582  0.096862  0  0.983547  0
H  H90  1  0.90156855  0.57152409  0.95535398  1  0.102823  0  0.120596  0.096823  0  0.98334  0
H  H91  1  0.40155324  0.92846430  0.54464610  1  0.102993  0  0.120646  0.096917  0  0.983588  0
H  H92  1  0.51428691  0.34421261  0.45932930  1  0.116322  0  0.101525  0.103221  0  1.013706  0
H  H93  1  0.01430288  0.15578389  0.04066037  1  0.116237  0  0.101462  0.103116  0  1.013749  0
H  H94  1  0.48569980  0.65577419  0.54066182  1  0.116036  0  0.101569  0.103152  0  1.013901  0
H  H95  1  0.98570332  0.84421454  0.95933538  1  0.116294  0  0.101506  0.103146  0  1.01378  0
H  H96  1  0.86040412  0.37138921  0.28145675  1  0.09707  0  0.099486  0.098322  0  1.044732  0
H  H97  1  0.36041522  0.12860999  0.21854406  1  0.09699  0  0.099447  0.098222  0  1.044913  0
H  H98  1  0.13960598  0.62861045  0.71854025  1  0.097012  0  0.099488  0.09829  0  1.044844  0
H  H99  1  0.63957538  0.87138908  0.78145830  1  0.0974  0  0.099414  0.098175  0  1.044906  0
H  H100  1  0.26793777  0.16986862  0.37644547  1  0.093651  0  0.101104  0.102887  0  1.031647  0
H  H101  1  0.76794336  0.33011919  0.12355533  1  0.093902  0  0.101117  0.102806  0  1.031577  0
H  H102  1  0.73203724  0.83011944  0.62355847  1  0.093852  0  0.101172  0.102846  0  1.031609  0
H  H103  1  0.23205602  0.66987130  0.87644078  1  0.093582  0  0.101109  0.102837  0  1.031635  0
H  H104  1  0.62998947  0.12243555  0.96080017  1  0.479558  0  0.358462  0.295567  0  0.88037  0
H  H105  1  0.12999922  0.37756334  0.53919351  1  0.479492  0  0.358421  0.295583  0  0.880349  0
H  H106  1  0.37000894  0.87756841  0.03920100  1  0.479616  0  0.358483  0.295627  0  0.880221  0
H  H107  1  0.86999626  0.62243327  0.46080636  1  0.479442  0  0.35842  0.295579  0  0.88032  0
H  H108  1  0.61087095  0.33710584  0.91940779  1  0.560415  0  0.315544  0.280385  0  1.001286  0
H  H109  1  0.11087513  0.16289112  0.58058315  1  0.560675  0  0.315529  0.280354  0  1.001258  0
H  H110  1  0.38913428  0.66289934  0.08059462  1  0.560465  0  0.315525  0.280381  0  1.001184  0
H  H111  1  0.88913009  0.83710609  0.41941176  1  0.56045  0  0.315546  0.280497  0  1.001196  0
C  C112  1  0.20853508  0.01150115  0.86753865  1  0.483731  0  0.055093  0.103351  0  3.920983  0
C  C113  1  0.70856341  0.48849749  0.63246955  1  0.48359  0  0.055102  0.103174  0  3.920787  0
C  C114  1  0.79146039  0.98849302  0.13246533  1  0.483766  0  0.055159  0.103341  0  3.920896  0
C  C115  1  0.29142427  0.51149118  0.36753521  1  0.483293  0  0.055071  0.10327  0  3.920786  0
C  C116  1  0.41975976  0.97021195  0.85005657  1  0.483204  0  0.046178  0.1007  0  3.945093  0
C  C117  1  0.91978496  0.52979607  0.64993646  1  0.458205  0  0.046184  0.10054  0  3.944843  0
C  C118  1  0.58024254  0.02978406  0.14994577  1  0.48337  0  0.046196  0.100688  0  3.944937  0
C  C119  1  0.08020077  0.47019748  0.35006297  1  0.458091  0  0.046034  0.100059  0  3.945654  0
C  C120  1  0.45473669  0.37812758  0.01268199  1  -0.035047  0  -0.085787  -0.170503  0  3.961008  0
C  C121  1  0.95472942  0.12187751  0.48731673  1  -0.0351  0  -0.085779  -0.170345  0  3.961024  0
C  C122  1  0.54528218  0.62188737  0.98731430  1  -0.035221  0  -0.085737  -0.170449  0  3.961169  0
C  C123  1  0.04527190  0.87813132  0.51267911  1  -0.035465  0  -0.085791  -0.170356  0  3.961231  0
C  C124  1  0.36086917  0.35584078  0.97317577  1  -0.05033  0  0.012208  0.061076  0  4.00804  0
C  C125  1  0.86086515  0.14417070  0.52682074  1  -0.049943  0  0.012144  0.060989  0  4.008315  0
C  C126  1  0.63914580  0.64417356  0.02682051  1  -0.04929  0  0.011965  0.060672  0  4.008547  0
C  C127  1  0.13914398  0.85583876  0.47317840  1  -0.049869  0  0.012004  0.060831  0  4.008505  0
C  C128  1  0.39980880  0.31386097  0.92231952  1  0.951888  0  0.221973  0.263497  0  4.022294  0
C  C129  1  0.89981132  0.18614639  0.57767783  1  0.951644  0  0.222043  0.26361  0  4.022403  0
C  C130  1  0.60019837  0.68615337  0.07767718  1  0.952505  0  0.222163  0.263882  0  4.022379  0
C  C131  1  0.10020268  0.81385144  0.42232246  1  0.952671  0  0.222296  0.263971  0  4.022386  0
C  C132  1  0.03582433  0.42064572  0.20453814  1  1.55264  0  0.22102  0.58849  0  4.180573  0
C  C133  1  0.53583067  0.07936007  0.29546047  1  1.5526  0  0.220983  0.588399  0  4.180657  0
C  C134  1  0.96417895  0.57935638  0.79545598  1  1.552184  0  0.220933  0.588238  0  4.180943  0
C  C135  1  0.46416774  0.92064938  0.70453702  1  1.552749  0  0.221086  0.588446  0  4.180609  0
C  C136  1  0.68248551  0.42568192  0.25163301  1  -0.022264  0  -0.084514  -0.097788  0  3.938967  0
C  C137  1  0.18250124  0.07431531  0.24836703  1  -0.022387  0  -0.084557  -0.097908  0  3.938846  0
C  C138  1  0.31751582  0.57431714  0.74836812  1  -0.022387  0  -0.084548  -0.097897  0  3.938878  0
C  C139  1  0.81750106  0.92568008  0.75163490  1  -0.022422  0  -0.084606  -0.098008  0  3.938735  0
C  C140  1  0.89229141  0.43705717  0.20610735  1  0.029526  0  -0.015947  -0.038996  0  3.964396  0
C  C141  1  0.39229583  0.06295195  0.29389324  1  0.029543  0  -0.015978  -0.039023  0  3.964519  0
C  C142  1  0.10770699  0.56294493  0.79388761  1  0.029491  0  -0.015867  -0.038874  0  3.964634  0
C  C143  1  0.60770647  0.93705445  0.70610670  1  0.029442  0  -0.015989  -0.038968  0  3.964344  0
C  C144  1  0.70287900  0.49999859  0.16556532  1  -0.038633  0  -0.087693  -0.093503  0  3.964825  0
C  C145  1  0.20288251  0.00000484  0.33443291  1  -0.038739  0  -0.087791  -0.093668  0  3.965025  0
C  C146  1  0.29711745  0.50000107  0.83443168  1  -0.038611  0  -0.087804  -0.093633  0  3.964792  0
C  C147  1  0.79712271  0.99999482  0.66556450  1  -0.03866  0  -0.087657  -0.093477  0  3.9649  0
C  C148  1  0.48132855  0.48272765  0.20737344  1  1.577433  0  0.218266  0.581782  0  4.201902  0
C  C149  1  0.98132947  0.01727694  0.29262626  1  1.577424  0  0.218435  0.582098  0  4.201549  0
C  C150  1  0.51868058  0.51727875  0.79262898  1  1.575545  0  0.218333  0.581818  0  4.201609  0
C  C151  1  0.01866796  0.98272580  0.70737655  1  1.57771  0  0.218447  0.582025  0  4.201909  0
C  C152  1  0.62574627  0.47069523  0.20891168  1  -0.103761  0  -0.019951  -0.044558  0  3.984776  0
C  C153  1  0.12575533  0.02930544  0.29109058  1  -0.103646  0  -0.020047  -0.044593  0  3.984894  0
C  C154  1  0.37425896  0.52930566  0.79108987  1  -0.10408  0  -0.020045  -0.044503  0  3.984713  0
C  C155  1  0.87424502  0.97069485  0.70891221  1  -0.103597  0  -0.020036  -0.044499  0  3.984683  0
C  C156  1  0.37042165  0.19908716  0.79807289  1  -0.049325  0  0.015715  0.078943  0  3.999069  0
C  C157  1  0.87043056  0.30092802  0.70192108  1  -0.049899  0  0.015728  0.07912  0  3.999149  0
C  C158  1  0.62957772  0.80092352  0.20192543  1  -0.049674  0  0.01565  0.078971  0  3.999347  0
C  C159  1  0.12957759  0.69907286  0.29807634  1  -0.0496  0  0.015614  0.079027  0  3.999315  0
C  C160  1  0.83571005  0.48370901  0.16418151  1  -0.064256  0  -0.082315  -0.095294  0  3.96131  0
C  C161  1  0.33571465  0.01629068  0.33581459  1  -0.064451  0  -0.082211  -0.09516  0  3.961232  0
C  C162  1  0.16428445  0.51628880  0.83581217  1  -0.064406  0  -0.082242  -0.095163  0  3.961225  0
C  C163  1  0.66428765  0.98371082  0.66418242  1  -0.064288  0  -0.082388  -0.095405  0  3.961466  0
C  C164  1  0.37996809  0.05963178  0.92792561  1  0.027476  0  0.008739  0.05158  0  4.039445  0
C  C165  1  0.87998544  0.44037182  0.57207148  1  0.026798  0  0.008481  0.051334  0  4.039836  0
C  C166  1  0.62003323  0.94036850  0.07207428  1  0.027334  0  0.008793  0.051711  0  4.039381  0
C  C167  1  0.12000614  0.55961257  0.42793284  1  0.026261  0  0.008519  0.051348  0  4.039567  0
C  C168  1  0.40160580  0.21440368  0.10348584  1  -0.069169  0  0.013352  0.062123  0  3.995707  0
C  C169  1  0.90159933  0.28559140  0.39651414  1  -0.069488  0  0.0133  0.061933  0  3.995855  0
C  C170  1  0.59839747  0.78559722  0.89651737  1  -0.068942  0  0.013396  0.062097  0  3.995796  0
C  C171  1  0.09839517  0.71440949  0.60348659  1  -0.069458  0  0.013408  0.062131  0  3.995779  0
C  C172  1  0.22998231  0.37477068  0.98442102  1  -0.023169  0  -0.074753  -0.14907  0  3.889774  0
C  C173  1  0.72997965  0.12523233  0.51558371  1  -0.023272  0  -0.074777  -0.149011  0  3.890007  0
C  C174  1  0.77003266  0.62523695  0.01558224  1  -0.02345  0  -0.074673  -0.148835  0  3.890155  0
C  C175  1  0.27003142  0.87476429  0.48441864  1  -0.023906  0  -0.074729  -0.148934  0  3.890268  0
C  C176  1  0.45414281  0.28435814  0.18849264  1  0.518166  0  0.046826  0.098551  0  3.936993  0
C  C177  1  0.95415372  0.21563960  0.31150645  1  0.518011  0  0.046784  0.098479  0  3.936831  0
C  C178  1  0.54585656  0.71564336  0.81150810  1  0.518436  0  0.046846  0.098623  0  3.936816  0
C  C179  1  0.04584371  0.78436496  0.68849307  1  0.518174  0  0.046808  0.098364  0  3.936935  0
C  C180  1  0.46563181  0.16863482  0.76153032  1  0.003884  0  -0.082932  -0.166626  0  3.933182  0
C  C181  1  0.96563814  0.33136914  0.73846761  1  0.004415  0  -0.08295  -0.166742  0  3.933462  0
C  C182  1  0.53437049  0.83136914  0.23847167  1  0.00405  0  -0.08295  -0.166748  0  3.933477  0
C  C183  1  0.03436904  0.66862870  0.26153516  1  0.004214  0  -0.082932  -0.166656  0  3.93316  0
C  C184  1  0.30729492  0.14541957  0.46231825  1  -0.015734  0  -0.092918  -0.114808  0  3.997459  0
C  C185  1  0.80728487  0.35456594  0.03768009  1  -0.015632  0  -0.093027  -0.11507  0  3.997545  0
C  C186  1  0.69269276  0.85456726  0.53768485  1  -0.015365  0  -0.093085  -0.115015  0  3.997495  0
C  C187  1  0.19270086  0.64542271  0.96231848  1  -0.015628  0  -0.092978  -0.114915  0  3.997439  0
C  C188  1  0.20936183  0.13794417  0.73846127  1  0.482594  0  0.047877  0.104876  0  3.95928  0
C  C189  1  0.70937312  0.36206119  0.76153995  1  0.48249  0  0.047934  0.104832  0  3.959316  0
C  C190  1  0.79063658  0.86205551  0.26154234  1  0.482409  0  0.047896  0.104984  0  3.959094  0
C  C191  1  0.29064185  0.63793603  0.23845661  1  0.48271  0  0.048053  0.10512  0  3.958877  0
C  C192  1  0.42696522  0.12354493  0.71549215  1  0.465732  0  0.043254  0.095517  0  3.941878  0
C  C193  1  0.92697838  0.37645031  0.78450691  1  0.465628  0  0.043307  0.095696  0  3.94216  0
C  C194  1  0.57303416  0.87645536  0.28450981  1  0.46578  0  0.043329  0.095672  0  3.942017  0
C  C195  1  0.07303270  0.62354568  0.21549007  1  0.465783  0  0.043268  0.095568  0  3.941839  0
C  C196  1  0.42425451  0.10683265  0.97589600  1  0.96791  0  0.224547  0.266187  0  4.052727  0
C  C197  1  0.92426804  0.39316809  0.52410395  1  0.968315  0  0.224633  0.266211  0  4.052683  0
C  C198  1  0.57574194  0.89316825  0.02410473  1  0.967845  0  0.224554  0.266074  0  4.052946  0
C  C199  1  0.07572842  0.60682548  0.47590126  1  0.968686  0  0.224693  0.2661  0  4.052799  0
C  C200  1  0.39795915  0.31247122  0.36182293  1  1.56928  0  0.195943  0.561331  0  4.237192  0
C  C201  1  0.89798284  0.18752262  0.13817543  1  1.568559  0  0.195854  0.561311  0  4.23621  0
C  C202  1  0.60201684  0.68751071  0.63817642  1  1.568804  0  0.196235  0.561537  0  4.236349  0
C  C203  1  0.10202628  0.81247581  0.86182115  1  1.568757  0  0.19594  0.561276  0  4.236328  0
C  C204  1  0.36194896  0.12333838  0.56176518  1  1.551885  0  0.205675  0.570938  0  4.21628  0
C  C205  1  0.86194032  0.37666700  0.93823706  1  1.551919  0  0.205587  0.570918  0  4.216151  0
C  C206  1  0.63805821  0.87666559  0.43824218  1  1.552472  0  0.205612  0.570846  0  4.216416  0
C  C207  1  0.13804639  0.62333634  0.06176286  1  1.552196  0  0.205589  0.570908  0  4.216501  0
C  C208  1  0.39090684  0.26199770  0.41314572  1  -0.061925  0  -0.018983  -0.029448  0  3.966657  0
C  C209  1  0.89093479  0.23799854  0.08684776  1  -0.062442  0  -0.01933  -0.02985  0  3.966601  0
C  C210  1  0.60906427  0.73798789  0.58685034  1  -0.062803  0  -0.019378  -0.029894  0  3.966994  0
C  C211  1  0.10907921  0.76200112  0.91314924  1  -0.062038  0  -0.019149  -0.029644  0  3.966523  0
C  C212  1  0.49552580  0.24200072  0.14158917  1  -0.03941  0  -0.078394  -0.161459  0  3.913834  0
C  C213  1  0.99552982  0.25799720  0.35841075  1  -0.038967  0  -0.078406  -0.16148  0  3.913733  0
C  C214  1  0.50447455  0.75800079  0.85841321  1  -0.039697  0  -0.078385  -0.161467  0  3.913783  0
C  C215  1  0.00446469  0.74200553  0.64158958  1  -0.039002  0  -0.078478  -0.161456  0  3.91382  0
C  C216  1  0.37172349  0.17222601  0.51029336  1  -0.097082  0  -0.019697  -0.029907  0  4.004208  0
C  C217  1  0.87171644  0.32776656  0.98970621  1  -0.097134  0  -0.019649  -0.029867  0  4.004256  0
C  C218  1  0.62827004  0.82776878  0.48970980  1  -0.097209  0  -0.019636  -0.029805  0  4.004222  0
C  C219  1  0.12827612  0.67223066  0.01029242  1  -0.097073  0  -0.019651  -0.029858  0  4.004347  0
C  C220  1  0.40752482  0.24575034  0.84731187  1  0.985568  0  0.204111  0.239075  0  4.087467  0
C  C221  1  0.90753192  0.25425767  0.65268623  1  0.984652  0  0.204117  0.238992  0  4.087744  0
C  C222  1  0.59247553  0.75425912  0.15268892  1  0.985143  0  0.204183  0.239145  0  4.087536  0
C  C223  1  0.09247428  0.74574261  0.34731408  1  0.985132  0  0.20413  0.239111  0  4.08746  0
C  C224  1  0.23932764  0.18404819  0.78534342  1  -0.052719  0  -0.081416  -0.165796  0  3.934234  0
C  C225  1  0.73933701  0.31595974  0.71465754  1  -0.052213  0  -0.081504  -0.165927  0  3.934298  0
C  C226  1  0.76066686  0.81595638  0.21465858  1  -0.052473  0  -0.081441  -0.165852  0  3.934377  0
C  C227  1  0.26067212  0.68403810  0.28534441  1  -0.052281  0  -0.081523  -0.166119  0  3.934374  0
C  C228  1  0.41559050  0.41810700  0.06071004  1  0.497567  0  0.039786  0.091157  0  3.954247  0
C  C229  1  0.91558533  0.08189916  0.43928989  1  0.497335  0  0.039779  0.091058  0  3.954421  0
C  C230  1  0.58443129  0.58190796  0.93928831  1  0.497666  0  0.0399  0.091234  0  3.954162  0
C  C231  1  0.08441502  0.91811273  0.56070556  1  0.497991  0  0.039813  0.090989  0  3.954375  0
C  C232  1  0.43841681  0.17331464  0.05184254  1  0.979852  0  0.213804  0.250767  0  4.060815  0
C  C233  1  0.93841585  0.32668426  0.44815670  1  0.980048  0  0.213753  0.250635  0  4.061064  0
C  C234  1  0.56158647  0.82668870  0.94815862  1  0.980228  0  0.213628  0.250492  0  4.060936  0
C  C235  1  0.06157768  0.67331296  0.55184524  1  0.98014  0  0.213792  0.250676  0  4.061002  0
C  C236  1  0.26996937  0.22777493  0.11587938  1  0.030309  0  -0.075713  -0.145809  0  3.901971  0
C  C237  1  0.76996341  0.27222816  0.38411861  1  0.030169  0  -0.075588  -0.145624  0  3.902014  0
C  C238  1  0.73003001  0.77222536  0.88412382  1  0.030341  0  -0.07564  -0.145696  0  3.902128  0
C  C239  1  0.23002915  0.72777701  0.61588008  1  0.030512  0  -0.07576  -0.145879  0  3.90229  0
C  C240  1  0.23781929  0.27153884  0.16349801  1  0.458387  0  0.051508  0.110621  0  3.929662  0
C  C241  1  0.73781732  0.22845983  0.33649903  1  0.458434  0  0.05146  0.110562  0  3.929774  0
C  C242  1  0.76218203  0.72846083  0.83650353  1  0.458447  0  0.051494  0.110648  0  3.929788  0
C  C243  1  0.26217718  0.77154595  0.66349885  1  0.458451  0  0.051439  0.110508  0  3.92977  0
C  C244  1  0.46729602  0.01447871  0.89508492  1  -0.062777  0  -0.088379  -0.175978  0  3.963894  0
C  C245  1  0.96730336  0.48552769  0.60490763  1  -0.063658  0  -0.088231  -0.175714  0  3.964066  0
C  C246  1  0.53270726  0.98552096  0.10491621  1  -0.062902  0  -0.088388  -0.175996  0  3.963824  0
C  C247  1  0.03268238  0.51445547  0.39509667  1  -0.063309  0  -0.088259  -0.175495  0  3.963844  0
C  C248  1  0.44790406  0.24333412  0.50926030  1  -0.082459  0  -0.09355  -0.119903  0  4.013277  0
C  C249  1  0.94789812  0.25665875  0.99073276  1  -0.082667  0  -0.093465  -0.119709  0  4.013409  0
C  C250  1  0.55208947  0.75666003  0.49073542  1  -0.082493  0  -0.093483  -0.119753  0  4.013131  0
C  C251  1  0.05209736  0.74334091  0.00926342  1  -0.083105  0  -0.093565  -0.119914  0  4.013276  0
C  C252  1  0.24753112  0.05759871  0.91344541  1  0.011956  0  -0.073196  -0.14729  0  3.909138  0
C  C253  1  0.74754870  0.44240803  0.58655587  1  0.012452  0  -0.073142  -0.147123  0  3.908829  0
C  C254  1  0.75246436  0.94239669  0.08655817  1  0.011241  0  -0.073286  -0.147338  0  3.909227  0
C  C255  1  0.25244191  0.55758492  0.41344645  1  0.0126  0  -0.073203  -0.147112  0  3.909203  0
C  C256  1  0.19936551  0.41376373  0.03425015  1  0.49438  0  0.051729  0.101941  0  3.910821  0
C  C257  1  0.69936971  0.08623787  0.46575595  1  0.494689  0  0.051908  0.102154  0  3.911408  0
C  C258  1  0.80064556  0.58623779  0.96575636  1  0.494743  0  0.051832  0.10219  0  3.911158  0
C  C259  1  0.30063942  0.91375875  0.53424598  1  0.494821  0  0.05183  0.102077  0  3.911402  0
C  C260  1  0.45670090  0.28819995  0.46095546  1  -0.028303  0  -0.088239  -0.102134  0  3.999162  0
C  C261  1  0.95670771  0.21178983  0.03903404  1  -0.027761  0  -0.088039  -0.1019  0  3.998941  0
C  C262  1  0.54328873  0.71178564  0.53903937  1  -0.027837  0  -0.08819  -0.101996  0  3.999179  0
C  C263  1  0.04329459  0.78820798  0.96095923  1  -0.027943  0  -0.088154  -0.101961  0  3.999159  0
C  C264  1  0.81526004  0.40843583  0.24966553  1  -0.07053  0  -0.082841  -0.083894  0  3.950535  0
C  C265  1  0.31527391  0.09156684  0.25033368  1  -0.070474  0  -0.08274  -0.083689  0  3.95055  0
C  C266  1  0.18473934  0.59156505  0.75033231  1  -0.070546  0  -0.082882  -0.083959  0  3.950825  0
C  C267  1  0.68472546  0.90842977  0.74966536  1  -0.070853  0  -0.082668  -0.083633  0  3.950447  0
C  C268  1  0.31714146  0.19004508  0.41403715  1  -0.017133  0  -0.085624  -0.089049  0  3.985622  0
C  C269  1  0.81715272  0.30994293  0.08596193  1  -0.017274  0  -0.085527  -0.088697  0  3.985441  0
C  C270  1  0.68283063  0.80994053  0.58596594  1  -0.017321  0  -0.085574  -0.088791  0  3.985566  0
C  C271  1  0.18284861  0.69004756  0.91403582  1  -0.017056  0  -0.085605  -0.088921  0  3.985364  0
N  N272  1  0.32775888  0.30121642  0.19893034  1  -1.243307  0  -0.320438  -0.250087  0  3.523829  0
N  N273  1  0.82776820  0.19878081  0.30107161  1  -1.243584  0  -0.320435  -0.250105  0  3.523841  0
N  N274  1  0.67224245  0.69878570  0.80107122  1  -1.243507  0  -0.320464  -0.250232  0  3.523919  0
N  N275  1  0.17222923  0.80122436  0.69892709  1  -1.243623  0  -0.320347  -0.249839  0  3.523542  0
N  N276  1  0.35120910  0.13415584  0.01780365  1  -1.12292  0  -0.325916  -0.408195  0  3.150449  0
N  N277  1  0.85121457  0.36584883  0.48219813  1  -1.123277  0  -0.32588  -0.40813  0  3.150455  0
N  N278  1  0.64879223  0.86584384  0.98219996  1  -1.12304  0  -0.325811  -0.407977  0  3.150339  0
N  N279  1  0.14878091  0.63414229  0.51780624  1  -1.123303  0  -0.325927  -0.408119  0  3.150599  0
N  N280  1  0.56171919  0.17218470  0.03304514  1  -0.627087  0  -0.209209  -0.22069  0  3.090366  0
N  N281  1  0.06171835  0.32781385  0.46695152  1  -0.627198  0  -0.209201  -0.220597  0  3.090341  0
N  N282  1  0.43828604  0.82781986  0.96695438  1  -0.627077  0  -0.209125  -0.220543  0  3.090383  0
N  N283  1  0.93827323  0.67218827  0.53305169  1  -0.627245  0  -0.20923  -0.220679  0  3.090129  0
N  N284  1  0.55049000  0.12959742  0.98535790  1  -0.783549  0  -0.260758  -0.1562  0  3.703489  0
N  N285  1  0.05049610  0.37039931  0.51463982  1  -0.783523  0  -0.260748  -0.156247  0  3.703224  0
N  N286  1  0.44951231  0.87040164  0.01464364  1  -0.783806  0  -0.260818  -0.156267  0  3.703387  0
N  N287  1  0.94949743  0.62959976  0.48536337  1  -0.783586  0  -0.260763  -0.156169  0  3.703102  0
N  N288  1  0.29294070  0.96828785  0.83602869  1  -1.222644  0  -0.305001  -0.222498  0  3.437045  0
N  N289  1  0.79296323  0.53171601  0.66397710  1  -1.222811  0  -0.305017  -0.222311  0  3.436461  0
N  N290  1  0.70706063  0.03171306  0.16397493  1  -1.222673  0  -0.305086  -0.222519  0  3.436834  0
N  N291  1  0.20702055  0.46827633  0.33602728  1  -1.222632  0  -0.304947  -0.222229  0  3.436702  0
N  N292  1  0.30090427  0.10668068  0.70444135  1  -1.244306  0  -0.322767  -0.23959  0  3.525288  0
N  N293  1  0.80091899  0.39332687  0.79555612  1  -1.243944  0  -0.322823  -0.23971  0  3.525586  0
N  N294  1  0.69909315  0.89332633  0.29556025  1  -1.24441  0  -0.322842  -0.239709  0  3.525363  0
N  N295  1  0.19909404  0.60667706  0.20443885  1  -1.244449  0  -0.322843  -0.239771  0  3.525619  0
N  N296  1  0.32223076  0.27506087  0.88603492  1  -1.163001  0  -0.32904  -0.409188  0  3.146994  0
N  N297  1  0.82223374  0.22494006  0.61396725  1  -1.162798  0  -0.329032  -0.409154  0  3.147078  0
N  N298  1  0.67777544  0.72494676  0.11396751  1  -1.163147  0  -0.329088  -0.409296  0  3.146954  0
N  N299  1  0.17777636  0.77505166  0.38603423  1  -1.163206  0  -0.329142  -0.409324  0  3.147101  0
N  N300  1  0.53306142  0.26442477  0.85781159  1  -0.617152  0  -0.223426  -0.250884  0  3.126731  0
N  N301  1  0.03306510  0.23557616  0.64218345  1  -0.61676  0  -0.223437  -0.250925  0  3.126648  0
N  N302  1  0.46694575  0.73558101  0.14218670  1  -0.617028  0  -0.223473  -0.250975  0  3.126879  0
N  N303  1  0.96694402  0.76442167  0.35781561  1  -0.616898  0  -0.223439  -0.250925  0  3.126721  0
N  N304  1  0.52619199  0.30710159  0.90536012  1  -0.810568  0  -0.256135  -0.136774  0  3.660313  0
N  N305  1  0.02619772  0.19289809  0.59463414  1  -0.810556  0  -0.256108  -0.136746  0  3.660148  0
N  N306  1  0.47381324  0.69290663  0.09463571  1  -0.810976  0  -0.256129  -0.136815  0  3.660499  0
N  N307  1  0.97381336  0.80709852  0.40536655  1  -0.811223  0  -0.25618  -0.137086  0  3.66036  0
N  N308  1  0.29006815  0.43571377  0.07192808  1  -1.224007  0  -0.317826  -0.230386  0  3.499339  0
N  N309  1  0.79006240  0.06429981  0.42807270  1  -1.224278  0  -0.317948  -0.230566  0  3.499848  0
N  N310  1  0.70995072  0.56429691  0.92807355  1  -1.2243  0  -0.317983  -0.230668  0  3.499667  0
N  N311  1  0.20993990  0.93571024  0.57192190  1  -1.223997  0  -0.317949  -0.23046  0  3.499651  0
O  O312  1  0.30665514  0.29693518  0.32583174  1  -1.17065  0  -0.338389  -0.56812  0  2.326193  0
O  O313  1  0.80666832  0.20306071  0.17416131  1  -1.170382  0  -0.338306  -0.568014  0  2.325954  0
O  O314  1  0.69332280  0.70305591  0.67416313  1  -1.170224  0  -0.33842  -0.568131  0  2.326064  0
O  O315  1  0.19333398  0.79693588  0.82583319  1  -1.17065  0  -0.338353  -0.568017  0  2.326182  0
O  O316  1  0.48557245  0.36505152  0.35712352  1  -1.174998  0  -0.326464  -0.556938  0  2.136457  0
O  O317  1  0.98560115  0.13494145  0.14286944  1  -1.174618  0  -0.326402  -0.55693  0  2.135785  0
O  O318  1  0.51440159  0.63493225  0.64287749  1  -1.174681  0  -0.326601  -0.556991  0  2.135851  0
O  O319  1  0.01439725  0.86505270  0.85712504  1  -1.174485  0  -0.326452  -0.556936  0  2.13588  0
O  O320  1  0.46212634  0.09993848  0.58618452  1  -1.16765  0  -0.304847  -0.529025  0  2.14535  0
O  O321  1  0.96212315  0.40006731  0.91381634  1  -1.167487  0  -0.304766  -0.529068  0  2.145283  0
O  O322  1  0.53788961  0.90007036  0.41381585  1  -1.167978  0  -0.304844  -0.529045  0  2.145538  0
O  O323  1  0.03786940  0.59993297  0.08618397  1  -1.167844  0  -0.30473  -0.528976  0  2.145466  0
O  O324  1  0.24404908  0.10565969  0.57772646  1  -1.181866  0  -0.324801  -0.572547  0  2.370227  0
O  O325  1  0.74403660  0.39433908  0.92227644  1  -1.181935  0  -0.324737  -0.572412  0  2.369991  0
O  O326  1  0.75596297  0.89433817  0.42228416  1  -1.182016  0  -0.324686  -0.572396  0  2.369975  0
O  O327  1  0.25594913  0.60566608  0.07772101  1  -1.181677  0  -0.324805  -0.572576  0  2.370116  0
O  O328  1  0.08437849  0.38193637  0.24516069  1  -1.179549  0  -0.308055  -0.542186  0  2.3899  0
O  O329  1  0.58439034  0.11806717  0.25483662  1  -1.179881  0  -0.308048  -0.542098  0  2.389774  0
O  O330  1  0.91562673  0.61806940  0.75483430  1  -1.179486  0  -0.308033  -0.542048  0  2.389809  0
O  O331  1  0.41559832  0.88194472  0.74516006  1  -1.179567  0  -0.30811  -0.542105  0  2.389943  0
O  O332  1  0.09955058  0.44557798  0.16308588  1  -1.202194  0  -0.320075  -0.576119  0  2.448771  0
O  O333  1  0.59955444  0.05442073  0.33690876  1  -1.201982  0  -0.320054  -0.576052  0  2.448717  0
O  O334  1  0.90044295  0.55442350  0.83690370  1  -1.201831  0  -0.32004  -0.576006  0  2.448689  0
O  O335  1  0.40045273  0.94558259  0.66308413  1  -1.202375  0  -0.320094  -0.576125  0  2.448757  0
O  O336  1  0.41419784  0.46171503  0.24883336  1  -1.200225  0  -0.319387  -0.573064  0  2.454841  0
O  O337  1  0.91421679  0.03828193  0.25116238  1  -1.200137  0  -0.3193  -0.572928  0  2.454738  0
O  O338  1  0.58580251  0.53828526  0.75116736  1  -1.200323  0  -0.319335  -0.57295  0  2.454847  0
O  O339  1  0.08578259  0.96172142  0.74884332  1  -1.200265  0  -0.319353  -0.573047  0  2.454916  0
O  O340  1  0.43537385  0.51373580  0.16328658  1  -1.182321  0  -0.31244  -0.542724  0  2.395527  0
O  O341  1  0.93536792  0.98626736  0.33671438  1  -1.182289  0  -0.312569  -0.543041  0  2.395445  0
O  O342  1  0.56463918  0.48626816  0.83671665  1  -1.180121  0  -0.312476  -0.542883  0  2.395407  0
O  O343  1  0.06463146  0.01372743  0.66328878  1  -1.182443  0  -0.31255  -0.54298  0  2.395716  0
