# generated using pymatgen
data_AgH15C9SN2O3
_symmetry_space_group_name_H-M   'P 1'
_cell_length_a   7.14321543
_cell_length_b   8.11916047
_cell_length_c   11.36871400
_cell_angle_alpha   107.58779107
_cell_angle_beta   99.27569995
_cell_angle_gamma   101.25730992
_symmetry_Int_Tables_number   1
_chemical_formula_structural   AgH15C9SN2O3
_chemical_formula_sum   'Ag2 H30 C18 S2 N4 O6'
_cell_volume   599.09862459
_cell_formula_units_Z   2
loop_
 _symmetry_equiv_pos_site_id
 _symmetry_equiv_pos_as_xyz
  1  'x, y, z'
loop_
 _atom_site_type_symbol
 _atom_site_label
 _atom_site_symmetry_multiplicity
 _atom_site_fract_x
 _atom_site_fract_y
 _atom_site_fract_z
 _atom_site_occupancy
 _atom_site_hle17_bader_spin_density
 _atom_site_hle17_ddec_charge
 _atom_site_hle17_ddec_spin_density
 _atom_site_hle17_ddec_sum_bond_order
 _atom_site_hle17_magmom
 _atom_site_hse06_10hf_bader_spin_density
 _atom_site_hse06_10hf_ddec_charge
 _atom_site_hse06_10hf_ddec_spin_density
 _atom_site_hse06_10hf_ddec_sum_bond_order
 _atom_site_hse06_10hf_magmom
 _atom_site_hse06_bader_spin_density
 _atom_site_hse06_ddec_charge
 _atom_site_hse06_ddec_spin_density
 _atom_site_hse06_ddec_sum_bond_order
 _atom_site_hse06_magmom
 _atom_site_pbe_bader_spin_density
 _atom_site_pbe_cm5_charge
 _atom_site_pbe_ddec_charge
 _atom_site_pbe_ddec_spin_density
 _atom_site_pbe_ddec_sum_bond_order
 _atom_site_pbe_magmom
Ag  Ag0  1  0.98009960  0.81414138  0.56770257  1  0  0.562912  0  1.384505  0  0  0.420377  0  1.828091  0  0  0.448999  0  1.779244  0  0  0.496473  0.40108  0  1.862043  0
Ag  Ag1  1  0.01990362  0.18585517  0.43230079  1  0  0.562884  0  1.384494  0  0  0.420336  0  1.828114  0  0  0.448945  0  1.779267  0  0  0.496452  0.401039  0  1.862062  0
H  H2  1  0.56921208  0.59497830  0.40935046  1  0  0.097997  0  0.976683  0  0  0.104027  0  1.043609  0  0  0.106726  0  1.042056  0  0  0.119128  0.102019  0  1.044869  0
H  H3  1  0.43079408  0.40502365  0.59065177  1  0  0.098044  0  0.976671  0  0  0.104063  0  1.04359  0  0  0.106766  0  1.042038  0  0  0.119143  0.102055  0  1.044852  0
H  H4  1  0.75150852  0.21436664  0.80125257  1  0  0.073228  0  0.954917  0  0  0.093575  0  1.012122  0  0  0.094044  0  1.012667  0  0  0.09481  0.093185  0  1.011782  0
H  H5  1  0.24848814  0.78563663  0.19874453  1  0  0.073209  0  0.954963  0  0  0.09356  0  1.012154  0  0  0.094031  0  1.012694  0  0  0.094798  0.093172  0  1.011815  0
H  H6  1  0.91886482  0.13343446  0.71606731  1  0  0.084615  0  0.968606  0  0  0.098997  0  1.041682  0  0  0.100797  0  1.039398  0  0  0.092748  0.097596  0  1.043392  0
H  H7  1  0.08113605  0.86656881  0.28393289  1  0  0.084619  0  0.968571  0  0  0.098977  0  1.04167  0  0  0.100775  0  1.039389  0  0  0.092732  0.097579  0  1.04338  0
H  H8  1  0.21514528  0.59788557  0.40475714  1  0  0.104138  0  0.960882  0  0  0.110717  0  1.026574  0  0  0.11371  0  1.024152  0  0  0.120734  0.108471  0  1.028547  0
H  H9  1  0.78485268  0.40210702  0.59523864  1  0  0.104136  0  0.960986  0  0  0.110751  0  1.026633  0  0  0.113744  0  1.02421  0  0  0.120753  0.108505  0  1.028606  0
H  H10  1  0.23018629  0.11308025  0.69880103  1  0  0.072536  0  0.98709  0  0  0.086131  0  1.064745  0  0  0.088472  0  1.060824  0  0  0.087747  0.084274  0  1.06773  0
H  H11  1  0.76981211  0.88691902  0.30119539  1  0  0.072492  0  0.987071  0  0  0.086083  0  1.064737  0  0  0.088423  0  1.060816  0  0  0.087725  0.084224  0  1.067723  0
H  H12  1  0.47438252  0.24029735  0.75690881  1  0  0.080883  0  0.937706  0  0  0.099964  0  0.992919  0  0  0.100419  0  0.993588  0  0  0.097086  0.099586  0  0.992519  0
H  H13  1  0.52561409  0.75970057  0.24308711  1  0  0.080862  0  0.937686  0  0  0.09991  0  0.992937  0  0  0.100364  0  0.993609  0  0  0.097073  0.099533  0  0.992537  0
H  H14  1  0.98241015  0.12302323  0.94054540  1  0  0.099368  0  0.955168  0  0  0.125195  0  1.009435  0  0  0.125367  0  1.011496  0  0  0.089909  0.125003  0  1.008057  0
H  H15  1  0.01758824  0.87698134  0.05945569  1  0  0.099403  0  0.955184  0  0  0.125234  0  1.009438  0  0  0.125406  0  1.011498  0  0  0.089928  0.125041  0  1.00806  0
H  H16  1  0.93340758  0.90679630  0.82388308  1  0  0.112188  0  0.981783  0  0  0.131266  0  1.047301  0  0  0.133504  0  1.046049  0  0  0.085833  0.129538  0  1.048351  0
H  H17  1  0.06658905  0.09320694  0.17611577  1  0  0.112232  0  0.981824  0  0  0.131304  0  1.047347  0  0  0.133543  0  1.046098  0  0  0.085842  0.129576  0  1.048396  0
H  H18  1  0.74840003  0.96804150  0.90082266  1  0  0.103882  0  0.962186  0  0  0.126074  0  1.021105  0  0  0.127403  0  1.021559  0  0  0.089031  0.125071  0  1.020866  0
H  H19  1  0.25159802  0.03196175  0.09917635  1  0  0.103921  0  0.962185  0  0  0.126108  0  1.021105  0  0  0.127439  0  1.021557  0  0  0.08904  0.125104  0  1.020867  0
H  H20  1  0.32221351  0.19122157  0.93235538  1  0  0.094356  0  0.956998  0  0  0.118178  0  1.014461  0  0  0.118918  0  1.015255  0  0  0.087842  0.117566  0  1.013989  0
H  H21  1  0.67778350  0.80878302  0.06764293  1  0  0.094376  0  0.957056  0  0  0.118201  0  1.014498  0  0  0.118943  0  1.015282  0  0  0.087846  0.117585  0  1.014034  0
H  H22  1  0.52350910  0.09463559  0.92334694  1  0  0.090935  0  0.985376  0  0  0.112894  0  1.047212  0  0  0.113726  0  1.048233  0  0  0.085483  0.11226  0  1.046534  0
H  H23  1  0.47648720  0.90536634  0.07664982  1  0  0.090958  0  0.985268  0  0  0.112909  0  1.047125  0  0  0.113742  0  1.048143  0  0  0.085494  0.112275  0  1.046448  0
H  H24  1  0.28119705  0.95561619  0.85917506  1  0  0.107542  0  0.97467  0  0  0.125261  0  1.041978  0  0  0.126986  0  1.041935  0  0  0.088954  0.123938  0  1.042119  0
H  H25  1  0.71880062  0.04438572  0.14082449  1  0  0.107578  0  0.974602  0  0  0.125283  0  1.041924  0  0  0.126999  0  1.041888  0  0  0.088974  0.123961  0  1.042065  0
H  H26  1  0.30391992  0.46637330  0.92823948  1  0  0.15007  0  0.940949  0  0  0.170387  0  0.994075  0  0  0.173091  0  0.992878  0  0  0.103894  0.168453  0  0.994962  0
H  H27  1  0.69608361  0.53362986  0.07177065  1  0  0.150087  0  0.94095  0  0  0.170388  0  0.994102  0  0  0.173093  0  0.992905  0  0  0.10388  0.168453  0  0.994987  0
H  H28  1  0.23139765  0.67187935  0.97705382  1  0  0.144951  0  0.968062  0  0  0.163041  0  1.028446  0  0  0.165499  0  1.027908  0  0  0.101945  0.16126  0  1.028915  0
H  H29  1  0.76859357  0.32811982  0.02294532  1  0  0.144946  0  0.968033  0  0  0.163035  0  1.028409  0  0  0.165498  0  1.027872  0  0  0.101944  0.161255  0  1.028878  0
H  H30  1  0.04768671  0.46182000  0.90799978  1  0  0.147528  0  0.953492  0  0  0.167657  0  1.008708  0  0  0.17003  0  1.008119  0  0  0.102397  0.165913  0  1.009224  0
H  H31  1  0.95230944  0.53817652  0.09200106  1  0  0.147532  0  0.953529  0  0  0.167679  0  1.008717  0  0  0.170053  0  1.008127  0  0  0.102398  0.165935  0  1.009231  0
C  C32  1  0.63244836  0.95858512  0.65673684  1  0  0.190993  0  3.62849  0  0  0.192988  0  3.86484  0  0  0.196871  0  3.886731  0  0  0.136963  0.190099  0  3.850289  0
C  C33  1  0.36755109  0.04141814  0.34326320  1  0  0.190796  0  3.628789  0  0  0.192814  0  3.865101  0  0  0.196686  0  3.886986  0  0  0.136936  0.189929  0  3.850551  0
C  C34  1  0.52999528  0.69887350  0.47999679  1  0  0.075715  0  3.671105  0  0  0.044296  0  3.923407  0  0  0.046898  0  3.94257  0  0  0.048885  0.042334  0  3.910938  0
C  C35  1  0.47000236  0.30112838  0.52000451  1  0  0.075785  0  3.67082  0  0  0.044414  0  3.923122  0  0  0.046999  0  3.942271  0  0  0.048955  0.042452  0  3.910657  0
C  C36  1  0.79836334  0.09316809  0.75926021  1  0  -0.153913  0  3.742678  0  0  -0.198209  0  3.997629  0  0  -0.200038  0  4.012319  0  0  -0.167657  -0.1966  0  3.987261  0
C  C37  1  0.20163471  0.90683516  0.24073880  1  0  -0.153831  0  3.742751  0  0  -0.198074  0  3.997583  0  0  -0.199909  0  4.012293  0  0  -0.167631  -0.196475  0  3.98723  0
C  C38  1  0.33562279  0.70162237  0.47653437  1  0  0.080353  0  3.657405  0  0  0.046938  0  3.914197  0  0  0.049364  0  3.93233  0  0  0.048786  0.04498  0  3.902516  0
C  C39  1  0.66438480  0.29837429  0.52346421  1  0  0.080255  0  3.657579  0  0  0.046797  0  3.914373  0  0  0.049221  0  3.932509  0  0  0.0487  0.044838  0  3.902691  0
C  C40  1  0.43456760  0.96383775  0.65142892  1  0  0.184513  0  3.63087  0  0  0.184948  0  3.869239  0  0  0.18839  0  3.891424  0  0  0.134705  0.182312  0  3.854531  0
C  C41  1  0.56543326  0.03616020  0.34856834  1  0  0.184499  0  3.630937  0  0  0.184936  0  3.869266  0  0  0.188375  0  3.891455  0  0  0.13473  0.182299  0  3.854558  0
C  C42  1  0.37718257  0.10979994  0.74347235  1  0  -0.146347  0  3.73889  0  0  -0.187647  0  3.98735  0  0  -0.189478  0  4.002339  0  0  -0.165847  -0.186091  0  3.976947  0
C  C43  1  0.62281546  0.89019800  0.25652373  1  0  -0.146257  0  3.73882  0  0  -0.187504  0  3.9872  0  0  -0.189333  0  4.002183  0  0  -0.165821  -0.185948  0  3.976798  0
C  C44  1  0.86986571  0.01850594  0.86238318  1  0  -0.289984  0  3.669601  0  0  -0.362794  0  3.908055  0  0  -0.366419  0  3.919806  0  0  -0.246666  -0.36003  0  3.899961  0
C  C45  1  0.13012699  0.98149858  0.13761729  1  0  -0.290104  0  3.66969  0  0  -0.362919  0  3.908108  0  0  -0.366548  0  3.919865  0  0  -0.246704  -0.360153  0  3.900017  0
C  C46  1  0.37632606  0.08625468  0.87221703  1  0  -0.275072  0  3.673215  0  0  -0.349578  0  3.914302  0  0  -0.352817  0  3.926207  0  0  -0.245206  -0.347059  0  3.906051  0
C  C47  1  0.62367585  0.91374194  0.12778005  1  0  -0.27514  0  3.673199  0  0  -0.349639  0  3.914294  0  0  -0.35287  0  3.926212  0  0  -0.24522  -0.347121  0  3.90604  0
C  C48  1  0.19284374  0.53614327  0.90783535  1  0  -0.484894  0  3.574776  0  0  -0.558382  0  3.809104  0  0  -0.564523  0  3.810232  0  0  -0.237941  -0.553993  0  3.808305  0
C  C49  1  0.80716200  0.46385731  0.09216918  1  0  -0.4849  0  3.574805  0  0  -0.55839  0  3.809121  0  0  -0.564538  0  3.81025  0  0  -0.237928  -0.553999  0  3.80832  0
S  S50  1  0.18547955  0.54978848  0.75307755  1  0  1.37139  0  5.646034  0  0  1.2889  0  6.165383  0  0  1.334847  0  6.143728  0  0  0.48741  1.257202  0  6.1791  0
S  S51  1  0.81452970  0.45020944  0.24692765  1  0  1.37134  0  5.646242  0  0  1.288855  0  6.165579  0  0  1.334803  0  6.143922  0  0  0.48741  1.257156  0  6.179293  0
N  N52  1  0.67725985  0.82750623  0.56928881  1  0  -0.279914  0  3.267371  0  0  -0.20049  0  3.538547  0  0  -0.216065  0  3.554816  0  0  -0.319775  -0.189935  0  3.527746  0
N  N53  1  0.32273920  0.17249036  0.43070884  1  0  -0.279859  0  3.267469  0  0  -0.200504  0  3.538696  0  0  -0.216042  0  3.554922  0  0  -0.319804  -0.189949  0  3.527893  0
N  N54  1  0.28920758  0.83471638  0.56069114  1  0  -0.285449  0  3.292775  0  0  -0.209917  0  3.568402  0  0  -0.224994  0  3.584986  0  0  -0.321066  -0.199635  0  3.557393  0
N  N55  1  0.71078826  0.16528415  0.43930967  1  0  -0.285382  0  3.29306  0  0  -0.209834  0  3.568633  0  0  -0.224909  0  3.58522  0  0  -0.321049  -0.199548  0  3.557619  0
O  O56  1  0.03809855  0.65019174  0.73403120  1  0  -0.712703  0  1.961589  0  0  -0.654604  0  2.225878  0  0  -0.676132  0  2.208182  0  0  -0.36553  -0.639346  0  2.237553  0
O  O57  1  0.96190640  0.34980083  0.26597148  1  0  -0.712693  0  1.96181  0  0  -0.654555  0  2.226058  0  0  -0.676083  0  2.208363  0  0  -0.365483  -0.639302  0  2.237743  0
O  O58  1  0.11880281  0.36146027  0.66670582  1  0  -0.726317  0  2.037068  0  0  -0.662647  0  2.322484  0  0  -0.685506  0  2.304872  0  0  -0.366712  -0.646425  0  2.333979  0
O  O59  1  0.88120575  0.63853502  0.33329608  1  0  -0.726312  0  2.037165  0  0  -0.662601  0  2.322505  0  0  -0.685459  0  2.304894  0  0  -0.366718  -0.646378  0  2.333996  0
O  O60  1  0.38544210  0.63841390  0.75434449  1  0  -0.675502  0  1.875551  0  0  -0.627569  0  2.104469  0  0  -0.648108  0  2.094106  0  0  -0.364363  -0.613047  0  2.11114  0
O  O61  1  0.61456651  0.36159203  0.24566239  1  0  -0.675476  0  1.875466  0  0  -0.627591  0  2.104415  0  0  -0.648135  0  2.09406  0  0  -0.364395  -0.61307  0  2.111086  0
