# generated using pymatgen
data_Zn2H16C29(NO2)4
_symmetry_space_group_name_H-M   'P 1'
_cell_length_a   9.08026613
_cell_length_b   12.28677872
_cell_length_c   13.98200000
_cell_angle_alpha   103.03394931
_cell_angle_beta   99.49566123
_cell_angle_gamma   105.97737285
_symmetry_Int_Tables_number   1
_chemical_formula_structural   Zn2H16C29(NO2)4
_chemical_formula_sum   'Zn4 H32 C58 N8 O16'
_cell_volume   1417.45597161
_cell_formula_units_Z   2
loop_
 _symmetry_equiv_pos_site_id
 _symmetry_equiv_pos_as_xyz
  1  'x, y, z'
loop_
 _atom_site_type_symbol
 _atom_site_label
 _atom_site_symmetry_multiplicity
 _atom_site_fract_x
 _atom_site_fract_y
 _atom_site_fract_z
 _atom_site_occupancy
 _atom_site_hle17_bader_spin_density
 _atom_site_hle17_ddec_charge
 _atom_site_hle17_ddec_spin_density
 _atom_site_hle17_ddec_sum_bond_order
 _atom_site_hle17_magmom
 _atom_site_hse06_10hf_bader_spin_density
 _atom_site_hse06_10hf_ddec_charge
 _atom_site_hse06_10hf_ddec_spin_density
 _atom_site_hse06_10hf_ddec_sum_bond_order
 _atom_site_hse06_10hf_magmom
 _atom_site_hse06_bader_spin_density
 _atom_site_hse06_ddec_charge
 _atom_site_hse06_ddec_spin_density
 _atom_site_hse06_ddec_sum_bond_order
 _atom_site_hse06_magmom
 _atom_site_pbe_bader_charge
 _atom_site_pbe_bader_spin_density
 _atom_site_pbe_cm5_charge
 _atom_site_pbe_ddec_charge
 _atom_site_pbe_ddec_spin_density
 _atom_site_pbe_ddec_sum_bond_order
 _atom_site_pbe_magmom
Zn  Zn0  1  0.04650784  0.88710854  0.59310267  1  0  1.054213  0  1.787364  0  0  0.866661  0  2.248867  0  0  0.916511  0  2.192464  0  1.306332  0  0.699986  0.831789  0  2.287759  0
Zn  Zn1  1  0.95349795  0.11289735  0.40690019  1  0  1.054146  0  1.787414  0  0  0.86657  0  2.248922  0  0  0.916421  0  2.19252  0  1.306264  0  0.699898  0.831696  0  2.287812  0
Zn  Zn2  1  0.86636020  0.79160305  0.82052506  1  0  1.113219  0  1.822917  0  0  0.932432  0  2.317831  0  0  0.982185  0  2.253601  0  1.305884  0  0.698689  0.897315  0  2.362285  0
Zn  Zn3  1  0.13363282  0.20839401  0.17947111  1  0  1.113184  0  1.822901  0  0  0.932362  0  2.317807  0  0  0.98212  0  2.253579  0  1.306  0  0.698656  0.897247  0  2.362262  0
H  H4  1  0.71369530  0.91888246  0.05029917  1  0  0.101043  0  0.947327  0  0  0.111616  0  1.008168  0  0  0.11466  0  1.006643  0  0.088674  0  0.099565  0.109374  0  1.009405  0
H  H5  1  0.28629661  0.08111460  0.94969902  1  0  0.101147  0  0.947439  0  0  0.111704  0  1.008276  0  0  0.114749  0  1.00675  0  0.088581  0  0.0996  0.109462  0  1.009513  0
H  H6  1  0.43850038  0.78231391  0.96160190  1  0  0.094041  0  0.9626  0  0  0.102249  0  1.02961  0  0  0.105082  0  1.028427  0  0.084061  0  0.096769  0.100195  0  1.030492  0
H  H7  1  0.56148856  0.21768404  0.03839758  1  0  0.093973  0  0.962621  0  0  0.102224  0  1.029598  0  0  0.105058  0  1.028415  0  0.084376  0  0.096748  0.10017  0  1.030479  0
H  H8  1  0.22236847  0.44172250  0.90070577  1  0  0.103749  0  0.933224  0  0  0.114938  0  0.987699  0  0  0.119055  0  0.985037  0  0.103421  0  0.10539  0.111933  0  0.989699  0
H  H9  1  0.77763422  0.55827367  0.09928911  1  0  0.103769  0  0.933229  0  0  0.114931  0  0.987722  0  0  0.119047  0  0.985061  0  0.103363  0  0.105378  0.111927  0  0.989722  0
H  H10  1  0.33662998  0.47756544  0.33025912  1  0  0.111001  0  0.940108  0  0  0.121192  0  0.996975  0  0  0.125084  0  0.99453  0  0.112823  0  0.107946  0.118389  0  0.998786  0
H  H11  1  0.66337089  0.52243427  0.66973412  1  0  0.111061  0  0.940022  0  0  0.121246  0  0.996902  0  0  0.12514  0  0.994456  0  0.112901  0  0.107968  0.118442  0  0.998715  0
H  H12  1  0.29000450  0.80427746  0.44945520  1  0  0.100248  0  0.937613  0  0  0.112344  0  0.992937  0  0  0.115575  0  0.991423  0  0.076546  0  0.10427  0.109937  0  0.994236  0
H  H13  1  0.71000234  0.19572314  0.55054600  1  0  0.100258  0  0.937651  0  0  0.112342  0  0.992975  0  0  0.115579  0  0.991456  0  0.07933  0  0.104273  0.109935  0  0.994275  0
H  H14  1  0.43931980  0.58568968  0.85943043  1  0  0.097171  0  0.956752  0  0  0.107304  0  1.019036  0  0  0.110402  0  1.017382  0  0.117131  0  0.10226  0.105064  0  1.020309  0
H  H15  1  0.56068034  0.41431091  0.14056935  1  0  0.097142  0  0.956714  0  0  0.107289  0  1.018998  0  0  0.110388  0  1.017343  0  0.117142  0  0.10225  0.105049  0  1.020273  0
H  H16  1  0.57255064  0.82202710  0.51318344  1  0  0.098138  0  0.956386  0  0  0.10702  0  1.021899  0  0  0.109391  0  1.02152  0  0.082445  0  0.10197  0.105284  0  1.022277  0
H  H17  1  0.42745697  0.17797526  0.48681678  1  0  0.098143  0  0.956377  0  0  0.107041  0  1.021865  0  0  0.109411  0  1.021486  0  0.082557  0  0.10195  0.105309  0  1.022245  0
H  H18  1  0.06686904  0.63708256  0.58849637  1  0  0.08317  0  0.931441  0  0  0.094276  0  0.987863  0  0  0.096512  0  0.98577  0  0.091442  0  0.122109  0.092582  0  0.989449  0
H  H19  1  0.93312814  0.36291892  0.41150111  1  0  0.083161  0  0.931449  0  0  0.094264  0  0.987879  0  0  0.096469  0  0.985823  0  0.09147  0  0.122114  0.092571  0  0.989461  0
H  H20  1  0.27862406  0.55436366  0.64570014  1  0  0.107619  0  0.943985  0  0  0.120042  0  0.99614  0  0  0.122592  0  0.996447  0  0.10611  0  0.111918  0.118187  0  0.996122  0
H  H21  1  0.72137573  0.44563870  0.35429851  1  0  0.107593  0  0.943971  0  0  0.120009  0  0.996136  0  0  0.122561  0  0.996443  0  0.10608  0  0.111902  0.118156  0  0.996116  0
H  H22  1  0.85925557  0.20644872  0.88919082  1  0  0.33518  0  0.8322  0  0  0.323478  0  0.878014  0  0  0.33001  0  0.873539  0  0.52754  0  0.346677  0.318796  0  0.88134  0
H  H23  1  0.14075162  0.79355011  0.11081294  1  0  0.335094  0  0.832289  0  0  0.323413  0  0.878072  0  0  0.329948  0  0.873601  0  0.527547  0  0.346675  0.318736  0  0.881393  0
H  H24  1  0.99726614  0.06107249  0.90395119  1  0  0.115079  0  0.939107  0  0  0.121493  0  1.003607  0  0  0.124601  0  0.999248  0  0.236433  0  0.145119  0.1191  0  1.006908  0
H  H25  1  0.00272831  0.93892016  0.09604711  1  0  0.11509  0  0.939256  0  0  0.121476  0  1.003759  0  0  0.124583  0  0.999402  0  0.236428  0  0.14516  0.119086  0  1.007055  0
H  H26  1  0.54745625  0.69327681  0.73959664  1  0  0.108587  0  0.977347  0  0  0.117074  0  1.044793  0  0  0.120283  0  1.041637  0  0.127385  0  0.110861  0.114634  0  1.047202  0
H  H27  1  0.45254689  0.30672556  0.26040238  1  0  0.108606  0  0.977355  0  0  0.11708  0  1.04481  0  0  0.120277  0  1.041667  0  0.127587  0  0.110857  0.11463  0  1.047247  0
H  H28  1  0.59841169  0.63970189  0.40330527  1  0  0.095009  0  0.964898  0  0  0.102089  0  1.032209  0  0  0.105506  0  1.030201  0  0.088115  0  0.101446  0.099645  0  1.033709  0
H  H29  1  0.40158807  0.36029782  0.59668570  1  0  0.095049  0  0.964863  0  0  0.102096  0  1.032204  0  0  0.105512  0  1.030195  0  0.087526  0  0.101442  0.099654  0  1.033699  0
H  H30  1  0.14593349  0.17027538  0.66978716  1  0  0.102896  0  0.947104  0  0  0.109759  0  1.007574  0  0  0.113388  0  1.003925  0  0.151396  0  0.122  0.107045  0  1.010339  0
H  H31  1  0.85406669  0.82972786  0.33021958  1  0  0.102895  0  0.947097  0  0  0.109706  0  1.007666  0  0  0.113332  0  1.00402  0  0.151285  0  0.122002  0.106996  0  1.010432  0
H  H32  1  0.39455772  0.33688546  0.76998656  1  0  0.105513  0  0.95748  0  0  0.117773  0  1.011213  0  0  0.119832  0  1.012056  0  0.095597  0  0.110975  0.116304  0  1.010743  0
H  H33  1  0.60544058  0.66311602  0.23002035  1  0  0.105482  0  0.957416  0  0  0.117747  0  1.011158  0  0  0.119806  0  1.011998  0  0.095509  0  0.110941  0.116278  0  1.010686  0
H  H34  1  0.63626657  0.29062172  0.83269588  1  0  0.107114  0  0.916299  0  0  0.123303  0  0.964496  0  0  0.125846  0  0.963301  0  0.079196  0  0.119661  0.121398  0  0.965488  0
H  H35  1  0.36374146  0.70938418  0.16730651  1  0  0.10713  0  0.9163  0  0  0.123273  0  0.964556  0  0  0.125842  0  0.963326  0  0.079229  0  0.119672  0.121369  0  0.965543  0
C  C36  1  0.61930508  0.95357872  0.02800176  1  0  -0.076524  0  3.74025  0  0  -0.101573  0  3.99496  0  0  -0.10213  0  4.015182  0  -0.135717  0  -0.094019  -0.101123  0  3.981238  0
C  C37  1  0.38068428  0.04642276  0.97200419  1  0  -0.076729  0  3.740572  0  0  -0.101742  0  3.995285  0  0  -0.102301  0  4.015509  0  -0.135666  0  -0.094064  -0.101292  0  3.981563  0
C  C38  1  0.46742440  0.87793071  0.97886795  1  0  -0.086562  0  3.761275  0  0  -0.108761  0  4.013402  0  0  -0.110104  0  4.034302  0  0.003475  0  -0.093666  -0.107721  0  3.999149  0
C  C39  1  0.53255934  0.12206812  0.02113687  1  0  -0.086468  0  3.761542  0  0  -0.108717  0  4.013638  0  0  -0.110061  0  4.034541  0  0.003339  0  -0.093711  -0.107676  0  3.999383  0
C  C40  1  0.34429940  0.46772504  0.94376154  1  0  -0.082266  0  3.763183  0  0  -0.104517  0  4.011783  0  0  -0.105907  0  4.031791  0  -0.05714  0  -0.084569  -0.103483  0  3.998206  0
C  C41  1  0.65570112  0.53227643  0.05623774  1  0  -0.082428  0  3.763516  0  0  -0.104651  0  4.012066  0  0  -0.106042  0  4.032078  0  -0.057011  0  -0.084602  -0.103615  0  3.998488  0
C  C42  1  0.40851678  0.48855252  0.40463343  1  0  -0.078377  0  3.740164  0  0  -0.099667  0  3.986611  0  0  -0.101151  0  4.007097  0  -0.036855  0  -0.083288  -0.098543  0  3.972681  0
C  C43  1  0.59148853  0.51144454  0.59535690  1  0  -0.078456  0  3.740185  0  0  -0.099764  0  3.986574  0  0  -0.10125  0  4.007059  0  -0.037091  0  -0.083321  -0.098641  0  3.972647  0
C  C44  1  0.38284594  0.88967841  0.47124492  1  0  -0.081406  0  3.750146  0  0  -0.106045  0  4.004878  0  0  -0.107132  0  4.024886  0  0.008739  0  -0.088583  -0.105187  0  3.991417  0
C  C45  1  0.61716314  0.11032219  0.52875581  1  0  -0.081289  0  3.750218  0  0  -0.105904  0  4.004927  0  0  -0.106994  0  4.024932  0  0.006068  0  -0.088538  -0.105046  0  3.991464  0
C  C46  1  0.46531951  0.54734667  0.92063972  1  0  -0.083303  0  3.74958  0  0  -0.104854  0  3.999735  0  0  -0.105449  0  4.019323  0  -0.164061  0  -0.088943  -0.104403  0  3.986476  0
C  C47  1  0.53468653  0.45264951  0.07935623  1  0  -0.083251  0  3.749456  0  0  -0.104804  0  3.999608  0  0  -0.1054  0  4.019198  0  -0.16464  0  -0.08899  -0.104353  0  3.986348  0
C  C48  1  0.53963531  0.89955944  0.50746511  1  0  -0.072487  0  3.732859  0  0  -0.097903  0  3.990097  0  0  -0.098491  0  4.011195  0  -0.063538  0  -0.087465  -0.097445  0  3.975864  0
C  C49  1  0.46037376  0.10044115  0.49253419  1  0  -0.072677  0  3.733119  0  0  -0.098118  0  3.990368  0  0  -0.098709  0  4.011472  0  -0.063548  0  -0.087532  -0.097667  0  3.976143  0
C  C50  1  0.37296298  0.01240850  0.71866056  1  0  0.140323  0  3.74098  0  0  0.13089  0  3.982399  0  0  0.134874  0  4.005444  0  0.54252  0  0.123888  0.12822  0  3.966863  0
C  C51  1  0.62703647  0.98759563  0.28134270  1  0  0.140422  0  3.741011  0  0  0.13089  0  3.982544  0  0  0.134875  0  4.005588  0  0.542614  0  0.123833  0.128226  0  3.967008  0
C  C52  1  0.35492844  0.88773754  0.69900929  1  0  0.135702  0  3.750307  0  0  0.124471  0  3.991546  0  0  0.12866  0  4.014141  0  0.543534  0  0.12155  0.121682  0  3.976326  0
C  C53  1  0.64506835  0.11226306  0.30098798  1  0  0.135622  0  3.750366  0  0  0.124387  0  3.991646  0  0  0.128577  0  4.01424  0  0.543418  0  0.121559  0.121596  0  3.976427  0
C  C54  1  0.18557213  0.69467703  0.62969379  1  0  0.168495  0  3.675481  0  0  0.13291  0  3.928254  0  0  0.141795  0  3.944378  0  0.520429  0  0.066252  0.127121  0  3.917289  0
C  C55  1  0.81442690  0.30532357  0.37030372  1  0  0.168533  0  3.675485  0  0  0.132931  0  3.928288  0  0  0.141839  0  3.944418  0  0.52032  0  0.066278  0.127142  0  3.917322  0
C  C56  1  0.30474764  0.64950254  0.66164525  1  0  -0.102269  0  3.711622  0  0  -0.113178  0  3.963021  0  0  -0.120439  0  3.985013  0  0.017611  0  -0.073911  -0.108516  0  3.948222  0
C  C57  1  0.69525212  0.35049718  0.33835073  1  0  -0.102242  0  3.711567  0  0  -0.113156  0  3.962973  0  0  -0.120415  0  3.98495  0  0.017653  0  -0.073946  -0.108492  0  3.948173  0
C  C58  1  0.63119429  0.93889100  0.78334149  1  0  0.121793  0  3.778039  0  0  0.109655  0  4.030313  0  0  0.11222  0  4.054999  0  0.447508  0  0.101631  0.107919  0  4.013679  0
C  C59  1  0.36880173  0.06110782  0.21666107  1  0  0.121655  0  3.778031  0  0  0.109517  0  4.030317  0  0  0.112084  0  4.055001  0  0.447567  0  0.101606  0.107784  0  4.013678  0
C  C60  1  0.80044967  0.68596298  0.58127143  1  0  0.659466  0  3.902443  0  0  0.60721  0  4.19418  0  0  0.642346  0  4.185224  0  1.579066  0  0.215455  0.583317  0  4.199499  0
C  C61  1  0.19955086  0.31403849  0.41872284  1  0  0.659632  0  3.902157  0  0  0.607386  0  4.193933  0  0  0.642521  0  4.184973  0  1.579051  0  0.215533  0.583493  0  4.199252  0
C  C62  1  0.64713375  0.05900882  0.80311397  1  0  0.107504  0  3.749979  0  0  0.087251  0  4.009422  0  0  0.089113  0  4.033323  0  0.400777  0  0.101962  0.085971  0  3.993353  0
C  C63  1  0.35286600  0.94099089  0.19689060  1  0  0.107546  0  3.750001  0  0  0.087234  0  4.009488  0  0  0.089095  0  4.033403  0  0.400579  0  0.101944  0.085958  0  3.993422  0
C  C64  1  0.87439440  0.03728556  0.86537477  1  0  0.294407  0  3.593299  0  0  0.22722  0  3.870605  0  0  0.243709  0  3.88036  0  1.005582  0  0.17724  0.216432  0  3.863734  0
C  C65  1  0.12560048  0.96271062  0.13462572  1  0  0.294333  0  3.593241  0  0  0.227173  0  3.87054  0  0  0.243671  0  3.880295  0  1.005537  0  0.177171  0.216387  0  3.863671  0
C  C66  1  0.45414892  0.72664441  0.71247949  1  0  -0.024623  0  3.648576  0  0  -0.054307  0  3.900612  0  0  -0.051664  0  3.918559  0  -0.029205  0  -0.057968  -0.055788  0  3.888542  0
C  C67  1  0.54585083  0.27335530  0.28751578  1  0  -0.02473  0  3.648605  0  0  -0.054381  0  3.900609  0  0  -0.051733  0  3.918572  0  -0.02936  0  -0.057942  -0.055864  0  3.888534  0
C  C68  1  0.34720120  0.92369532  0.95059234  1  0  -0.069556  0  3.768655  0  0  -0.047975  0  4.004225  0  0  -0.054314  0  4.02651  0  -0.00996  0  -0.025899  -0.043775  0  3.989123  0
C  C69  1  0.65278589  0.07630351  0.04941427  1  0  -0.069663  0  3.768804  0  0  -0.04801  0  4.004337  0  0  -0.054349  0  4.026622  0  -0.010171  0  -0.02581  -0.043813  0  3.989239  0
C  C70  1  0.52017820  0.10054893  0.77219773  1  0  -0.019911  0  3.790331  0  0  -0.00853  0  4.031844  0  0  -0.011446  0  4.055527  0  0.032398  0  0.007122  -0.006766  0  4.015957  0
C  C71  1  0.47982498  0.89945608  0.22780682  1  0  -0.020087  0  3.790437  0  0  -0.008632  0  4.031928  0  0  -0.011548  0  4.055622  0  0.032433  0  0.007124  -0.006872  0  4.016044  0
C  C72  1  0.48313280  0.84916572  0.73186988  1  0  -0.011375  0  3.757952  0  0  0.001803  0  3.991515  0  0  -0.001318  0  4.014701  0  -0.017745  0  0.01243  0.003683  0  3.975962  0
C  C73  1  0.51686138  0.15083399  0.26812837  1  0  -0.011184  0  3.757883  0  0  0.002002  0  3.991427  0  0  -0.001118  0  4.01461  0  -0.017887  0  0.012414  0.003882  0  3.975873  0
C  C74  1  0.55332981  0.57786348  0.44478733  1  0  -0.078333  0  3.749923  0  0  -0.100483  0  4.000999  0  0  -0.100969  0  4.020413  0  -0.018335  0  -0.084289  -0.100041  0  3.987795  0
C  C75  1  0.44667588  0.42213447  0.55520393  1  0  -0.078447  0  3.7502  0  0  -0.100548  0  4.001319  0  0  -0.101031  0  4.02073  0  -0.017649  0  -0.084376  -0.100108  0  3.988117  0
C  C76  1  0.18324920  0.84087484  0.89943823  1  0  0.630492  0  3.951813  0  0  0.579573  0  4.253095  0  0  0.613144  0  4.246199  0  1.555131  0  0.186121  0.55678  0  4.256932  0
C  C77  1  0.81674348  0.15912399  0.10056683  1  0  0.630597  0  3.951851  0  0  0.579566  0  4.253263  0  0  0.613137  0  4.246372  0  1.555151  0  0.186131  0.556773  0  4.257096  0
C  C78  1  0.64509640  0.58969334  0.53998093  1  0  -0.064399  0  3.775306  0  0  -0.043606  0  4.010877  0  0  -0.050485  0  4.033656  0  -0.091391  0  -0.016315  -0.039069  0  3.99547  0
C  C79  1  0.35490740  0.41030284  0.46000978  1  0  -0.064406  0  3.775591  0  0  -0.043728  0  4.011328  0  0  -0.050607  0  4.034112  0  -0.09186  0  -0.016341  -0.039191  0  3.99592  0
C  C80  1  0.25285299  0.15363443  0.70169052  1  0  0.154008  0  3.652273  0  0  0.118995  0  3.908787  0  0  0.127395  0  3.92342  0  0.490917  0  0.060893  0.113483  0  3.898882  0
C  C81  1  0.74714830  0.84636882  0.29831348  1  0  0.154104  0  3.652343  0  0  0.119062  0  3.908951  0  0  0.127464  0  3.923582  0  0.491065  0  0.060903  0.113543  0  3.899053  0
C  C82  1  0.82780435  0.01889809  0.56816308  1  0  0.6658  0  3.870134  0  0  0.609857  0  4.165927  0  0  0.645933  0  4.156117  0  1.582073  0  0.216605  0.585247  0  4.171922  0
C  C83  1  0.17220249  0.98110251  0.43183956  1  0  0.665997  0  3.870206  0  0  0.610017  0  4.16602  0  0  0.646109  0  4.156182  0  1.582073  0  0.216647  0.585408  0  4.172015  0
C  C84  1  0.62186387  0.58021691  0.97666798  1  0  -0.058725  0  3.757274  0  0  -0.037133  0  3.988655  0  0  -0.043662  0  4.011962  0  0.035566  0  -0.01945  -0.032853  0  3.972908  0
C  C85  1  0.37813578  0.41977485  0.02332641  1  0  -0.058729  0  3.75699  0  0  -0.037188  0  3.988467  0  0  -0.043717  0  4.011777  0  0.036445  0  -0.019462  -0.032906  0  3.972718  0
C  C86  1  0.39296607  0.24575024  0.75550497  1  0  -0.103675  0  3.725066  0  0  -0.115107  0  3.978993  0  0  -0.121735  0  4.000837  0  -0.023227  0  -0.073996  -0.110844  0  3.964264  0
C  C87  1  0.60703785  0.75425389  0.24450163  1  0  -0.103629  0  3.725107  0  0  -0.115054  0  3.979042  0  0  -0.121684  0  4.000896  0  -0.023504  0  -0.073921  -0.110791  0  3.964314  0
C  C88  1  0.75206089  0.66794566  0.95317798  1  0  0.654932  0  3.91755  0  0  0.609881  0  4.206792  0  0  0.643888  0  4.198439  0  1.57901  0  0.204192  0.586723  0  4.211696  0
C  C89  1  0.24794068  0.33205051  0.04682036  1  0  0.65485  0  3.917493  0  0  0.60982  0  4.206722  0  0  0.643819  0  4.198385  0  1.579003  0  0.204186  0.586661  0  4.211625  0
C  C90  1  0.52706144  0.21968940  0.79055429  1  0  -0.032796  0  3.679565  0  0  -0.061563  0  3.930942  0  0  -0.058872  0  3.948314  0  -0.028672  0  -0.058095  -0.063075  0  3.919052  0
C  C91  1  0.47294547  0.78031650  0.20945227  1  0  -0.032726  0  3.679578  0  0  -0.061467  0  3.930978  0  0  -0.058795  0  3.948341  0  -0.028295  0  -0.058085  -0.062978  0  3.919088  0
C  C92  1  0.65797979  0.00995701  0.53635699  1  0  -0.06684  0  3.759243  0  0  -0.047224  0  4.000871  0  0  -0.053482  0  4.022229  0  -0.069387  0  -0.020463  -0.043155  0  3.986538  0
C  C93  1  0.34202747  0.99004712  0.46364496  1  0  -0.066906  0  3.759376  0  0  -0.047284  0  4.001003  0  0  -0.053545  0  4.022354  0  -0.069192  0  -0.020512  -0.043216  0  3.986674  0
N  N94  1  0.21059115  0.81022375  0.64798948  1  0  -0.353635  0  3.310187  0  0  -0.280383  0  3.585425  0  0  -0.298869  0  3.600254  0  -1.248428  0  -0.319256  -0.267945  0  3.575366  0
N  N95  1  0.78940673  0.18977420  0.35200953  1  0  -0.3537  0  3.310298  0  0  -0.280408  0  3.585499  0  0  -0.298892  0  3.600317  0  -1.24827  0  -0.319286  -0.26797  0  3.575441  0
N  N96  1  0.24396329  0.04050562  0.68428539  1  0  -0.350791  0  3.270296  0  0  -0.279588  0  3.541772  0  0  -0.297774  0  3.557422  0  -1.229497  0  -0.309265  -0.267247  0  3.531077  0
N  N97  1  0.75603877  0.95949939  0.31571904  1  0  -0.35086  0  3.270261  0  0  -0.279566  0  3.541731  0  0  -0.297753  0  3.557382  0  -1.229534  0  -0.309247  -0.267227  0  3.531038  0
N  N98  1  0.77468949  0.92783679  0.82254147  1  0  -0.426985  0  3.201105  0  0  -0.352729  0  3.496054  0  0  -0.37524  0  3.508523  0  -1.219336  0  -0.340654  -0.337443  0  3.487377  0
N  N99  1  0.22530576  0.07216027  0.17745708  1  0  -0.426873  0  3.201051  0  0  -0.352603  0  3.495968  0  0  -0.375112  0  3.508434  0  -1.219231  0  -0.340563  -0.337316  0  3.487288  0
N  N100  1  0.80264346  0.11854151  0.85524094  1  0  -0.311412  0  3.368172  0  0  -0.249017  0  3.603012  0  0  -0.265481  0  3.61637  0  -1.27236  0  -0.358138  -0.237928  0  3.593822  0
N  N101  1  0.19735703  0.88145732  0.14476281  1  0  -0.311298  0  3.367995  0  0  -0.248899  0  3.602815  0  0  -0.265384  0  3.616198  0  -1.272315  0  -0.358143  -0.237823  0  3.593641  0
O  O102  1  0.93124367  0.09697550  0.54613445  1  0  -0.647522  0  2.093258  0  0  -0.577216  0  2.363322  0  0  -0.604434  0  2.346439  0  -1.182461  0  -0.323248  -0.558024  0  2.374182  0
O  O103  1  0.06876463  0.90302333  0.45386728  1  0  -0.647624  0  2.093419  0  0  -0.577249  0  2.363444  0  0  -0.60447  0  2.346548  0  -1.182515  0  -0.323259  -0.55806  0  2.374311  0
O  O104  1  0.08123735  0.89464410  0.87928175  1  0  -0.68343  0  2.077526  0  0  -0.608317  0  2.364229  0  0  -0.638837  0  2.348297  0  -1.172743  0  -0.344008  -0.586786  0  2.374424  0
O  O105  1  0.91875637  0.10534942  0.12070879  1  0  -0.683424  0  2.077386  0  0  -0.608232  0  2.364077  0  0  -0.638752  0  2.348149  0  -1.172799  0  -0.344003  -0.586702  0  2.374271  0
O  O106  1  0.86033155  0.94751494  0.61478436  1  0  -0.608504  0  2.049668  0  0  -0.537827  0  2.311416  0  0  -0.566161  0  2.299635  0  -1.159927  0  -0.30581  -0.518123  0  2.318978  0
O  O107  1  0.13967679  0.05248654  0.38521933  1  0  -0.608617  0  2.049641  0  0  -0.537894  0  2.311341  0  0  -0.566236  0  2.299551  0  -1.159737  0  -0.305829  -0.518192  0  2.318904  0
O  O108  1  0.86791224  0.72666031  0.51783356  1  0  -0.612804  0  2.007533  0  0  -0.549666  0  2.258382  0  0  -0.577129  0  2.245929  0  -1.15689  0  -0.317163  -0.530439  0  2.266246  0
O  O109  1  0.13209428  0.27334470  0.48216420  1  0  -0.612802  0  2.007277  0  0  -0.549614  0  2.25809  0  0  -0.577073  0  2.245625  0  -1.156965  0  -0.317112  -0.530387  0  2.265956  0
O  O110  1  0.86178932  0.72185981  0.67600161  1  0  -0.66248  0  2.118465  0  0  -0.593822  0  2.413703  0  0  -0.62106  0  2.393092  0  -1.208816  0  -0.32494  -0.57472  0  2.427392  0
O  O111  1  0.13820185  0.27813813  0.32399454  1  0  -0.662569  0  2.118416  0  0  -0.593905  0  2.41365  0  0  -0.62114  0  2.393033  0  -1.208705  0  -0.324989  -0.574803  0  2.427341  0
O  O112  1  0.72313421  0.67032383  0.85923275  1  0  -0.683182  0  2.083114  0  0  -0.608073  0  2.363143  0  0  -0.638088  0  2.344816  0  -1.169999  0  -0.338682  -0.586839  0  2.374834  0
O  O113  1  0.27686778  0.32967588  0.14076633  1  0  -0.683145  0  2.083172  0  0  -0.608031  0  2.363178  0  0  -0.638042  0  2.344856  0  -1.170216  0  -0.338661  -0.586797  0  2.374874  0
O  O114  1  0.15165649  0.73184244  0.88018803  1  0  -0.607499  0  1.857399  0  0  -0.567575  0  2.063961  0  0  -0.588473  0  2.055487  0  -1.16601  0  -0.34123  -0.553015  0  2.069346  0
O  O115  1  0.84834327  0.26815727  0.11982226  1  0  -0.607518  0  1.857484  0  0  -0.567577  0  2.064104  0  0  -0.588476  0  2.055637  0  -1.165944  0  -0.341241  -0.553014  0  2.069482  0
O  O116  1  0.87312422  0.73155886  0.02041699  1  0  -0.623988  0  1.898459  0  0  -0.587879  0  2.118939  0  0  -0.609056  0  2.10827  0  -1.193178  0  -0.329487  -0.573006  0  2.125796  0
O  O117  1  0.12686776  0.26844350  0.97958154  1  0  -0.623989  0  1.898268  0  0  -0.587873  0  2.118723  0  0  -0.60905  0  2.108061  0  -1.193377  0  -0.329486  -0.572999  0  2.125583  0
