# generated using pymatgen
data_Ti4H8C17O14
_symmetry_space_group_name_H-M   'P 1'
_cell_length_a   12.11356390
_cell_length_b   21.86423357
_cell_length_c   21.86424154
_cell_angle_alpha   120.00002652
_cell_angle_beta   90.00005821
_cell_angle_gamma   89.99999965
_symmetry_Int_Tables_number   1
_chemical_formula_structural   Ti4H8C17O14
_chemical_formula_sum   'Ti24 H48 C102 O84'
_cell_volume   5015.00216482
_cell_formula_units_Z   6
loop_
 _symmetry_equiv_pos_site_id
 _symmetry_equiv_pos_as_xyz
  1  'x, y, z'
loop_
 _atom_site_type_symbol
 _atom_site_label
 _atom_site_symmetry_multiplicity
 _atom_site_fract_x
 _atom_site_fract_y
 _atom_site_fract_z
 _atom_site_occupancy
 _atom_site_pbe_bader_charge
 _atom_site_pbe_bader_spin_density
 _atom_site_pbe_cm5_charge
 _atom_site_pbe_ddec_charge
 _atom_site_pbe_ddec_spin_density
 _atom_site_pbe_ddec_sum_bond_order
 _atom_site_pbe_magmom
Ti  Ti0  1  0.85054365  0.71932101  0.43864221  1  2.236362  0  1.471254  2.171812  0  2.590218  0
Ti  Ti1  1  0.14945709  0.43864261  0.71932184  1  2.236221  0  1.471249  2.171822  0  2.590111  0
Ti  Ti2  1  0.85054376  0.28067811  0.56135699  1  2.236233  0  1.471246  2.171832  0  2.590126  0
Ti  Ti3  1  0.85054350  0.56135723  0.28067900  1  2.236211  0  1.471244  2.171852  0  2.590073  0
Ti  Ti4  1  0.14945683  0.71932179  0.43864286  1  2.236257  0  1.471284  2.171932  0  2.589994  0
Ti  Ti5  1  0.14945668  0.71932174  0.28067810  1  2.228469  0  1.47126  2.171806  0  2.590075  0
Ti  Ti6  1  0.85054350  0.71932088  0.28067844  1  2.228219  0  1.471221  2.171749  0  2.590204  0
Ti  Ti7  1  0.85054308  0.28067889  0.71932194  1  2.228377  0  1.471231  2.171763  0  2.590134  0
Ti  Ti8  1  0.14945626  0.28067876  0.71932168  1  2.228321  0  1.47123  2.171782  0  2.59015  0
Ti  Ti9  1  0.14945694  0.28067844  0.56135719  1  2.236355  0  1.471249  2.171824  0  2.590128  0
Ti  Ti10  1  0.85054391  0.43864300  0.71932184  1  2.236258  0  1.471226  2.171792  0  2.590142  0
Ti  Ti11  1  0.14945586  0.56135691  0.28067801  1  2.23622  0  1.471258  2.171956  0  2.589906  0
Ti  Ti12  1  0.64838757  0.77444934  0.38722488  1  2.241384  0  1.452039  2.171336  0  2.53244  0
Ti  Ti13  1  0.35161152  0.38722444  0.77444933  1  2.241245  0  1.452018  2.171282  0  2.532489  0
Ti  Ti14  1  0.64838860  0.22555081  0.61277580  1  2.241315  0  1.452039  2.171353  0  2.532421  0
Ti  Ti15  1  0.64838344  0.61277564  0.38722440  1  2.228007  0  1.452106  2.171349  0  2.532431  0
Ti  Ti16  1  0.35160786  0.61277532  0.38722455  1  2.228091  0  1.452049  2.17135  0  2.53243  0
Ti  Ti17  1  0.35161199  0.77444856  0.38722458  1  2.241375  0  1.452048  2.171346  0  2.53246  0
Ti  Ti18  1  0.64838825  0.61277592  0.22555097  1  2.241261  0  1.452033  2.171352  0  2.532434  0
Ti  Ti19  1  0.64838793  0.38722430  0.77444872  1  2.241334  0  1.452051  2.171342  0  2.532434  0
Ti  Ti20  1  0.35161219  0.22555076  0.61277569  1  2.241339  0  1.452052  2.171336  0  2.532427  0
Ti  Ti21  1  0.35161219  0.38722472  0.61277591  1  2.22811  0  1.452078  2.171384  0  2.532378  0
Ti  Ti22  1  0.64838778  0.38722477  0.61277602  1  2.227689  0  1.45205  2.171348  0  2.532432  0
Ti  Ti23  1  0.35161184  0.61277560  0.22555113  1  2.241208  0  1.452031  2.171374  0  2.532404  0
H  H24  1  0.99999953  0.95298781  0.74548938  1  0.016912  0  0.09952  0.106154  0  0.975835  0
H  H25  1  0.99999972  0.74548978  0.95298818  1  0.016766  0  0.099541  0.106181  0  0.975799  0
H  H26  1  0.00000023  0.04701209  0.25451047  1  0.016763  0  0.099577  0.106258  0  0.97577  0
H  H27  1  0.00000019  0.25451071  0.20749874  1  0.020672  0  0.09953  0.106166  0  0.975818  0
H  H28  1  0.00000068  0.79250185  0.74548975  1  0.020583  0  0.099547  0.106228  0  0.975778  0
H  H29  1  0.00000184  0.95298830  0.20749837  1  0.022258  0  0.099555  0.106259  0  0.97576  0
H  H30  1  0.00000087  0.79250168  0.04701231  1  0.021927  0  0.099541  0.106242  0  0.975802  0
H  H31  1  0.99999972  0.20749842  0.95298826  1  0.021943  0  0.099571  0.106259  0  0.975818  0
H  H32  1  0.99999958  0.04701187  0.79250122  1  0.022266  0  0.099528  0.106167  0  0.975839  0
H  H33  1  0.00000023  0.20749878  0.25451064  1  0.02076  0  0.099533  0.106171  0  0.975814  0
H  H34  1  0.99999958  0.74548991  0.79250130  1  0.020755  0  0.099565  0.106225  0  0.975812  0
H  H35  1  0.99999972  0.25451031  0.04701205  1  0.016838  0  0.099564  0.106245  0  0.975793  0
H  H36  1  0.89153837  0.88631796  0.63258184  1  0.105605  0  0.110195  0.116119  0  1.004298  0
H  H37  1  0.10846104  0.63258208  0.88631802  1  0.105517  0  0.110197  0.116131  0  1.004322  0
H  H38  1  0.89154060  0.11368209  0.36741830  1  0.10543  0  0.110193  0.116134  0  1.004297  0
H  H39  1  0.89153885  0.36741799  0.25373594  1  0.1038  0  0.11022  0.116155  0  1.004347  0
H  H40  1  0.10846164  0.74626383  0.63258207  1  0.10367  0  0.110193  0.116116  0  1.004312  0
H  H41  1  0.10846129  0.88631856  0.25373657  1  0.101017  0  0.11018  0.116083  0  1.004326  0
H  H42  1  0.89153789  0.74626417  0.11368183  1  0.100543  0  0.110223  0.116155  0  1.004358  0
H  H43  1  0.89153943  0.25373588  0.88631832  1  0.101006  0  0.110189  0.116117  0  1.004323  0
H  H44  1  0.10846174  0.11368139  0.74626371  1  0.101022  0  0.110192  0.116122  0  1.004291  0
H  H45  1  0.10846140  0.25373639  0.36741795  1  0.103935  0  0.110197  0.116128  0  1.004299  0
H  H46  1  0.89153930  0.63258278  0.74626439  1  0.103846  0  0.110178  0.116121  0  1.004294  0
H  H47  1  0.10846116  0.36741814  0.11368199  1  0.105475  0  0.110212  0.116147  0  1.004364  0
H  H48  1  0.10846140  0.11368194  0.36741801  1  0.105404  0  0.110202  0.116141  0  1.00431  0
H  H49  1  0.89153872  0.36741782  0.11368183  1  0.105456  0  0.110195  0.11613  0  1.004303  0
H  H50  1  0.10846164  0.88631801  0.63258227  1  0.105589  0  0.110216  0.116148  0  1.004344  0
H  H51  1  0.10846174  0.63258263  0.74626410  1  0.10374  0  0.110192  0.116124  0  1.004273  0
H  H52  1  0.89153895  0.25373562  0.36741732  1  0.10383  0  0.110206  0.116143  0  1.004342  0
H  H53  1  0.89153847  0.11368153  0.74626400  1  0.100564  0  0.1102  0.116145  0  1.004303  0
H  H54  1  0.10846105  0.25373547  0.88631829  1  0.100549  0  0.110192  0.116139  0  1.004277  0
H  H55  1  0.10846116  0.74626421  0.11368226  1  0.100552  0  0.110188  0.116124  0  1.00432  0
H  H56  1  0.89153802  0.88631825  0.25373641  1  0.101008  0  0.110198  0.116146  0  1.004316  0
H  H57  1  0.89153837  0.74626424  0.63258210  1  0.10374  0  0.110195  0.116126  0  1.004297  0
H  H58  1  0.10846129  0.36741804  0.25373637  1  0.103788  0  0.110209  0.116158  0  1.004297  0
H  H59  1  0.89154025  0.63258222  0.88631831  1  0.105439  0  0.110192  0.116134  0  1.00429  0
H  H60  1  0.68093637  0.99999980  0.56531737  1  0.118535  0  0.120666  0.133256  0  0.981115  0
H  H61  1  0.31906308  0.56531805  0.99999948  1  0.118916  0  0.120631  0.133165  0  0.981182  0
H  H62  1  0.68093708  0.99999926  0.43468171  1  0.118924  0  0.12066  0.133201  0  0.981176  0
H  H63  1  0.68093708  0.43468187  0.43468190  1  0.116382  0  0.120665  0.13322  0  0.981151  0
H  H64  1  0.31906269  0.56531712  0.56531704  1  0.116676  0  0.120652  0.133184  0  0.981201  0
H  H65  1  0.31906339  0.00000000  0.43468263  1  0.118492  0  0.120619  0.133161  0  0.981206  0
H  H66  1  0.68093585  0.56531777  0.99999980  1  0.120416  0  0.120636  0.133209  0  0.981146  0
H  H67  1  0.68093594  0.43468174  0.99999973  1  0.118808  0  0.12066  0.133247  0  0.981134  0
H  H68  1  0.31906269  0.00000019  0.56531769  1  0.118974  0  0.120624  0.133158  0  0.981198  0
H  H69  1  0.31906339  0.43468272  0.43468268  1  0.116541  0  0.120667  0.133245  0  0.981165  0
H  H70  1  0.68093720  0.56531764  0.56531763  1  0.116675  0  0.120668  0.13324  0  0.981167  0
H  H71  1  0.31906308  0.43468213  0.00000005  1  0.120616  0  0.120641  0.133165  0  0.981188  0
C  C72  1  0.99999985  0.99999983  0.73950643  1  0.000652  0  -0.147229  -0.243003  0  3.968359  0
C  C73  1  1.00000000  0.73950698  0.00000073  1  0.000577  0  -0.147287  -0.243095  0  3.968365  0
C  C74  1  0.00000024  0.99999952  0.26049345  1  0.00063  0  -0.147322  -0.243178  0  3.968367  0
C  C75  1  0.00000024  0.26049401  0.26049395  1  0.004777  0  -0.147234  -0.242993  0  3.968326  0
C  C76  1  0.99999985  0.73950708  0.73950690  1  0.00476  0  -0.147302  -0.243105  0  3.968312  0
C  C77  1  0.99999968  0.26049350  0.00000022  1  0.000559  0  -0.147344  -0.243195  0  3.968479  0
C  C78  1  0.89947003  0.00000030  0.69792532  1  0.050427  0  -0.008171  0.113734  0  3.986146  0
C  C79  1  0.10053028  0.69792534  0.00000034  1  0.050423  0  -0.008185  0.113719  0  3.986159  0
C  C80  1  0.89947132  0.00000109  0.30207536  1  0.050401  0  -0.008117  0.113801  0  3.986191  0
C  C81  1  0.89946967  0.30207534  0.30207544  1  0.04234  0  -0.008208  0.113655  0  3.986184  0
C  C82  1  0.10053092  0.69792502  0.69792487  1  0.042344  0  -0.008153  0.113811  0  3.986047  0
C  C83  1  0.10053056  0.00000022  0.30207487  1  0.050432  0  -0.008185  0.113689  0  3.986145  0
C  C84  1  0.89947022  0.69792438  0.99999900  1  0.05046  0  -0.008161  0.113713  0  3.986161  0
C  C85  1  0.89947022  0.30207468  0.00000016  1  0.050426  0  -0.00817  0.113732  0  3.986141  0
C  C86  1  0.10053092  0.99999953  0.69792469  1  0.050411  0  -0.008199  0.113743  0  3.986102  0
C  C87  1  0.10053138  0.30207520  0.30207514  1  0.042349  0  -0.008196  0.113735  0  3.98613  0
C  C88  1  0.89947003  0.69792569  0.69792464  1  0.042358  0  -0.00816  0.113707  0  3.98621  0
C  C89  1  0.10052946  0.30207454  0.99999986  1  0.050495  0  -0.008153  0.113735  0  3.986135  0
C  C90  1  0.85880152  0.93686769  0.64240378  1  -0.076823  0  -0.072367  -0.129556  0  3.908549  0
C  C91  1  0.14119795  0.64240383  0.93686702  1  -0.076841  0  -0.072363  -0.129584  0  3.908619  0
C  C92  1  0.85880374  0.06313044  0.35759549  1  -0.076855  0  -0.072394  -0.129596  0  3.908727  0
C  C93  1  0.85880285  0.35759571  0.29446346  1  -0.111233  0  -0.072352  -0.129532  0  3.908608  0
C  C94  1  0.14119850  0.70553648  0.64240506  1  -0.110986  0  -0.072418  -0.129655  0  3.908599  0
C  C95  1  0.14119736  0.93686761  0.29446358  1  -0.084591  0  -0.072355  -0.129474  0  3.908505  0
C  C96  1  0.85880099  0.70553735  0.06313351  1  -0.075321  0  -0.07243  -0.129631  0  3.908617  0
C  C97  1  0.85880179  0.29446360  0.93686752  1  -0.084601  0  -0.07237  -0.129566  0  3.908637  0
C  C98  1  0.14119856  0.06313209  0.70553699  1  -0.084583  0  -0.072351  -0.129544  0  3.908526  0
C  C99  1  0.14119824  0.29446368  0.35759596  1  -0.112664  0  -0.072355  -0.129562  0  3.908505  0
C  C100  1  0.85880240  0.64240387  0.70553620  1  -0.113243  0  -0.072385  -0.129593  0  3.908576  0
C  C101  1  0.14119715  0.35759639  0.06313302  1  -0.079996  0  -0.072366  -0.129571  0  3.908619  0
C  C102  1  0.14119824  0.06313293  0.35759626  1  -0.076855  0  -0.072368  -0.129574  0  3.908658  0
C  C103  1  0.85880182  0.35759588  0.06313211  1  -0.076845  0  -0.07238  -0.129594  0  3.908593  0
C  C104  1  0.14119685  0.93686730  0.64240378  1  -0.076847  0  -0.072373  -0.129571  0  3.90863  0
C  C105  1  0.14119939  0.64240465  0.70553685  1  -0.110928  0  -0.072343  -0.129538  0  3.908506  0
C  C106  1  0.85880291  0.29446336  0.35759577  1  -0.111196  0  -0.072351  -0.129511  0  3.90859  0
C  C107  1  0.85880158  0.06313184  0.70553581  1  -0.084601  0  -0.072379  -0.129613  0  3.908624  0
C  C108  1  0.14119712  0.29446366  0.93686797  1  -0.07536  0  -0.072392  -0.129609  0  3.908629  0
C  C109  1  0.14119880  0.70553584  0.06313187  1  -0.084583  0  -0.072371  -0.1296  0  3.908684  0
C  C110  1  0.85880120  0.93686656  0.29446320  1  -0.084573  0  -0.0724  -0.129654  0  3.908636  0
C  C111  1  0.85880069  0.70553596  0.64240415  1  -0.112746  0  -0.07237  -0.129578  0  3.908754  0
C  C112  1  0.14119819  0.35759558  0.29446319  1  -0.11329  0  -0.072371  -0.129592  0  3.908603  0
C  C113  1  0.85880344  0.64240500  0.93686991  1  -0.080028  0  -0.07239  -0.129563  0  3.908751  0
C  C114  1  0.78048431  0.93640260  0.59487448  1  -0.016921  0  -0.010715  -0.033996  0  3.966872  0
C  C115  1  0.21951511  0.59487474  0.93640268  1  -0.01686  0  -0.010662  -0.033902  0  3.966877  0
C  C116  1  0.78048662  0.06359813  0.40512578  1  -0.016831  0  -0.010661  -0.033986  0  3.966774  0
C  C117  1  0.78048408  0.40512588  0.34152886  1  0.023936  0  -0.010722  -0.034037  0  3.966952  0
C  C118  1  0.21951563  0.65847204  0.59487485  1  0.023844  0  -0.010647  -0.033889  0  3.966773  0
C  C119  1  0.21951622  0.93640304  0.34152850  1  -0.005413  0  -0.010661  -0.033919  0  3.966854  0
C  C120  1  0.78048300  0.65847204  0.06359661  1  -0.014775  0  -0.010687  -0.03394  0  3.966971  0
C  C121  1  0.78048462  0.34152732  0.93640227  1  -0.005492  0  -0.010661  -0.033937  0  3.966735  0
C  C122  1  0.21951651  0.06359741  0.65847232  1  -0.005395  0  -0.010697  -0.033981  0  3.966923  0
C  C123  1  0.21951628  0.34152887  0.40512643  1  0.025516  0  -0.010709  -0.033951  0  3.966742  0
C  C124  1  0.78048519  0.59487504  0.65847212  1  0.026186  0  -0.01069  -0.03395  0  3.966819  0
C  C125  1  0.21951514  0.40512551  0.06359742  1  -0.013705  0  -0.010699  -0.033958  0  3.966936  0
C  C126  1  0.21951545  0.06359757  0.40512511  1  -0.016851  0  -0.010665  -0.033958  0  3.966838  0
C  C127  1  0.78048465  0.40512490  0.06359743  1  -0.016923  0  -0.010691  -0.033925  0  3.96682  0
C  C128  1  0.21951563  0.93640249  0.59487427  1  -0.016898  0  -0.010727  -0.034065  0  3.966965  0
C  C129  1  0.21951568  0.59487421  0.65847172  1  0.023831  0  -0.010746  -0.034134  0  3.966905  0
C  C130  1  0.78048414  0.34152878  0.40512592  1  0.024089  0  -0.010723  -0.034085  0  3.966999  0
C  C131  1  0.78048437  0.06359778  0.65847227  1  -0.005509  0  -0.010707  -0.033971  0  3.966883  0
C  C132  1  0.21951511  0.34152721  0.93640206  1  -0.014716  0  -0.010626  -0.03389  0  3.966803  0
C  C133  1  0.21951597  0.65847213  0.06359713  1  -0.005502  0  -0.010673  -0.033924  0  3.966915  0
C  C134  1  0.78048325  0.93640295  0.34152798  1  -0.005491  0  -0.010704  -0.033971  0  3.966951  0
C  C135  1  0.78048514  0.65847267  0.59487453  1  0.025532  0  -0.010656  -0.033933  0  3.966723  0
C  C136  1  0.21951705  0.40512552  0.34152891  1  0.026043  0  -0.010694  -0.034017  0  3.966982  0
C  C137  1  0.78048545  0.59487492  0.93640191  1  -0.013676  0  -0.010675  -0.034023  0  3.966789  0
C  C138  1  0.73938494  0.99999987  0.60321026  1  0.032096  0  -0.061511  -0.092942  0  3.890697  0
C  C139  1  0.26061364  0.60321104  0.00000017  1  0.032001  0  -0.061499  -0.092857  0  3.890764  0
C  C140  1  0.73938557  0.99999865  0.39678854  1  0.032019  0  -0.061539  -0.092897  0  3.890655  0
C  C141  1  0.73938970  0.39678893  0.39678898  1  0.022483  0  -0.061526  -0.092897  0  3.890932  0
C  C142  1  0.26061419  0.60321051  0.60321042  1  0.022  0  -0.061516  -0.092877  0  3.890764  0
C  C143  1  0.26061483  0.00000020  0.39678947  1  0.032025  0  -0.06151  -0.09293  0  3.890743  0
C  C144  1  0.73938438  0.60321205  0.00000126  1  0.030143  0  -0.061465  -0.092889  0  3.890627  0
C  C145  1  0.73938438  0.39678970  0.00000052  1  0.032111  0  -0.061506  -0.092957  0  3.890575  0
C  C146  1  0.26061502  0.00000008  0.60321066  1  0.032064  0  -0.061476  -0.092841  0  3.890767  0
C  C147  1  0.26061483  0.39678976  0.39678971  1  0.023032  0  -0.061535  -0.092979  0  3.890834  0
C  C148  1  0.73938494  0.60321014  0.60321014  1  0.023054  0  -0.061528  -0.092959  0  3.89062  0
C  C149  1  0.26061447  0.39678916  0.99999988  1  0.030121  0  -0.061527  -0.092882  0  3.890688  0
C  C150  1  0.75642610  0.86703696  0.53064380  1  1.551426  0  0.244578  0.648661  0  4.099934  0
C  C151  1  0.24357403  0.53064459  0.86703655  1  1.551425  0  0.244557  0.64859  0  4.100045  0
C  C152  1  0.75642604  0.13296258  0.46935579  1  1.551396  0  0.244579  0.648655  0  4.099899  0
C  C153  1  0.75642509  0.46935594  0.33639260  1  1.559959  0  0.244586  0.64868  0  4.099869  0
C  C154  1  0.24357290  0.66360714  0.53064418  1  1.559685  0  0.244552  0.648571  0  4.099916  0
C  C155  1  0.24357272  0.86703688  0.33639213  1  1.564535  0  0.244592  0.64866  0  4.099927  0
C  C156  1  0.75642408  0.66360787  0.13296326  1  1.564459  0  0.244576  0.648623  0  4.100031  0
C  C157  1  0.75642723  0.33639213  0.86703678  1  1.564418  0  0.244557  0.648633  0  4.099834  0
C  C158  1  0.24357385  0.13296312  0.66360825  1  1.56438  0  0.24457  0.648611  0  4.100041  0
C  C159  1  0.24357532  0.33639378  0.46935711  1  1.560798  0  0.244571  0.6486  0  4.099747  0
C  C160  1  0.75642539  0.53064413  0.66360646  1  1.561259  0  0.244607  0.648674  0  4.099842  0
C  C161  1  0.24357419  0.46935548  0.13296284  1  1.551396  0  0.244568  0.648614  0  4.100042  0
C  C162  1  0.24357532  0.13296340  0.46935651  1  1.551434  0  0.24455  0.648592  0  4.100004  0
C  C163  1  0.75642491  0.46935584  0.13296277  1  1.551398  0  0.244529  0.648562  0  4.099963  0
C  C164  1  0.24357372  0.86703634  0.53064413  1  1.551421  0  0.244628  0.64877  0  4.099948  0
C  C165  1  0.24357467  0.53064351  0.66360679  1  1.559831  0  0.244616  0.648812  0  4.099721  0
C  C166  1  0.75642522  0.33639323  0.46935613  1  1.559789  0  0.244569  0.648645  0  4.099734  0
C  C167  1  0.75642622  0.13296302  0.66360772  1  1.564622  0  0.244593  0.648688  0  4.099938  0
C  C168  1  0.24357403  0.33639177  0.86703685  1  1.564435  0  0.24458  0.648628  0  4.100032  0
C  C169  1  0.24357501  0.66360778  0.13296307  1  1.564471  0  0.244576  0.648624  0  4.099975  0
C  C170  1  0.75642509  0.86703626  0.33639213  1  1.564491  0  0.244575  0.648631  0  4.100051  0
C  C171  1  0.75642445  0.66360658  0.53064320  1  1.560849  0  0.244553  0.648606  0  4.099734  0
C  C172  1  0.24357355  0.46935558  0.33639267  1  1.561411  0  0.244576  0.648655  0  4.099884  0
C  C173  1  0.75642558  0.53064416  0.86703727  1  1.551539  0  0.244578  0.648686  0  4.099874  0
O  O174  1  0.82330318  0.81743992  0.52000640  1  -1.152884  0  -0.357365  -0.609537  0  2.326176  0
O  O175  1  0.17669936  0.52000736  0.81744022  1  -1.156291  0  -0.357345  -0.609493  0  2.326266  0
O  O176  1  0.82330315  0.18255971  0.47999225  1  -1.156262  0  -0.357357  -0.609509  0  2.326106  0
O  O177  1  0.82330216  0.47999301  0.29743261  1  -1.148499  0  -0.357359  -0.609528  0  2.326153  0
O  O178  1  0.17669579  0.70256689  0.52000738  1  -1.148707  0  -0.357373  -0.60955  0  2.326159  0
O  O179  1  0.17670054  0.81744079  0.29743349  1  -1.15535  0  -0.357357  -0.609523  0  2.326308  0
O  O180  1  0.82330123  0.70256788  0.18256072  1  -1.154488  0  -0.357334  -0.609465  0  2.326205  0
O  O181  1  0.82329933  0.29743333  0.81744002  1  -1.155151  0  -0.357326  -0.609503  0  2.326285  0
O  O182  1  0.17669761  0.18255991  0.70256704  1  -1.155208  0  -0.357365  -0.609506  0  2.326235  0
O  O183  1  0.17669575  0.29743328  0.47999367  1  -1.149055  0  -0.357355  -0.609525  0  2.326011  0
O  O184  1  0.82330335  0.52000683  0.70256676  1  -1.147932  0  -0.357397  -0.609581  0  2.326104  0
O  O185  1  0.17669878  0.47999281  0.18256083  1  -1.156418  0  -0.35735  -0.609516  0  2.326234  0
O  O186  1  0.17669906  0.18256051  0.47999292  1  -1.156158  0  -0.357348  -0.6095  0  2.326206  0
O  O187  1  0.82330040  0.47999320  0.18256081  1  -1.156059  0  -0.357324  -0.609509  0  2.326248  0
O  O188  1  0.17669909  0.81743973  0.52000714  1  -1.155758  0  -0.357355  -0.609553  0  2.32623  0
O  O189  1  0.17669596  0.52000625  0.70256606  1  -1.148112  0  -0.357347  -0.609574  0  2.32606  0
O  O190  1  0.82330397  0.29743340  0.47999392  1  -1.148165  0  -0.357334  -0.609498  0  2.325986  0
O  O191  1  0.82330005  0.18256003  0.70256728  1  -1.155384  0  -0.357334  -0.609522  0  2.326267  0
O  O192  1  0.17669854  0.29743222  0.81743985  1  -1.154517  0  -0.357353  -0.609506  0  2.32624  0
O  O193  1  0.17669878  0.70256730  0.18256002  1  -1.155237  0  -0.357349  -0.609498  0  2.326234  0
O  O194  1  0.82330133  0.81743954  0.29743236  1  -1.155202  0  -0.357342  -0.609496  0  2.32623  0
O  O195  1  0.82330401  0.70256735  0.52000637  1  -1.152335  0  -0.357354  -0.609515  0  2.325986  0
O  O196  1  0.17669724  0.47999262  0.29743263  1  -1.147959  0  -0.357374  -0.609568  0  2.326192  0
O  O197  1  0.82330263  0.52000702  0.81744000  1  -1.156451  0  -0.357352  -0.609514  0  2.326108  0
O  O198  1  0.67770604  0.86033343  0.48941422  1  -1.149694  0  -0.330662  -0.585015  0  2.22853  0
O  O199  1  0.32229487  0.48941451  0.86033358  1  -1.148052  0  -0.330676  -0.585046  0  2.22854  0
O  O200  1  0.67770771  0.13966616  0.51058433  1  -1.147183  0  -0.330684  -0.585031  0  2.228559  0
O  O201  1  0.67770510  0.51058597  0.37091914  1  -1.147866  0  -0.330666  -0.585015  0  2.228474  0
O  O202  1  0.32229205  0.62908148  0.48941509  1  -1.147917  0  -0.330647  -0.584948  0  2.228527  0
O  O203  1  0.32229525  0.86033475  0.37092056  1  -1.147717  0  -0.330703  -0.585078  0  2.228368  0
O  O204  1  0.67770572  0.62908133  0.13966621  1  -1.145329  0  -0.330676  -0.585031  0  2.228537  0
O  O205  1  0.67770390  0.37092008  0.86033416  1  -1.147724  0  -0.330713  -0.585064  0  2.228293  0
O  O206  1  0.32229466  0.13966620  0.62908079  1  -1.147693  0  -0.330664  -0.58503  0  2.228522  0
O  O207  1  0.32229290  0.37091828  0.51058561  1  -1.148098  0  -0.330701  -0.585008  0  2.228563  0
O  O208  1  0.67770699  0.48941472  0.62908103  1  -1.149515  0  -0.330654  -0.584985  0  2.228532  0
O  O209  1  0.32229421  0.51058579  0.13966660  1  -1.148137  0  -0.330685  -0.58505  0  2.228539  0
O  O210  1  0.32229373  0.13966674  0.51058537  1  -1.147246  0  -0.330664  -0.584976  0  2.228555  0
O  O211  1  0.67770572  0.51058566  0.13966601  1  -1.150284  0  -0.330661  -0.584984  0  2.228473  0
O  O212  1  0.32229371  0.86033382  0.48941454  1  -1.147204  0  -0.330668  -0.585036  0  2.228476  0
O  O213  1  0.32229301  0.48941459  0.62908189  1  -1.147944  0  -0.330702  -0.585079  0  2.228503  0
O  O214  1  0.67770688  0.37091835  0.51058574  1  -1.14789  0  -0.33069  -0.585006  0  2.228532  0
O  O215  1  0.67770452  0.13966607  0.62908021  1  -1.14772  0  -0.330698  -0.585074  0  2.228443  0
O  O216  1  0.32229405  0.37091929  0.86033383  1  -1.147503  0  -0.330674  -0.585033  0  2.228512  0
O  O217  1  0.32229504  0.62908055  0.13966588  1  -1.146751  0  -0.330674  -0.585043  0  2.228506  0
O  O218  1  0.67770510  0.86033371  0.37091906  1  -1.145188  0  -0.330654  -0.585014  0  2.228568  0
O  O219  1  0.67770686  0.62908234  0.48941443  1  -1.148132  0  -0.330686  -0.585006  0  2.228614  0
O  O220  1  0.32229360  0.51058609  0.37091973  1  -1.149537  0  -0.330637  -0.584958  0  2.2284  0
O  O221  1  0.67770803  0.48941556  0.86033364  1  -1.147328  0  -0.330682  -0.585037  0  2.228564  0
O  O222  1  0.66574500  0.71070054  0.42140116  1  -1.103965  0  -0.720113  -1.149898  0  1.920998  0
O  O223  1  0.33425488  0.42140093  0.71070128  1  -1.10457  0  -0.720112  -1.149925  0  1.921011  0
O  O224  1  0.66574515  0.28929943  0.57859882  1  -1.104158  0  -0.720117  -1.149964  0  1.921017  0
O  O225  1  0.66574488  0.57859890  0.28929955  1  -1.104343  0  -0.720113  -1.14994  0  1.921018  0
O  O226  1  0.33425296  0.71070093  0.42140149  1  -1.103609  0  -0.720136  -1.149968  0  1.92106  0
O  O227  1  0.33425449  0.71070115  0.28929971  1  -1.109789  0  -0.720112  -1.149922  0  1.921014  0
O  O228  1  0.66574571  0.71070075  0.28929937  1  -1.10868  0  -0.720055  -1.14991  0  1.920998  0
O  O229  1  0.66574527  0.28929921  0.71070060  1  -1.108447  0  -0.720048  -1.149864  0  1.920951  0
O  O230  1  0.33425406  0.28929961  0.71070094  1  -1.108243  0  -0.720103  -1.149884  0  1.921001  0
O  O231  1  0.33425476  0.28929910  0.57859896  1  -1.104302  0  -0.720115  -1.149945  0  1.921005  0
O  O232  1  0.66574444  0.42140126  0.71070114  1  -1.104108  0  -0.720129  -1.149954  0  1.92103  0
O  O233  1  0.33425284  0.57859838  0.28929897  1  -1.103571  0  -0.720081  -1.14999  0  1.921043  0
O  O234  1  0.99999958  0.72051396  0.44102539  1  -1.010584  0  -0.710232  -0.986252  0  1.732864  0
O  O235  1  0.99999983  0.44102497  0.72051326  1  -1.010854  0  -0.710231  -0.986207  0  1.732857  0
O  O236  1  0.99999968  0.27948621  0.55897454  1  -1.010752  0  -0.710223  -0.986216  0  1.732851  0
O  O237  1  0.99999911  0.55897277  0.27948601  1  -1.010201  0  -0.710211  -0.986232  0  1.732839  0
O  O238  1  0.99999911  0.72051255  0.27948777  1  -1.010722  0  -0.710233  -0.986204  0  1.732917  0
O  O239  1  0.99999951  0.27948774  0.72051318  1  -1.00992  0  -0.710234  -0.986208  0  1.732872  0
O  O240  1  0.82653827  0.75713011  0.37856479  1  -1.121892  0  -0.739853  -1.172646  0  1.991228  0
O  O241  1  0.17346079  0.37856497  0.75713020  1  -1.121834  0  -0.73983  -1.172649  0  1.99125  0
O  O242  1  0.82653767  0.24286992  0.62143530  1  -1.121819  0  -0.739834  -1.172634  0  1.991224  0
O  O243  1  0.82653992  0.62143531  0.37856484  1  -1.124113  0  -0.739859  -1.172667  0  1.991192  0
O  O244  1  0.17345962  0.62143492  0.37856486  1  -1.12383  0  -0.739869  -1.172708  0  1.991121  0
O  O245  1  0.17346127  0.75712999  0.37856455  1  -1.12219  0  -0.739837  -1.172673  0  1.991176  0
O  O246  1  0.82653815  0.62143493  0.24286965  1  -1.121757  0  -0.739854  -1.172683  0  1.991246  0
O  O247  1  0.82653779  0.37856536  0.75713018  1  -1.121789  0  -0.739835  -1.172626  0  1.991246  0
O  O248  1  0.17346149  0.24286980  0.62143506  1  -1.12182  0  -0.739823  -1.172652  0  1.991217  0
O  O249  1  0.17346067  0.37856460  0.62143501  1  -1.124178  0  -0.739809  -1.172633  0  1.991191  0
O  O250  1  0.82653932  0.37856472  0.62143526  1  -1.124171  0  -0.739825  -1.172674  0  1.991199  0
O  O251  1  0.17346115  0.62143527  0.24286986  1  -1.121842  0  -0.739838  -1.172697  0  1.991189  0
O  O252  1  0.49999937  0.78412073  0.39206022  1  -0.989185  0  -0.704958  -0.959072  0  1.71686  0
O  O253  1  0.49999973  0.39206012  0.78412054  1  -0.988921  0  -0.704958  -0.959039  0  1.716836  0
O  O254  1  0.50000039  0.21587918  0.60793963  1  -0.988872  0  -0.704959  -0.959069  0  1.716845  0
O  O255  1  0.49999607  0.60793880  0.39206116  1  -0.986444  0  -0.704958  -0.959064  0  1.716879  0
O  O256  1  0.50000003  0.60793978  0.21587932  1  -0.988848  0  -0.704958  -0.959063  0  1.716836  0
O  O257  1  0.50000039  0.39206209  0.60793862  1  -0.986443  0  -0.704941  -0.959067  0  1.716816  0
