# generated using pymatgen
data_Co2H27C34N3O10
_symmetry_space_group_name_H-M   'P 1'
_cell_length_a   9.86374398
_cell_length_b   17.56784177
_cell_length_c   19.73948400
_cell_angle_alpha   89.99993502
_cell_angle_beta   90.00018327
_cell_angle_gamma   101.22021946
_symmetry_Int_Tables_number   1
_chemical_formula_structural   Co2H27C34N3O10
_chemical_formula_sum   'Co8 H108 C136 N12 O40'
_cell_volume   3355.17191491
_cell_formula_units_Z   4
loop_
 _symmetry_equiv_pos_site_id
 _symmetry_equiv_pos_as_xyz
  1  'x, y, z'
loop_
 _atom_site_type_symbol
 _atom_site_label
 _atom_site_symmetry_multiplicity
 _atom_site_fract_x
 _atom_site_fract_y
 _atom_site_fract_z
 _atom_site_occupancy
 _atom_site_pbe_bader_charge
 _atom_site_pbe_bader_spin_density
 _atom_site_pbe_cm5_charge
 _atom_site_pbe_ddec_charge
 _atom_site_pbe_ddec_spin_density
 _atom_site_pbe_ddec_sum_bond_order
 _atom_site_pbe_magmom
Co  Co0  1  0.43914709  0.96012122  0.54073386  1  1.191675  2.596383  0.611414  0.766065  2.825532  2.745055  2.58
Co  Co1  1  0.06085061  0.03983351  0.04063280  1  1.190339  2.596202  0.611576  0.766555  2.825327  2.74386  2.58
Co  Co2  1  0.56086496  0.03983558  0.45936553  1  1.190022  2.596196  0.611547  0.766549  2.825304  2.74371  2.58
Co  Co3  1  0.93913568  0.96011931  0.95926597  1  1.191554  2.596366  0.611454  0.766081  2.825528  2.74533  2.58
Co  Co4  1  0.64311436  0.44223052  0.44435284  1  1.331051  2.624826  0.66021  1.01046  2.821646  2.350975  2.61
Co  Co5  1  0.85691268  0.55774462  0.94441263  1  1.331586  2.624754  0.660498  1.010984  2.821782  2.350903  2.61
Co  Co6  1  0.35690487  0.55773787  0.55558190  1  1.331522  2.624741  0.660471  1.010941  2.82176  2.351024  2.61
Co  Co7  1  0.14312283  0.44223243  0.05564471  1  1.331094  2.624839  0.66021  1.010467  2.821651  2.350827  2.61
H  H8  1  0.83593815  0.54623940  0.53047475  1  0.64319  0.001828  0.292141  0.391789  0.001125  0.93722  0.002
H  H9  1  0.66406378  0.45374652  0.03050515  1  0.64349  0.001825  0.292149  0.391839  0.001124  0.937107  0.002
H  H10  1  0.16405266  0.45374304  0.46949242  1  0.643407  0.001825  0.292099  0.391714  0.001124  0.937289  0.002
H  H11  1  0.33595543  0.54624162  0.96952939  1  0.643073  0.001829  0.292095  0.391762  0.001126  0.937268  0.002
H  H12  1  0.67722417  0.55831367  0.52840212  1  0.633371  0.000322  0.304114  0.396127  1.8e-05  0.926111  0.0
H  H13  1  0.82276427  0.44163744  0.02843634  1  0.646395  0.000305  0.304369  0.396579  1.8e-05  0.925564  0.0
H  H14  1  0.32274968  0.44162991  0.47156251  1  0.646424  0.000305  0.304369  0.396562  1.9e-05  0.925575  0.0
H  H15  1  0.17724128  0.55831822  0.97160074  1  0.633417  0.000323  0.304115  0.396128  1.9e-05  0.926115  0.0
H  H16  1  0.84425083  0.37571418  0.47678702  1  0.662066  0.000238  0.28458  0.372354  0.000219  0.977498  0.0
H  H17  1  0.65577429  0.62429465  0.97681095  1  0.659012  0.000247  0.284515  0.372277  0.00022  0.977605  0.0
H  H18  1  0.15577077  0.62429197  0.52319129  1  0.658976  0.000247  0.284529  0.372283  0.00022  0.97761  0.0
H  H19  1  0.34425624  0.37571379  0.02321396  1  0.662102  0.000238  0.284608  0.372442  0.000219  0.977377  0.0
H  H20  1  0.74893034  0.36720378  0.54193758  1  0.591592  7.1e-05  0.30875  0.38897  -0.000112  0.911471  0.0
H  H21  1  0.75104941  0.63280778  0.04197554  1  0.590714  7.2e-05  0.308684  0.388851  -0.000111  0.911698  0.0
H  H22  1  0.25103033  0.63280492  0.45802249  1  0.590671  7.2e-05  0.308668  0.388898  -0.000111  0.911749  0.0
H  H23  1  0.24893900  0.36720198  0.95806204  1  0.591581  7e-05  0.308733  0.388931  -0.000112  0.911532  0.0
H  H24  1  0.47668125  0.72663846  0.47380014  1  0.10946  0.000419  0.103222  0.112963  0.000161  1.061672  0.0
H  H25  1  0.02324955  0.27330582  0.97382523  1  0.10921  0.00042  0.103182  0.112924  0.000162  1.061503  0.0
H  H26  1  0.52324922  0.27330004  0.52617614  1  0.109222  0.00042  0.103217  0.112889  0.000162  1.061604  0.0
H  H27  1  0.97668749  0.72664254  0.02619918  1  0.109506  0.000419  0.103207  0.112938  0.000161  1.061738  0.0
H  H28  1  0.69697051  0.63345149  0.31663060  1  0.089215  0.000181  0.105668  0.117599  3.4e-05  1.042986  0.0
H  H29  1  0.80302878  0.36658716  0.81665960  1  0.089169  0.000181  0.105754  0.117743  3.3e-05  1.04312  0.0
H  H30  1  0.30303374  0.36658552  0.68333707  1  0.089219  0.000181  0.10569  0.117621  3.3e-05  1.043181  0.0
H  H31  1  0.19697043  0.63345278  0.18336988  1  0.089278  0.000182  0.105707  0.11768  3.4e-05  1.042929  0.0
H  H32  1  0.69653422  0.88066288  0.32575635  1  0.088912  0.00042  0.105116  0.111812  0.000264  1.050886  0.0
H  H33  1  0.80342690  0.11935964  0.82570150  1  0.089608  0.00042  0.105075  0.111731  0.000264  1.050971  0.0
H  H34  1  0.30343020  0.11935917  0.67430201  1  0.089187  0.00042  0.105082  0.111719  0.000264  1.050959  0.0
H  H35  1  0.19653067  0.88066593  0.17424489  1  0.088807  0.00042  0.105073  0.111751  0.000264  1.050996  0.0
H  H36  1  0.90375278  0.68302099  0.26629610  1  0.053162  8.8e-05  0.100304  0.077465  2.2e-05  1.022617  0.0
H  H37  1  0.59631962  0.31705286  0.76630809  1  0.052893  8.8e-05  0.100306  0.077401  2.2e-05  1.022626  0.0
H  H38  1  0.09631211  0.31704950  0.73368627  1  0.052888  8.8e-05  0.10029  0.077347  2.2e-05  1.022672  0.0
H  H39  1  0.40375161  0.68302400  0.23370619  1  0.053283  8.8e-05  0.100285  0.077429  2.2e-05  1.022596  0.0
H  H40  1  0.93002122  0.73576802  0.19020190  1  0.092941  0.000144  0.106925  0.090299  2.4e-05  1.061275  0.0
H  H41  1  0.56995346  0.26432309  0.69021847  1  0.089988  0.000144  0.10688  0.090255  2.3e-05  1.061622  0.0
H  H42  1  0.06995151  0.26432257  0.80977945  1  0.089994  0.000144  0.106866  0.090255  2.3e-05  1.061655  0.0
H  H43  1  0.43001260  0.73576868  0.30980239  1  0.092757  0.000144  0.106953  0.090315  2.4e-05  1.061244  0.0
H  H44  1  0.86167904  0.55740350  0.21254295  1  0.084807  7.2e-05  0.1058  0.117982  -1.5e-05  0.985365  0.0
H  H45  1  0.63836829  0.44266640  0.71253310  1  0.080129  7.2e-05  0.105792  0.117835  -1.5e-05  0.985541  0.0
H  H46  1  0.13835816  0.44267174  0.78746474  1  0.079878  7.2e-05  0.105797  0.11792  -1.5e-05  0.985534  0.0
H  H47  1  0.36167132  0.55740708  0.28745433  1  0.085149  7.2e-05  0.105815  0.118085  -1.5e-05  0.985224  0.0
H  H48  1  0.69204840  0.45486941  0.15518219  1  0.059474  0.000283  0.105565  0.103438  9.6e-05  1.001252  0.0
H  H49  1  0.80801525  0.54518478  0.65515732  1  0.059491  0.000283  0.10563  0.103473  9.6e-05  1.001129  0.0
H  H50  1  0.30799978  0.54518836  0.84484323  1  0.059218  0.000283  0.105567  0.103501  9.6e-05  1.001152  0.0
H  H51  1  0.19204646  0.45486829  0.34481339  1  0.059672  0.000283  0.105567  0.103462  9.6e-05  1.001172  0.0
H  H52  1  0.43374276  0.62000553  0.11194470  1  0.089334  8.4e-05  0.105168  0.111672  -2.9e-05  0.997134  0.0
H  H53  1  0.06630343  0.38002394  0.61196114  1  0.099085  8.2e-05  0.105149  0.111569  -2.9e-05  0.997159  0.0
H  H54  1  0.56629023  0.38002963  0.88804019  1  0.098665  8.2e-05  0.10517  0.111573  -2.9e-05  0.997217  0.0
H  H55  1  0.93373841  0.62000480  0.38806073  1  0.089334  8.4e-05  0.105137  0.111629  -2.9e-05  0.997111  0.0
H  H56  1  0.61266461  0.72514732  0.16376783  1  0.091863  3.1e-05  0.098074  0.09918  1.2e-05  1.049159  0.0
H  H57  1  0.88735814  0.27490295  0.66379554  1  0.092803  3.1e-05  0.098153  0.099341  1.2e-05  1.049139  0.0
H  H58  1  0.38734852  0.27490884  0.83620440  1  0.093124  3.1e-05  0.098136  0.099315  1.2e-05  1.049104  0.0
H  H59  1  0.11265735  0.72514564  0.33623495  1  0.091841  3.1e-05  0.098079  0.099173  1.2e-05  1.049179  0.0
H  H60  1  0.77194883  0.88681005  0.23043274  1  0.052386  -2.2e-05  0.105068  0.086926  -3.2e-05  1.033249  0.0
H  H61  1  0.72807690  0.11325586  0.73037322  1  0.053722  -2.2e-05  0.105114  0.087125  -3.2e-05  1.033228  0.0
H  H62  1  0.22809055  0.11325996  0.76963068  1  0.053478  -2.2e-05  0.105112  0.087097  -3.2e-05  1.033192  0.0
H  H63  1  0.27195113  0.88681360  0.26956659  1  0.052483  -2.3e-05  0.105082  0.086892  -3.3e-05  1.033245  0.0
H  H64  1  0.89596094  0.85019793  0.18420926  1  0.085207  -0.000106  0.112281  0.103237  -0.000151  0.997781  0.0
H  H65  1  0.60402344  0.14989489  0.68417635  1  0.084418  -0.000106  0.112243  0.103034  -0.000152  0.997649  0.0
H  H66  1  0.10403531  0.14989605  0.81582630  1  0.084414  -0.000106  0.112248  0.103026  -0.000152  0.997647  0.0
H  H67  1  0.39595298  0.85020034  0.31579436  1  0.085142  -0.000106  0.112313  0.103281  -0.000151  0.99775  0.0
H  H68  1  0.93826862  0.79265740  0.35244675  1  0.057194  0.000131  0.10345  0.103391  4.5e-05  1.03395  0.0
H  H69  1  0.56167359  0.20738261  0.85241625  1  0.057578  0.000131  0.103502  0.103515  4.5e-05  1.033531  0.0
H  H70  1  0.06168072  0.20737633  0.64758425  1  0.057355  0.000131  0.103485  0.103457  4.5e-05  1.033622  0.0
H  H71  1  0.43828146  0.79265575  0.14756206  1  0.057482  0.000131  0.10349  0.103487  4.6e-05  1.033863  0.0
H  H72  1  0.11831878  0.85620674  0.43265585  1  0.111428  0.00027  0.110272  0.119668  0.000133  0.98565  0.0
H  H73  1  0.38160201  0.14377827  0.93260769  1  0.112988  0.00027  0.110291  0.11976  0.000132  0.985557  0.0
H  H74  1  0.88160134  0.14377364  0.56739693  1  0.113159  0.00027  0.110272  0.119708  0.000132  0.985351  0.0
H  H75  1  0.61832846  0.85620556  0.06735339  1  0.111773  0.000271  0.110259  0.119644  0.000133  0.985698  0.0
H  H76  1  0.19818159  0.05870783  0.30605018  1  0.073645  0.000407  0.096799  0.091906  0.000187  1.04541  0.0
H  H77  1  0.30194141  0.94128639  0.80597118  1  0.074164  0.000406  0.096572  0.091674  0.000186  1.045496  0.0
H  H78  1  0.80194720  0.94128340  0.69403604  1  0.074124  0.000407  0.096593  0.091664  0.000187  1.045541  0.0
H  H79  1  0.69817551  0.05871418  0.19395292  1  0.073496  0.000407  0.096732  0.091817  0.000187  1.045325  0.0
H  H80  1  0.01381981  0.99629640  0.22607734  1  0.080343  0.000198  0.102529  0.112372  4.3e-05  1.009139  0.0
H  H81  1  0.48631057  0.00373967  0.72601430  1  0.082344  0.000198  0.102539  0.112514  4.3e-05  1.009352  0.0
H  H82  1  0.98632354  0.00373835  0.77399013  1  0.082498  0.000198  0.102533  0.112506  4.3e-05  1.009432  0.0
H  H83  1  0.51381238  0.99630039  0.27392550  1  0.080295  0.000198  0.102573  0.112503  4.3e-05  1.009296  0.0
H  H84  1  0.23382749  0.97282723  0.66191719  1  0.10718  0.000807  0.118133  0.092437  0.000249  1.005267  0.001
H  H85  1  0.26613484  0.02712001  0.16186715  1  0.106063  0.000807  0.118095  0.09261  0.000249  1.005502  0.001
H  H86  1  0.76614623  0.02712448  0.33812596  1  0.106175  0.000806  0.118046  0.092571  0.000249  1.005417  0.001
H  H87  1  0.73380519  0.97282253  0.83807621  1  0.107237  0.000806  0.118174  0.092427  0.000249  1.005253  0.001
H  H88  1  0.09682279  0.88921040  0.74972185  1  0.094235  0.000635  0.108944  0.115825  0.000278  1.0187  0.0
H  H89  1  0.40314693  0.11075594  0.24965776  1  0.095132  0.000634  0.108755  0.115441  0.000278  1.018885  0.0
H  H90  1  0.90315559  0.11076279  0.25033802  1  0.095127  0.000634  0.108719  0.115393  0.000278  1.018997  0.0
H  H91  1  0.59679909  0.88920052  0.75027445  1  0.094371  0.000635  0.108948  0.115858  0.000278  1.01855  0.0
H  H92  1  0.19284065  0.69061922  0.64358045  1  0.091332  0.000394  0.109866  0.123388  -3.2e-05  1.015337  0.0
H  H93  1  0.30708898  0.30933048  0.14349979  1  0.09239  0.000393  0.110026  0.123569  -3.3e-05  1.015642  0.0
H  H94  1  0.80710106  0.30933087  0.35650120  1  0.092339  0.000392  0.110015  0.123606  -3.3e-05  1.015589  0.0
H  H95  1  0.69286529  0.69062072  0.85641165  1  0.091353  0.000393  0.109917  0.123438  -3.2e-05  1.015293  0.0
H  H96  1  0.31974645  0.78243753  0.55948915  1  0.136686  0.000888  0.11632  0.093912  0.00027  1.032017  0.001
H  H97  1  0.18018532  0.21749129  0.05942104  1  0.136386  0.000888  0.116538  0.094073  0.00027  1.031664  0.001
H  H98  1  0.68019550  0.21749338  0.44057730  1  0.136606  0.000887  0.116487  0.094076  0.00027  1.0318  0.001
H  H99  1  0.81976737  0.78244132  0.94050154  1  0.136984  0.000887  0.11628  0.093989  0.00027  1.032049  0.001
H  H100  1  0.12743935  0.81364480  0.84309518  1  0.11801  0.000999  0.111585  0.127134  0.000499  1.002367  0.0
H  H101  1  0.37255996  0.18632893  0.34303501  1  0.118037  0.000998  0.111582  0.12697  0.000498  1.00255  0.0
H  H102  1  0.87257167  0.18633466  0.15696621  1  0.118327  0.000998  0.111587  0.127  0.000498  1.002426  0.0
H  H103  1  0.62742422  0.81363785  0.65690328  1  0.118223  0.000998  0.111547  0.127088  0.000499  1.0023  0.0
H  H104  1  0.02671476  0.72145228  0.93214205  1  0.122794  0.001594  0.118465  0.088703  0.000439  1.028762  0.001
H  H105  1  0.47334283  0.27852409  0.43207030  1  0.12314  0.001593  0.118639  0.088828  0.000439  1.028689  0.001
H  H106  1  0.97335681  0.27852637  0.06793049  1  0.123182  0.001594  0.118666  0.088824  0.000439  1.028604  0.001
H  H107  1  0.52670150  0.72144363  0.56785836  1  0.122774  0.001594  0.118437  0.088633  0.00044  1.028773  0.001
H  H108  1  0.88951604  0.54707215  0.79306727  1  0.106542  0.001359  0.11975  0.09599  0.000173  1.008363  0.001
H  H109  1  0.61048100  0.45288982  0.29297854  1  0.106627  0.001359  0.119768  0.09599  0.000173  1.008385  0.001
H  H110  1  0.11048881  0.45289571  0.20701793  1  0.106421  0.001358  0.119834  0.096018  0.000173  1.008409  0.001
H  H111  1  0.38949477  0.54706479  0.70692834  1  0.106187  0.001359  0.119698  0.095923  0.000173  1.008455  0.001
H  H112  1  0.99282447  0.63082376  0.69693207  1  0.085093  0.000709  0.105952  0.111357  0.000354  1.038841  0.0
H  H113  1  0.50716446  0.36913423  0.19685288  1  0.083796  0.00071  0.105871  0.111599  0.000354  1.038928  0.0
H  H114  1  0.00716966  0.36914531  0.30314452  1  0.083842  0.000709  0.105954  0.111666  0.000354  1.038911  0.0
H  H115  1  0.49281147  0.63081515  0.80306362  1  0.085219  0.000709  0.105967  0.111411  0.000354  1.038887  0.0
C  C116  1  0.54770575  0.87830327  0.43642427  1  1.522659  -0.01227  0.217055  0.569183  -0.016622  4.150528  -0.011
C  C117  1  0.95222607  0.12164956  0.93635953  1  1.525608  -0.012272  0.217179  0.569962  -0.016636  4.149751  -0.011
C  C118  1  0.45223334  0.12164798  0.56364219  1  1.525677  -0.012273  0.217062  0.569839  -0.016637  4.149893  -0.011
C  C119  1  0.04769259  0.87830410  0.06357318  1  1.522072  -0.012274  0.217199  0.569505  -0.016628  4.150022  -0.011
C  C120  1  0.58376305  0.80968692  0.40200246  1  -0.030642  0.009659  -0.024757  -0.023859  0.005164  4.042974  0.008
C  C121  1  0.91618170  0.19028564  0.90197255  1  -0.032311  0.009664  -0.024926  -0.024265  0.005166  4.043264  0.008
C  C122  1  0.41618575  0.19028580  0.59802803  1  -0.03233  0.009665  -0.02494  -0.024372  0.005166  4.043294  0.008
C  C123  1  0.08374888  0.80968715  0.09799309  1  -0.030175  0.009659  -0.024807  -0.02369  0.005164  4.042442  0.008
C  C124  1  0.54198680  0.73543383  0.42917237  1  -0.049085  0.00059  -0.098959  -0.151466  -3.6e-05  3.963652  0.0
C  C125  1  0.95794503  0.26452481  0.92918400  1  -0.047594  0.000585  -0.098999  -0.151334  -4.1e-05  3.963727  0.0
C  C126  1  0.45795114  0.26452556  0.57081809  1  -0.047606  0.000586  -0.098993  -0.151278  -4e-05  3.963883  0.0
C  C127  1  0.04199027  0.73543285  0.07082826  1  -0.049087  0.000588  -0.098899  -0.1514  -3.8e-05  3.963753  0.0
C  C128  1  0.58560668  0.67294648  0.39795126  1  -0.060941  0.007932  -0.022813  -0.021878  0.004085  4.005957  0.006
C  C129  1  0.91436847  0.32703178  0.89798504  1  -0.061541  0.007939  -0.022556  -0.021517  0.004088  4.005638  0.006
C  C130  1  0.41436829  0.32703137  0.60201540  1  -0.061721  0.007937  -0.022597  -0.021531  0.004087  4.005712  0.006
C  C131  1  0.08561605  0.67295010  0.10204950  1  -0.060722  0.007933  -0.022757  -0.021995  0.004085  4.006103  0.006
C  C132  1  0.66585252  0.68400961  0.33891989  1  -0.022893  -0.001881  -0.094583  -0.203595  -0.002333  3.908023  -0.001
C  C133  1  0.83413387  0.31602094  0.83894038  1  -0.023064  -0.001892  -0.094705  -0.203953  -0.002344  3.908065  -0.001
C  C134  1  0.33413768  0.31601932  0.66105994  1  -0.022895  -0.00189  -0.094622  -0.203797  -0.002342  3.908166  -0.001
C  C135  1  0.16585823  0.68401612  0.16108302  1  -0.023004  -0.001884  -0.094653  -0.203667  -0.002336  3.907981  -0.001
C  C136  1  0.70655596  0.75897616  0.31046524  1  0.38957  0.001195  0.099083  0.179976  0.000529  4.059337  0.001
C  C137  1  0.79342569  0.24106430  0.81046041  1  0.389069  0.001196  0.099062  0.18006  0.000529  4.059214  0.001
C  C138  1  0.29343069  0.24106266  0.68953941  1  0.389247  0.001196  0.099141  0.180123  0.000529  4.05928  0.001
C  C139  1  0.20655153  0.75898501  0.18953259  1  0.388776  0.001196  0.099108  0.1801  0.000529  4.059134  0.001
C  C140  1  0.66478503  0.82151651  0.34374922  1  0.000336  -0.000451  -0.092722  -0.198644  -0.000736  3.948864  0.0
C  C141  1  0.83517393  0.17849961  0.84371514  1  0.000757  -0.000465  -0.09262  -0.198493  -0.000751  3.948635  0.0
C  C142  1  0.33517771  0.17849799  0.65628481  1  0.001173  -0.000463  -0.092724  -0.198515  -0.000748  3.948738  0.0
C  C143  1  0.16477796  0.82152423  0.15624645  1  0.001218  -0.000453  -0.092738  -0.198785  -0.000738  3.948632  0.0
C  C144  1  0.55591480  0.59496345  0.43157779  1  1.564195  0.006802  0.221832  0.596257  0.004357  4.139091  0.006
C  C145  1  0.94409662  0.40501640  0.93161812  1  1.564515  0.006783  0.221969  0.596395  0.004347  4.138758  0.006
C  C146  1  0.44409377  0.40501195  0.56837823  1  1.564027  0.006789  0.221951  0.596495  0.00435  4.13877  0.006
C  C147  1  0.05592194  0.59496710  0.06841997  1  1.563983  0.006806  0.221883  0.596493  0.004356  4.138806  0.006
C  C148  1  0.85015874  0.70997622  0.22651232  1  0.298976  9e-06  -0.059705  -0.119224  -3e-05  3.949497  0.0
C  C149  1  0.64985690  0.29009554  0.72651076  1  0.301856  9e-06  -0.05968  -0.118727  -3e-05  3.949305  0.0
C  C150  1  0.14985312  0.29009621  0.77348777  1  0.3018  9e-06  -0.059684  -0.118657  -3e-05  3.949091  0.0
C  C151  1  0.35015457  0.70997864  0.27348883  1  0.298836  9e-06  -0.059684  -0.119061  -3e-05  3.949315  0.0
C  C152  1  0.74698813  0.64774005  0.19171653  1  0.006297  0.002082  -0.010684  0.097297  0.001033  3.981569  0.001
C  C153  1  0.75305077  0.35232932  0.69172570  1  0.007301  0.002077  -0.010771  0.096648  0.001031  3.982204  0.001
C  C154  1  0.25304299  0.35233521  0.80827596  1  0.007293  0.002076  -0.010778  0.096699  0.00103  3.982171  0.001
C  C155  1  0.24698375  0.64774129  0.30828401  1  0.006519  0.002082  -0.010767  0.097265  0.001033  3.981664  0.001
C  C156  1  0.76900949  0.57149279  0.18954277  1  -0.014161  -3.7e-05  -0.092055  -0.136532  -0.000191  3.964231  0.0
C  C157  1  0.73102655  0.42857718  0.68953055  1  -0.008944  -3.5e-05  -0.091893  -0.136055  -0.00019  3.964115  0.0
C  C158  1  0.23101656  0.42858250  0.81046644  1  -0.008345  -3.5e-05  -0.091962  -0.136267  -0.000189  3.964373  0.0
C  C159  1  0.26899724  0.57149463  0.31045485  1  -0.014403  -3.7e-05  -0.092068  -0.136743  -0.000191  3.964348  0.0
C  C160  1  0.67299861  0.51378393  0.15818577  1  -0.044424  0.002716  -0.084629  -0.087062  0.001331  4.009746  0.002
C  C161  1  0.82705492  0.48627029  0.65816808  1  -0.04442  0.002712  -0.084934  -0.087193  0.00133  4.009577  0.002
C  C162  1  0.32704372  0.48627734  0.84183154  1  -0.04493  0.002711  -0.084824  -0.087241  0.00133  4.009533  0.002
C  C163  1  0.17299341  0.51378225  0.34181276  1  -0.044657  0.002716  -0.08462  -0.087054  0.001331  4.009617  0.002
C  C164  1  0.55105781  0.53083999  0.13112164  1  -0.078279  0.003563  -0.024967  -0.052761  0.001699  4.006619  0.003
C  C165  1  0.94900842  0.46920200  0.63112949  1  -0.082609  0.003572  -0.024816  -0.053314  0.001701  4.007374  0.003
C  C166  1  0.44899842  0.46921194  0.86887086  1  -0.081946  0.00357  -0.024744  -0.052989  0.001701  4.007278  0.003
C  C167  1  0.05105321  0.53084236  0.36887821  1  -0.078137  0.003563  -0.024901  -0.05265  0.001699  4.006516  0.003
C  C168  1  0.52869081  0.60713851  0.13340887  1  -0.068887  0.001818  -0.087536  -0.095827  0.000914  3.994692  0.001
C  C169  1  0.97135899  0.39290005  0.63342292  1  -0.078698  0.001817  -0.087494  -0.095447  0.000912  3.99453  0.001
C  C170  1  0.47134817  0.39291057  0.86658008  1  -0.079275  0.001817  -0.087458  -0.095443  0.000912  3.994583  0.001
C  C171  1  0.02868537  0.60713856  0.36659187  1  -0.069032  0.001818  -0.087543  -0.095847  0.000914  3.994703  0.001
C  C172  1  0.62788294  0.66538236  0.16215587  1  -0.094421  0.000278  -0.10032  -0.154216  0.000132  4.006781  0.0
C  C173  1  0.87214386  0.33466789  0.66217033  1  -0.093911  0.000278  -0.100346  -0.154245  0.000132  4.007129  0.0
C  C174  1  0.37213647  0.33467435  0.83783105  1  -0.093406  0.000278  -0.100376  -0.154314  0.000132  4.007019  0.0
C  C175  1  0.12787610  0.66538185  0.33784243  1  -0.094503  0.000278  -0.100246  -0.154096  0.000132  4.006679  0.0
C  C176  1  0.44559807  0.46951355  0.09833197  1  1.544506  0.002616  0.212162  0.581137  0.001199  4.193634  0.002
C  C177  1  0.05444396  0.53051304  0.59831126  1  1.546036  0.002615  0.212065  0.581473  0.001197  4.193995  0.002
C  C178  1  0.55443510  0.53051929  0.90168839  1  1.54652  0.002612  0.212004  0.581402  0.001196  4.19417  0.002
C  C179  1  0.94559321  0.46951397  0.40166908  1  1.544418  0.002618  0.212134  0.581079  0.001199  4.193554  0.002
C  C180  1  0.85207891  0.85143496  0.23519485  1  0.319486  4.8e-05  -0.055307  -0.117992  -5e-06  3.941353  0.0
C  C181  1  0.64794363  0.14863329  0.73515239  1  0.319367  4.7e-05  -0.05538  -0.117916  -5e-06  3.941078  0.0
C  C182  1  0.14795317  0.14863449  0.76484982  1  0.31968  4.7e-05  -0.055332  -0.117782  -5e-06  3.94104  0.0
C  C183  1  0.35207793  0.85143795  0.26480768  1  0.319319  4.7e-05  -0.055366  -0.117827  -5e-06  3.941344  0.0
C  C184  1  0.96334394  0.89007694  0.28383905  1  0.00964  -0.001404  -0.006226  0.103935  -0.001544  3.943486  -0.001
C  C185  1  0.53666187  0.10996635  0.78378480  1  -0.038584  -0.001407  -0.00612  0.104042  -0.001545  3.943903  -0.001
C  C186  1  0.03667392  0.10996409  0.71621778  1  -0.038255  -0.001408  -0.006125  0.103943  -0.001546  3.943953  -0.001
C  C187  1  0.46334308  0.89008112  0.21616565  1  0.009607  -0.001406  -0.00628  0.103814  -0.001546  3.943468  -0.001
C  C188  1  0.99420124  0.85114759  0.34196067  1  -0.0984  0.00091  -0.094475  -0.138956  0.000378  3.992482  0.001
C  C189  1  0.50578735  0.14887772  0.84191900  1  -0.051125  0.000912  -0.094323  -0.138829  0.000377  3.991536  0.001
C  C190  1  0.00579558  0.14887434  0.65808603  1  -0.050646  0.000912  -0.09419  -0.138586  0.000377  3.991715  0.001
C  C191  1  0.49420182  0.85114831  0.15804715  1  -0.098424  0.00091  -0.094567  -0.13914  0.000378  3.992317  0.001
C  C192  1  0.09444053  0.88639823  0.38731066  1  0.042775  -0.000548  -0.080396  -0.078389  -0.000897  3.966147  0.0
C  C193  1  0.40553579  0.11360113  0.88726054  1  0.039669  -0.000549  -0.080613  -0.07883  -0.000899  3.965509  0.0
C  C194  1  0.90554171  0.11359993  0.61274466  1  0.039763  -0.00055  -0.080796  -0.078987  -0.000899  3.965178  0.0
C  C195  1  0.59444561  0.88639471  0.11269801  1  0.042336  -0.00055  -0.080283  -0.078229  -0.000899  3.965966  0.0
C  C196  1  0.16935335  0.96117639  0.37444611  1  -0.104292  0.00966  -0.020907  -0.037983  0.005144  3.994152  0.008
C  C197  1  0.33064772  0.03881300  0.87437417  1  -0.101973  0.009658  -0.020719  -0.037855  0.005142  3.993858  0.008
C  C198  1  0.83065571  0.03880889  0.62563048  1  -0.102762  0.009661  -0.02062  -0.037656  0.005141  3.993609  0.008
C  C199  1  0.66935124  0.96117522  0.12556007  1  -0.103797  0.00966  -0.020918  -0.037975  0.005144  3.994073  0.008
C  C200  1  0.13968363  0.00062750  0.31626927  1  -0.028954  -0.000339  -0.088315  -0.100031  -0.000949  4.001729  0.0
C  C201  1  0.36041311  0.99936680  0.81621412  1  -0.029055  -0.000341  -0.088136  -0.099413  -0.000954  4.000886  0.0
C  C202  1  0.86041886  0.99936673  0.68379161  1  -0.028846  -0.000342  -0.088196  -0.099544  -0.000954  4.001117  0.0
C  C203  1  0.63967827  0.00063037  0.18373278  1  -0.028851  -0.00034  -0.088254  -0.099812  -0.00095  4.001381  0.0
C  C204  1  0.03643615  0.96570633  0.27165050  1  -0.105366  0.001091  -0.094062  -0.146457  0.000483  3.970171  0.001
C  C205  1  0.46362278  0.03432475  0.77158284  1  -0.108498  0.001092  -0.094236  -0.147203  0.000484  3.970362  0.001
C  C206  1  0.96363464  0.03432114  0.72842153  1  -0.109388  0.001092  -0.094158  -0.147035  0.000484  3.970353  0.001
C  C207  1  0.53643856  0.96571031  0.22835393  1  -0.105656  0.001092  -0.094059  -0.146688  0.000484  3.970479  0.001
C  C208  1  0.28552465  0.99134270  0.42123971  1  1.540381  -0.008247  0.212278  0.573102  -0.01142  4.167116  -0.008
C  C209  1  0.21443978  0.00861717  0.92114532  1  1.540683  -0.008286  0.211497  0.572201  -0.011459  4.167849  -0.008
C  C210  1  0.71444752  0.00861598  0.57885816  1  1.540927  -0.008286  0.211407  0.572073  -0.011456  4.168231  -0.008
C  C211  1  0.78551579  0.99134333  0.07876510  1  1.540145  -0.008248  0.212319  0.573107  -0.011421  4.167163  -0.008
C  C212  1  0.22261624  0.90986963  0.66020187  1  0.493832  0.000126  0.050765  0.100105  -0.00046  3.935253  0.001
C  C213  1  0.27732947  0.09007651  0.16014317  1  0.492244  0.000127  0.051048  0.099783  -0.00046  3.935876  0.001
C  C214  1  0.77734007  0.09008157  0.33984989  1  0.492148  0.000128  0.051087  0.099935  -0.00046  3.935667  0.001
C  C215  1  0.72259171  0.90986435  0.83979208  1  0.493913  0.000127  0.050698  0.10005  -0.00046  3.935026  0.001
C  C216  1  0.14701669  0.86275241  0.70926188  1  -0.047246  -0.000917  -0.084526  -0.184691  -0.001522  3.951185  0.0
C  C217  1  0.35294317  0.13720411  0.20919413  1  -0.046722  -0.000915  -0.08469  -0.184413  -0.001519  3.950878  0.0
C  C218  1  0.85295714  0.13721092  0.29080255  1  -0.046564  -0.000914  -0.08467  -0.184431  -0.001518  3.951023  0.0
C  C219  1  0.64700199  0.86274712  0.79073301  1  -0.0477  -0.000915  -0.084582  -0.184712  -0.00152  3.951122  0.0
C  C220  1  0.13688726  0.78187288  0.70621928  1  -0.030729  -0.001742  0.009453  0.100015  -0.002132  3.982737  0.0
C  C221  1  0.36307970  0.21808652  0.20615096  1  -0.061768  -0.001739  0.009208  0.099695  -0.002131  3.982289  0.0
C  C222  1  0.86309487  0.21809100  0.29384717  1  -0.062289  -0.001738  0.009301  0.099767  -0.002129  3.982393  0.0
C  C223  1  0.63687967  0.78186756  0.79377821  1  -0.030845  -0.001742  0.009602  0.100178  -0.002131  3.982775  0.0
C  C224  1  0.19760558  0.75268901  0.65003652  1  0.017444  -0.000951  -0.081148  -0.166993  -0.001596  3.911827  0.0
C  C225  1  0.30233954  0.24726701  0.14996807  1  0.048615  -0.000951  -0.081408  -0.167438  -0.001595  3.913122  0.0
C  C226  1  0.80235119  0.24726915  0.35002639  1  0.049061  -0.00095  -0.081481  -0.167524  -0.001594  3.913016  0.0
C  C227  1  0.69761315  0.75268826  0.84995806  1  0.017555  -0.00095  -0.081222  -0.167159  -0.001595  3.912111  0.0
C  C228  1  0.27080450  0.80398257  0.60303583  1  0.469367  -1.3e-05  0.05006  0.09848  -0.000621  3.922236  0.001
C  C229  1  0.22914633  0.19596474  0.10296985  1  0.469663  -1.7e-05  0.049993  0.098454  -0.000621  3.922282  0.001
C  C230  1  0.72916213  0.19596916  0.39702758  1  0.469786  -1.7e-05  0.050061  0.098461  -0.000621  3.922574  0.001
C  C231  1  0.77080548  0.80398240  0.89695780  1  0.469056  -1.3e-05  0.05004  0.098363  -0.000621  3.9223  0.001
C  C232  1  0.07040273  0.73024995  0.76094764  1  -0.013546  -0.016423  0.009093  0.101815  -0.017954  3.978489  -0.01
C  C233  1  0.42955649  0.26971235  0.26088190  1  -0.014404  -0.01641  0.008985  0.10168  -0.017936  3.978545  -0.01
C  C234  1  0.92956144  0.26972039  0.23911629  1  -0.014088  -0.016405  0.00898  0.101739  -0.017931  3.97852  -0.01
C  C235  1  0.57039641  0.73024350  0.73904980  1  -0.013638  -0.016412  0.009078  0.101926  -0.017942  3.978744  -0.01
C  C236  1  0.07690898  0.75502884  0.82873410  1  -0.027951  0.006251  -0.081157  -0.171593  0.00267  3.923784  0.005
C  C237  1  0.42309087  0.24494664  0.32867345  1  -0.025407  0.006245  -0.080754  -0.170856  0.002669  3.923626  0.005
C  C238  1  0.92310085  0.24495295  0.17132729  1  -0.026723  0.006243  -0.080734  -0.170822  0.002669  3.923455  0.005
C  C239  1  0.57690001  0.75502186  0.67126383  1  -0.028104  0.006251  -0.081317  -0.171821  0.00267  3.923706  0.005
C  C240  1  0.01933628  0.70367853  0.87926681  1  0.441537  -0.010682  0.047221  0.09801  -0.011548  3.952495  -0.006
C  C241  1  0.48071331  0.29629906  0.37919860  1  0.440903  -0.010673  0.046704  0.097474  -0.011538  3.952603  -0.006
C  C242  1  0.98072153  0.29630134  0.12080319  1  0.441574  -0.010669  0.046713  0.097518  -0.011534  3.952603  -0.006
C  C243  1  0.51932067  0.70366521  0.62073057  1  0.442384  -0.010679  0.047469  0.098403  -0.011544  3.952435  -0.006
C  C244  1  0.94431849  0.60637596  0.80168858  1  0.492394  -0.011455  0.048606  0.103029  -0.012839  3.929856  -0.007
C  C245  1  0.55568876  0.39358887  0.30160236  1  0.486355  -0.01144  0.04818  0.102668  -0.012828  3.930281  -0.007
C  C246  1  0.05569753  0.39359477  0.19839713  1  0.486532  -0.011434  0.048112  0.102778  -0.012822  3.930218  -0.007
C  C247  1  0.44430321  0.60636567  0.69831162  1  0.492659  -0.011452  0.048663  0.103178  -0.012835  3.930055  -0.007
C  C248  1  0.00233824  0.65354515  0.74841386  1  -0.039137  0.005954  -0.08378  -0.174699  0.00259  3.930825  0.005
C  C249  1  0.49764718  0.34641125  0.24833397  1  -0.029531  0.005943  -0.083303  -0.174614  0.002592  3.931041  0.005
C  C250  1  0.99765342  0.34641986  0.25166425  1  -0.029864  0.005941  -0.083472  -0.174936  0.002591  3.931316  0.005
C  C251  1  0.50233000  0.65354160  0.75158456  1  -0.039087  0.005955  -0.083785  -0.17481  0.002591  3.930869  0.005
N  N252  1  0.28753390  0.88164058  0.60867780  1  -1.245468  0.038199  -0.306715  -0.212227  0.02223  3.426705  0.03
N  N253  1  0.21242060  0.11830555  0.10861440  1  -1.246237  0.03819  -0.306644  -0.211808  0.022215  3.426526  0.03
N  N254  1  0.71243598  0.11831172  0.39138106  1  -1.246246  0.038175  -0.306556  -0.211845  0.022213  3.426723  0.03
N  N255  1  0.78752755  0.88163986  0.89131629  1  -1.245177  0.03819  -0.306676  -0.212153  0.022226  3.426278  0.03
N  N256  1  0.95253135  0.63043904  0.86683415  1  -1.216658  0.055266  -0.324084  -0.264706  0.028532  3.56665  0.05
N  N257  1  0.54749545  0.36953963  0.36675199  1  -1.219278  0.055248  -0.323657  -0.264313  0.02853  3.566901  0.05
N  N258  1  0.04749811  0.36954093  0.13324751  1  -1.219221  0.055244  -0.323665  -0.264418  0.028531  3.566878  0.05
N  N259  1  0.45251630  0.63043053  0.63316756  1  -1.217614  0.055272  -0.324144  -0.264965  0.028535  3.56736  0.05
N  N260  1  0.78921143  0.77238718  0.25354081  1  -1.175736  0.000855  -0.299394  -0.091121  0.000412  3.649032  0.001
N  N261  1  0.71077229  0.22767422  0.75353738  1  -1.176857  0.000856  -0.299263  -0.091125  0.000412  3.648979  0.001
N  N262  1  0.21077867  0.22767545  0.74646536  1  -1.177025  0.000855  -0.299317  -0.091312  0.000412  3.649139  0.001
N  N263  1  0.28920530  0.77239310  0.24646018  1  -1.175513  0.000855  -0.299427  -0.091404  0.000412  3.649082  0.001
O  O264  1  0.47777775  0.86749244  0.49120680  1  -1.1322  0.090086  -0.299319  -0.506751  0.047225  2.385129  0.08
O  O265  1  0.02220064  0.13248535  0.99112667  1  -1.133709  0.090104  -0.299532  -0.507305  0.047225  2.384765  0.08
O  O266  1  0.52219719  0.13248250  0.50887283  1  -1.133734  0.0901  -0.299431  -0.507151  0.047222  2.384828  0.08
O  O267  1  0.97777903  0.86749713  0.00878477  1  -1.132497  0.090108  -0.299439  -0.506924  0.047236  2.384979  0.08
O  O268  1  0.58966571  0.94504359  0.40972347  1  -1.13111  0.088212  -0.301484  -0.516479  0.046129  2.396838  0.079
O  O269  1  0.91025414  0.05490175  0.90966684  1  -1.131721  0.088196  -0.30138  -0.516574  0.046121  2.396833  0.079
O  O270  1  0.41027047  0.05489954  0.59033488  1  -1.131723  0.088208  -0.301302  -0.516491  0.046127  2.396901  0.079
O  O271  1  0.08963994  0.94504270  0.09027956  1  -1.130814  0.088212  -0.301398  -0.516554  0.046129  2.396959  0.079
O  O272  1  0.52210111  0.59425957  0.49472582  1  -1.188347  0.07426  -0.322964  -0.60715  0.037776  2.430042  0.061
O  O273  1  0.97793048  0.40569054  0.99476569  1  -1.18813  0.074256  -0.322999  -0.607185  0.037787  2.429808  0.061
O  O274  1  0.47791607  0.40568326  0.50522919  1  -1.187934  0.074247  -0.323032  -0.607321  0.037785  2.430011  0.061
O  O275  1  0.02211171  0.59426266  0.00527037  1  -1.188303  0.074262  -0.32298  -0.607212  0.037775  2.429849  0.061
O  O276  1  0.57526413  0.53604202  0.39864688  1  -1.156104  0.07224  -0.300986  -0.546388  0.036837  2.324453  0.061
O  O277  1  0.92478631  0.46395398  0.89870992  1  -1.156387  0.072195  -0.301212  -0.546767  0.036819  2.324888  0.061
O  O278  1  0.42478872  0.46394949  0.60128685  1  -1.156127  0.072194  -0.301091  -0.546702  0.036817  2.324788  0.061
O  O279  1  0.07526888  0.53604973  0.10135249  1  -1.156024  0.072228  -0.301034  -0.546554  0.036831  2.324427  0.061
O  O280  1  0.31970909  0.47016199  0.11262809  1  -1.151712  0.068412  -0.318454  -0.574787  0.034982  2.357094  0.057
O  O281  1  0.18033580  0.52983552  0.61256908  1  -1.151092  0.068418  -0.318479  -0.574852  0.034993  2.357097  0.057
O  O282  1  0.68032850  0.52984352  0.88742824  1  -1.151196  0.068418  -0.318418  -0.574849  0.034992  2.356978  0.057
O  O283  1  0.81970007  0.47015954  0.38737326  1  -1.151711  0.068417  -0.318469  -0.574791  0.034986  2.356972  0.057
O  O284  1  0.48697178  0.42104008  0.05864862  1  -1.182753  0.007647  -0.314465  -0.555239  0.003398  2.147497  0.006
O  O285  1  0.01307310  0.57899233  0.55863083  1  -1.182854  0.007643  -0.314609  -0.555403  0.003395  2.147289  0.006
O  O286  1  0.51307256  0.57899562  0.94137275  1  -1.183274  0.007641  -0.314626  -0.555458  0.003394  2.147462  0.006
O  O287  1  0.98696532  0.42103816  0.44134849  1  -1.182725  0.007648  -0.314431  -0.555144  0.003397  2.147506  0.006
O  O288  1  0.39108170  0.03940730  0.39929543  1  -1.136824  0.092351  -0.314214  -0.530188  0.04837  2.292926  0.08
O  O289  1  0.10885355  0.96056489  0.89920446  1  -1.137984  0.092407  -0.313604  -0.529488  0.048408  2.294077  0.08
O  O290  1  0.60886661  0.96055554  0.60079483  1  -1.137986  0.092413  -0.313659  -0.529479  0.048408  2.294059  0.08
O  O291  1  0.89107485  0.03941313  0.10070394  1  -1.136963  0.092365  -0.314161  -0.530129  0.048375  2.292923  0.08
O  O292  1  0.27598341  0.96223210  0.48067035  1  -1.127085  0.085875  -0.306603  -0.528651  0.044291  2.393627  0.079
O  O293  1  0.22397176  0.03771499  0.98058203  1  -1.125799  0.085927  -0.30638  -0.528279  0.044303  2.393698  0.079
O  O294  1  0.72397772  0.03771559  0.51942245  1  -1.125561  0.085923  -0.306259  -0.528261  0.044298  2.393876  0.079
O  O295  1  0.77599013  0.96222630  0.01933651  1  -1.126855  0.085875  -0.30671  -0.528731  0.044289  2.393824  0.079
O  O296  1  0.73822678  0.52097688  0.52160363  1  -1.253673  0.042281  -0.576621  -0.785168  0.021916  2.192633  0.034
O  O297  1  0.76179029  0.47898632  0.02164126  1  -1.267078  0.042327  -0.576916  -0.785847  0.021923  2.192177  0.034
O  O298  1  0.26178163  0.47898109  0.47835644  1  -1.266945  0.042327  -0.57689  -0.785702  0.021925  2.192364  0.034
O  O299  1  0.23824211  0.52098202  0.97840291  1  -1.253647  0.042288  -0.576589  -0.785169  0.021919  2.192682  0.034
O  O300  1  0.74560106  0.35771097  0.49319872  1  -1.230132  0.054843  -0.564976  -0.755486  0.028227  2.137722  0.045
O  O301  1  0.75442421  0.64228100  0.99323445  1  -1.226421  0.05484  -0.564908  -0.755345  0.028231  2.137748  0.045
O  O302  1  0.25441612  0.64227718  0.50676439  1  -1.226339  0.054839  -0.564904  -0.755428  0.02823  2.137685  0.045
O  O303  1  0.24560837  0.35770768  0.00680060  1  -1.230135  0.054844  -0.56502  -0.755545  0.028228  2.137524  0.045
