# generated using pymatgen
data_CdH8C6(IN)2
_symmetry_space_group_name_H-M   'P 1'
_cell_length_a   6.46672749
_cell_length_b   7.84798525
_cell_length_c   19.91604629
_cell_angle_alpha   100.97298044
_cell_angle_beta   89.99967990
_cell_angle_gamma   90.00020967
_symmetry_Int_Tables_number   1
_chemical_formula_structural   CdH8C6(IN)2
_chemical_formula_sum   'Cd4 H32 C24 I8 N8'
_cell_volume   992.27534685
_cell_formula_units_Z   4
loop_
 _symmetry_equiv_pos_site_id
 _symmetry_equiv_pos_as_xyz
  1  'x, y, z'
loop_
 _atom_site_type_symbol
 _atom_site_label
 _atom_site_symmetry_multiplicity
 _atom_site_fract_x
 _atom_site_fract_y
 _atom_site_fract_z
 _atom_site_occupancy
 _atom_site_hle17_bader_spin_density
 _atom_site_hle17_ddec_charge
 _atom_site_hle17_ddec_spin_density
 _atom_site_hle17_ddec_sum_bond_order
 _atom_site_hle17_magmom
 _atom_site_hse06_10hf_bader_spin_density
 _atom_site_hse06_10hf_ddec_charge
 _atom_site_hse06_10hf_ddec_spin_density
 _atom_site_hse06_10hf_ddec_sum_bond_order
 _atom_site_hse06_10hf_magmom
 _atom_site_hse06_bader_spin_density
 _atom_site_hse06_ddec_charge
 _atom_site_hse06_ddec_spin_density
 _atom_site_hse06_ddec_sum_bond_order
 _atom_site_hse06_magmom
 _atom_site_pbe_bader_spin_density
 _atom_site_pbe_cm5_charge
 _atom_site_pbe_ddec_charge
 _atom_site_pbe_ddec_spin_density
 _atom_site_pbe_ddec_sum_bond_order
 _atom_site_pbe_magmom
Cd  Cd0  1  0.29693359  0.56133009  0.72828301  1  0  0.782756  0  2.005987  0  0  0.633518  0  2.433174  0  0  0.681592  0  2.399497  0  0  0.491142  0.597137  0  2.459626  0
Cd  Cd1  1  0.79693969  0.93867605  0.77171447  1  0  0.782761  0  2.005962  0  0  0.63352  0  2.433156  0  0  0.681595  0  2.399478  0  0  0.491148  0.597143  0  2.459582  0
Cd  Cd2  1  0.70306220  0.43867041  0.27171747  1  0  0.7828  0  2.005886  0  0  0.633564  0  2.433063  0  0  0.681638  0  2.399386  0  0  0.491146  0.597187  0  2.4595  0
Cd  Cd3  1  0.20306692  0.06132832  0.22828329  1  0  0.782779  0  2.005978  0  0  0.633533  0  2.433154  0  0  0.681608  0  2.399477  0  0  0.491149  0.597147  0  2.459608  0
H  H4  1  0.38452153  0.20449363  0.67875078  1  0  0.271556  0  0.949872  0  0  0.257081  0  1.021246  0  0  0.263726  0  1.016445  0  0  0.257722  0.252368  0  1.024525  0
H  H5  1  0.88452460  0.29551987  0.82124998  1  0  0.271608  0  0.94994  0  0  0.257097  0  1.021351  0  0  0.263742  0  1.016551  0  0  0.257709  0.252384  0  1.024627  0
H  H6  1  0.61548353  0.79550817  0.32125181  1  0  0.271526  0  0.949913  0  0  0.257092  0  1.021246  0  0  0.263737  0  1.016446  0  0  0.25775  0.252376  0  1.024531  0
H  H7  1  0.11548201  0.70448452  0.17875079  1  0  0.271621  0  0.94987  0  0  0.257117  0  1.021272  0  0  0.263763  0  1.016471  0  0  0.257723  0.252403  0  1.024557  0
H  H8  1  0.13006984  0.22253249  0.67960163  1  0  0.271352  0  0.94745  0  0  0.257761  0  1.017712  0  0  0.264192  0  1.013298  0  0  0.258758  0.253193  0  1.020736  0
H  H9  1  0.63007438  0.27747398  0.82039908  1  0  0.271346  0  0.947439  0  0  0.257761  0  1.017696  0  0  0.264193  0  1.013283  0  0  0.258763  0.253203  0  1.020716  0
H  H10  1  0.86993059  0.77746672  0.32040127  1  0  0.271352  0  0.947425  0  0  0.257769  0  1.017682  0  0  0.2642  0  1.013271  0  0  0.258781  0.253215  0  1.020705  0
H  H11  1  0.36992914  0.72253300  0.17960088  1  0  0.271345  0  0.947462  0  0  0.257757  0  1.017712  0  0  0.264187  0  1.0133  0  0  0.258759  0.253189  0  1.020734  0
H  H12  1  0.26693999  0.85224258  0.63169060  1  0  0.061864  0  0.996799  0  0  0.066052  0  1.072257  0  0  0.068618  0  1.069747  0  0  0.087402  0.06425  0  1.073974  0
H  H13  1  0.76693540  0.64775831  0.86830806  1  0  0.061848  0  0.996965  0  0  0.06607  0  1.072382  0  0  0.068636  0  1.069868  0  0  0.087413  0.064264  0  1.074103  0
H  H14  1  0.73305889  0.14775533  0.36831120  1  0  0.061826  0  0.996882  0  0  0.066004  0  1.072354  0  0  0.068568  0  1.069849  0  0  0.087339  0.0642  0  1.074067  0
H  H15  1  0.23305885  0.35224736  0.13168930  1  0  0.061828  0  0.996953  0  0  0.066008  0  1.072429  0  0  0.068573  0  1.069923  0  0  0.087383  0.064209  0  1.074138  0
H  H16  1  0.24954280  0.87320759  0.50727025  1  0  0.096489  0  0.968337  0  0  0.103498  0  1.037183  0  0  0.106927  0  1.035675  0  0  0.092904  0.101023  0  1.038413  0
H  H17  1  0.74954529  0.62678936  0.99272715  1  0  0.096454  0  0.96837  0  0  0.103495  0  1.037176  0  0  0.106924  0  1.035669  0  0  0.092916  0.101019  0  1.038413  0
H  H18  1  0.75045299  0.12679421  0.49273184  1  0  0.096481  0  0.968353  0  0  0.103498  0  1.037188  0  0  0.106928  0  1.035679  0  0  0.092892  0.10102  0  1.038425  0
H  H19  1  0.25044896  0.37320592  0.00726843  1  0  0.096488  0  0.968371  0  0  0.103484  0  1.037217  0  0  0.106913  0  1.03571  0  0  0.092891  0.10101  0  1.038448  0
H  H20  1  0.23861620  0.59598443  0.41979288  1  0  0.087721  0  0.978905  0  0  0.096542  0  1.046592  0  0  0.099486  0  1.044009  0  0  0.083358  0.09444  0  1.048421  0
H  H21  1  0.73861146  0.90401369  0.08020588  1  0  0.087701  0  0.978783  0  0  0.096497  0  1.046504  0  0  0.099442  0  1.04392  0  0  0.08337  0.094382  0  1.048354  0
H  H22  1  0.76139505  0.40401866  0.58020931  1  0  0.087726  0  0.97897  0  0  0.096589  0  1.046605  0  0  0.099534  0  1.044023  0  0  0.083383  0.094475  0  1.048449  0
H  H23  1  0.26137969  0.09598161  0.91979372  1  0  0.087719  0  0.978897  0  0  0.096526  0  1.046584  0  0  0.09947  0  1.044002  0  0  0.083375  0.0944  0  1.048431  0
H  H24  1  0.24374764  0.31304511  0.45942872  1  0  0.1048  0  0.971206  0  0  0.110846  0  1.040807  0  0  0.114273  0  1.040004  0  0  0.090661  0.108344  0  1.041616  0
H  H25  1  0.74375340  0.18695369  0.04056895  1  0  0.104829  0  0.971092  0  0  0.110866  0  1.040695  0  0  0.11428  0  1.039923  0  0  0.090649  0.108364  0  1.041511  0
H  H26  1  0.75625434  0.68696056  0.54057064  1  0  0.104764  0  0.971267  0  0  0.110813  0  1.040862  0  0  0.114249  0  1.040037  0  0  0.090639  0.10833  0  1.041665  0
H  H27  1  0.25623620  0.81304680  0.95943003  1  0  0.104756  0  0.971147  0  0  0.110814  0  1.040741  0  0  0.114252  0  1.03991  0  0  0.090639  0.108316  0  1.041552  0
H  H28  1  0.13159697  0.18500344  0.56760182  1  0  0.070269  0  0.937405  0  0  0.087268  0  1.002604  0  0  0.08823  0  1.001875  0  0  0.098548  0.086495  0  1.003256  0
H  H29  1  0.63160134  0.31499655  0.93239891  1  0  0.070225  0  0.937348  0  0  0.087196  0  1.002584  0  0  0.088158  0  1.001853  0  0  0.098538  0.086428  0  1.00324  0
H  H30  1  0.86840655  0.81499187  0.43240029  1  0  0.07024  0  0.937425  0  0  0.087225  0  1.002639  0  0  0.088184  0  1.001913  0  0  0.098541  0.086454  0  1.003288  0
H  H31  1  0.36840682  0.68500914  0.06760246  1  0  0.07027  0  0.937397  0  0  0.087239  0  1.002633  0  0  0.088199  0  1.001904  0  0  0.098553  0.08647  0  1.003291  0
H  H32  1  0.40470111  0.19309798  0.56911851  1  0  0.071  0  0.942461  0  0  0.088654  0  1.007093  0  0  0.089471  0  1.006682  0  0  0.098852  0.088013  0  1.007439  0
H  H33  1  0.90470856  0.30690128  0.93088116  1  0  0.070995  0  0.94248  0  0  0.088621  0  1.007137  0  0  0.089435  0  1.006725  0  0  0.098849  0.087984  0  1.007489  0
H  H34  1  0.59530087  0.80689863  0.43088420  1  0  0.070973  0  0.942413  0  0  0.088625  0  1.00705  0  0  0.089442  0  1.006639  0  0  0.09886  0.087983  0  1.007402  0
H  H35  1  0.09529805  0.69309921  0.06911882  1  0  0.07096  0  0.942426  0  0  0.088593  0  1.007087  0  0  0.089404  0  1.00668  0  0  0.098849  0.087956  0  1.00744  0
C  C36  1  0.26181073  0.73678453  0.59142106  1  0  0.130156  0  3.735819  0  0  0.097642  0  3.991309  0  0  0.105163  0  4.01036  0  0  0.032278  0.092778  0  3.977919  0
C  C37  1  0.76180908  0.76321374  0.90857541  1  0  0.130145  0  3.735928  0  0  0.097573  0  3.99145  0  0  0.105094  0  4.010504  0  0  0.032286  0.092712  0  3.978058  0
C  C38  1  0.73819279  0.26321079  0.40858256  1  0  0.130201  0  3.735908  0  0  0.097699  0  3.991338  0  0  0.10522  0  4.010387  0  0  0.032347  0.092835  0  3.977946  0
C  C39  1  0.23818825  0.23678803  0.09142216  1  0  0.130235  0  3.736033  0  0  0.097717  0  3.991482  0  0  0.105239  0  4.01053  0  0  0.032321  0.09285  0  3.978103  0
C  C40  1  0.25234596  0.74716660  0.52271743  1  0  -0.135332  0  3.752882  0  0  -0.148471  0  4.009132  0  0  -0.156224  0  4.030313  0  0  -0.094949  -0.14353  0  3.995164  0
C  C41  1  0.75234620  0.75282776  0.97727776  1  0  -0.135282  0  3.752625  0  0  -0.148448  0  4.008864  0  0  -0.156203  0  4.030045  0  0  -0.094991  -0.143508  0  3.9949  0
C  C42  1  0.74765911  0.25283130  0.47728337  1  0  -0.135302  0  3.753095  0  0  -0.148457  0  4.009349  0  0  -0.156209  0  4.030527  0  0  -0.094941  -0.143514  0  3.995376  0
C  C43  1  0.24764805  0.24717012  0.02271852  1  0  -0.135362  0  3.752755  0  0  -0.148494  0  4.008996  0  0  -0.156246  0  4.030171  0  0  -0.094967  -0.143559  0  3.995029  0
C  C44  1  0.24612958  0.59320559  0.47429859  1  0  0.003103  0  3.735831  0  0  -0.016009  0  3.983644  0  0  -0.01181  0  4.002204  0  0  -0.075052  -0.01857  0  3.971457  0
C  C45  1  0.74612578  0.90679254  0.02569915  1  0  0.003128  0  3.735546  0  0  -0.015962  0  3.983331  0  0  -0.011758  0  4.001887  0  0  -0.075067  -0.018512  0  3.971158  0
C  C46  1  0.75388013  0.40678713  0.52570332  1  0  0.003085  0  3.735448  0  0  -0.016061  0  3.983261  0  0  -0.011863  0  4.001816  0  0  -0.07506  -0.018611  0  3.971084  0
C  C47  1  0.25386692  0.09320405  0.97429954  1  0  0.00308  0  3.735666  0  0  -0.015998  0  3.983444  0  0  -0.011797  0  4.002001  0  0  -0.075078  -0.018531  0  3.971262  0
C  C48  1  0.24913983  0.43542344  0.49616911  1  0  -0.159817  0  3.708126  0  0  -0.174074  0  3.949969  0  0  -0.18294  0  3.972974  0  0  -0.088851  -0.168492  0  3.935362  0
C  C49  1  0.74913792  0.06457407  0.00382796  1  0  -0.159876  0  3.707979  0  0  -0.17415  0  3.949742  0  0  -0.183021  0  3.972741  0  0  -0.088874  -0.168572  0  3.935141  0
C  C50  1  0.75086524  0.56457964  0.50383006  1  0  -0.15991  0  3.70759  0  0  -0.174162  0  3.949456  0  0  -0.183025  0  3.972457  0  0  -0.088918  -0.168604  0  3.934848  0
C  C51  1  0.25085324  0.93542771  0.99617112  1  0  -0.159756  0  3.707988  0  0  -0.174059  0  3.949842  0  0  -0.182924  0  3.972849  0  0  -0.088834  -0.168491  0  3.935233  0
C  C52  1  0.25881183  0.43496472  0.56630668  1  0  0.23726  0  3.688072  0  0  0.242133  0  3.924991  0  0  0.250501  0  3.945861  0  0  0.120786  0.236568  0  3.910713  0
C  C53  1  0.75881193  0.06503553  0.93369133  1  0  0.237093  0  3.688116  0  0  0.242092  0  3.924806  0  0  0.250463  0  3.945671  0  0  0.120779  0.23654  0  3.910523  0
C  C54  1  0.74118860  0.56503577  0.43369330  1  0  0.237351  0  3.68822  0  0  0.242214  0  3.925104  0  0  0.250582  0  3.945972  0  0  0.120802  0.236655  0  3.910822  0
C  C55  1  0.24118695  0.93496626  0.06630825  1  0  0.237134  0  3.688077  0  0  0.242076  0  3.924897  0  0  0.250444  0  3.945765  0  0  0.120766  0.236527  0  3.910615  0
C  C56  1  0.26453901  0.26308790  0.59045714  1  0  0.014541  0  3.654219  0  0  -0.045889  0  3.904838  0  0  -0.04214  0  3.915038  0  0  -0.069747  -0.04834  0  3.897463  0
C  C57  1  0.76454341  0.23690847  0.90954157  1  0  0.014626  0  3.654327  0  0  -0.045726  0  3.904765  0  0  -0.041972  0  3.91496  0  0  -0.069731  -0.048205  0  3.897435  0
C  C58  1  0.73546142  0.73690741  0.40954347  1  0  0.014568  0  3.65438  0  0  -0.045812  0  3.904938  0  0  -0.042062  0  3.91514  0  0  -0.069725  -0.04827  0  3.897577  0
C  C59  1  0.23546166  0.76309332  0.09045901  1  0  0.014641  0  3.65422  0  0  -0.045747  0  3.904748  0  0  -0.041993  0  3.914946  0  0  -0.069759  -0.048219  0  3.897412  0
I  I60  1  0.26219598  0.46395099  0.85941476  1  0  -0.506069  0  1.044149  0  0  -0.448933  0  1.35389  0  0  -0.467898  0  1.333762  0  0  -0.229099  -0.433632  0  1.36755  0
I  I61  1  0.76221328  0.03604796  0.64058214  1  0  -0.506068  0  1.044179  0  0  -0.44893  0  1.353928  0  0  -0.467898  0  1.333805  0  0  -0.229102  -0.433632  0  1.367583  0
I  I62  1  0.73779053  0.53605080  0.14058582  1  0  -0.506086  0  1.044131  0  0  -0.448987  0  1.353932  0  0  -0.467933  0  1.333788  0  0  -0.229119  -0.433686  0  1.367586  0
I  I63  1  0.23778715  0.96394603  0.35941384  1  0  -0.506076  0  1.044163  0  0  -0.44897  0  1.353948  0  0  -0.467925  0  1.33381  0  0  -0.22912  -0.433666  0  1.36761  0
I  I64  1  0.26707657  0.93384277  0.77861825  1  0  -0.450451  0  1.299679  0  0  -0.392472  0  1.660491  0  0  -0.41346  0  1.637438  0  0  -0.182128  -0.378065  0  1.67889  0
I  I65  1  0.76706635  0.56616071  0.72137960  1  0  -0.450448  0  1.29968  0  0  -0.392467  0  1.660466  0  0  -0.413456  0  1.637414  0  0  -0.182121  -0.378058  0  1.678875  0
I  I66  1  0.73292696  0.06615771  0.22138073  1  0  -0.450455  0  1.29964  0  0  -0.392457  0  1.660428  0  0  -0.413445  0  1.637373  0  0  -0.182124  -0.378047  0  1.678838  0
I  I67  1  0.23292480  0.43383978  0.27861988  1  0  -0.450465  0  1.299692  0  0  -0.392447  0  1.660435  0  0  -0.413437  0  1.637382  0  0  -0.182125  -0.378041  0  1.678842  0
N  N68  1  0.26509162  0.58364494  0.61246570  1  0  -0.350626  0  3.259139  0  0  -0.272949  0  3.506472  0  0  -0.294999  0  3.528735  0  0  -0.335088  -0.257049  0  3.490852  0
N  N69  1  0.76509412  0.91635205  0.88753217  1  0  -0.350541  0  3.259144  0  0  -0.272886  0  3.50642  0  0  -0.294937  0  3.528684  0  0  -0.335077  -0.256979  0  3.490771  0
N  N70  1  0.73490881  0.41635556  0.38753629  1  0  -0.350692  0  3.2591  0  0  -0.273006  0  3.506428  0  0  -0.295056  0  3.528689  0  0  -0.335089  -0.257102  0  3.490792  0
N  N71  1  0.23490786  0.08365233  0.11246659  1  0  -0.350582  0  3.259236  0  0  -0.272916  0  3.506527  0  0  -0.294966  0  3.528787  0  0  -0.335057  -0.25701  0  3.490894  0
N  N72  1  0.26387501  0.27557828  0.66486148  1  0  -0.600551  0  3.156033  0  0  -0.542188  0  3.388546  0  0  -0.562704  0  3.389624  0  0  -0.637495  -0.526919  0  3.38728  0
N  N73  1  0.76388061  0.22442977  0.83513810  1  0  -0.600531  0  3.15613  0  0  -0.542208  0  3.388751  0  0  -0.562725  0  3.389832  0  0  -0.637451  -0.526948  0  3.387469  0
N  N74  1  0.73612542  0.72442482  0.33514070  1  0  -0.60047  0  3.156237  0  0  -0.542176  0  3.388737  0  0  -0.562696  0  3.389822  0  0  -0.637518  -0.526925  0  3.387443  0
N  N75  1  0.23612291  0.77557461  0.16486217  1  0  -0.600625  0  3.156228  0  0  -0.542231  0  3.388719  0  0  -0.562751  0  3.389797  0  0  -0.637464  -0.526953  0  3.387464  0
