# generated using pymatgen
data_HoH19C24S(NO2)4
_symmetry_space_group_name_H-M   'P 1'
_cell_length_a   8.80006736
_cell_length_b   8.98293684
_cell_length_c   14.52357953
_cell_angle_alpha   95.25058968
_cell_angle_beta   91.06564210
_cell_angle_gamma   98.31752202
_symmetry_Int_Tables_number   1
_chemical_formula_structural   HoH19C24S(NO2)4
_chemical_formula_sum   'Ho2 H38 C48 S2 N8 O16'
_cell_volume   1130.66197418
_cell_formula_units_Z   2
loop_
 _symmetry_equiv_pos_site_id
 _symmetry_equiv_pos_as_xyz
  1  'x, y, z'
loop_
 _atom_site_type_symbol
 _atom_site_label
 _atom_site_symmetry_multiplicity
 _atom_site_fract_x
 _atom_site_fract_y
 _atom_site_fract_z
 _atom_site_occupancy
 _atom_site_pbe_bader_spin_density
 _atom_site_pbe_cm5_charge
 _atom_site_pbe_ddec_charge
 _atom_site_pbe_ddec_spin_density
 _atom_site_pbe_ddec_sum_bond_order
 _atom_site_pbe_magmom
Ho  Ho0  1  0.94734356  0.44048845  0.84452661  1  0  1.542607  1.978477  0  2.213233  0
Ho  Ho1  1  0.05265768  0.55951341  0.15547348  1  0  1.542602  1.978384  0  2.213374  0
H  H2  1  0.39182247  0.55099711  0.39804050  1  0  0.310051  0.289451  0  1.000642  0
H  H3  1  0.60817828  0.44900136  0.60195941  1  0  0.310031  0.289398  0  1.000732  0
H  H4  1  0.81017431  0.76124651  0.80818258  1  0  0.11909  0.078407  0  1.042462  0
H  H5  1  0.18982676  0.23875423  0.19181813  1  0  0.1191  0.07843  0  1.042444  0
H  H6  1  0.83815488  0.97927262  0.71109350  1  0  0.108667  0.128892  0  1.037224  0
H  H7  1  0.16184717  0.02072698  0.28890717  1  0  0.108676  0.128879  0  1.037229  0
H  H8  1  0.00289293  0.96860270  0.57260459  1  0  0.106642  0.104379  0  1.035861  0
H  H9  1  0.99710782  0.03139575  0.42739463  1  0  0.106627  0.104362  0  1.035867  0
H  H10  1  0.31662902  0.31237607  0.47728804  1  0  0.112561  0.116237  0  0.973431  0
H  H11  1  0.68337026  0.68762014  0.52271242  1  0  0.112566  0.116227  0  0.97344  0
H  H12  1  0.24275361  0.10842116  0.58080959  1  0  0.106709  0.11095  0  1.031016  0
H  H13  1  0.75724486  0.89157730  0.41919097  1  0  0.106729  0.110966  0  1.031039  0
H  H14  1  0.08838821  0.16433666  0.72037639  1  0  0.124217  0.090532  0  1.00715  0
H  H15  1  0.91161139  0.83566181  0.27962420  1  0  0.124212  0.090511  0  1.007126  0
H  H16  1  0.39870171  0.05641815  0.41972084  1  0  0.104011  0.104013  0  1.022438  0
H  H17  1  0.60129562  0.94358030  0.58027903  1  0  0.104007  0.103997  0  1.022453  0
H  H18  1  0.57687430  0.21388912  0.32329980  1  0  0.10273  0.111588  0  1.00689  0
H  H19  1  0.42312189  0.78610932  0.67669937  1  0  0.102774  0.111562  0  1.006913  0
H  H20  1  0.71799928  0.08720701  0.19851505  1  0  0.104872  0.108498  0  0.992795  0
H  H21  1  0.28199935  0.91279260  0.80148627  1  0  0.104885  0.108483  0  0.99278  0
H  H22  1  0.66872651  0.80566661  0.16780988  1  0  0.106839  0.111031  0  1.069811  0
H  H23  1  0.33127587  0.19433528  0.83219228  1  0  0.106837  0.111025  0  1.069816  0
H  H24  1  0.63632746  0.96438887  0.85321157  1  0  0.097939  0.113995  0  1.005051  0
H  H25  1  0.36367297  0.03561525  0.14678932  1  0  0.097942  0.113979  0  1.005057  0
H  H26  1  0.59074586  0.05631945  0.96083349  1  0  0.098578  0.113869  0  0.993681  0
H  H27  1  0.40925538  0.94368243  0.03916866  1  0  0.098571  0.113878  0  0.993745  0
H  H28  1  0.83110435  0.00351294  0.03433421  1  0  0.095929  0.09138  0  0.978478  0
H  H29  1  0.16889655  0.99648665  0.96566576  1  0  0.095943  0.091414  0  0.978479  0
H  H30  1  0.89606991  0.93682230  0.92631720  1  0  0.094429  0.081783  0  1.001399  0
H  H31  1  0.10393133  0.06317953  0.07368151  1  0  0.094442  0.081794  0  1.001399  0
H  H32  1  0.62358897  0.78339361  0.03029004  1  0  0.102182  0.124326  0  0.99715  0
H  H33  1  0.37641421  0.21660599  0.96970996  1  0  0.102199  0.124347  0  0.997091  0
H  H34  1  0.66345366  0.72415396  0.91494590  1  0  0.102172  0.119526  0  0.994304  0
H  H35  1  0.33654838  0.27584563  0.08505339  1  0  0.102156  0.119519  0  0.994257  0
H  H36  1  0.28276095  0.54899184  0.85833431  1  0  0.300843  0.408491  0  0.914904  0
H  H37  1  0.71723851  0.45101339  0.14166524  1  0  0.300829  0.408465  0  0.914949  0
H  H38  1  0.20525857  0.64896135  0.93435270  1  0  0.301244  0.412428  0  0.912685  0
H  H39  1  0.79473942  0.35104163  0.06564741  1  0  0.30125  0.412456  0  0.912653  0
C  C40  1  0.88283624  0.76186048  0.74844500  1  0  0.055494  0.118456  0  3.948904  0
C  C41  1  0.11716353  0.23813911  0.25155495  1  0  0.055509  0.118478  0  3.949076  0
C  C42  1  0.89726421  0.88270458  0.69298154  1  0  -0.08409  -0.131001  0  3.951514  0
C  C43  1  0.10273800  0.11729615  0.30701850  1  0  -0.084119  -0.131038  0  3.951603  0
C  C44  1  0.99069432  0.87755684  0.61763776  1  0  -0.065276  -0.067628  0  3.943973  0
C  C45  1  0.00930642  0.12244161  0.38236146  1  0  -0.065259  -0.067578  0  3.944014  0
C  C46  1  0.06736817  0.75184438  0.59825536  1  0  0.001631  -0.013384  0  4.008292  0
C  C47  1  0.93263127  0.24815294  0.40174378  1  0  0.001664  -0.013398  0  4.008284  0
C  C48  1  0.16933077  0.73508109  0.52365974  1  0  0.086826  0.088347  0  4.104871  0
C  C49  1  0.83066883  0.26491737  0.47634016  1  0  0.086803  0.088308  0  4.104807  0
C  C50  1  0.23015062  0.59969488  0.50497948  1  0  0.094032  0.088582  0  4.033934  0
C  C51  1  0.76984882  0.40030245  0.49502035  1  0  0.094054  0.088625  0  4.033957  0
C  C52  1  0.19681526  0.47283303  0.55713056  1  0  0.001716  -0.0102  0  4.014074  0
C  C53  1  0.80318288  0.52716316  0.44286851  1  0  0.001768  -0.010156  0  4.014055  0
C  C54  1  0.24738488  0.33189629  0.53752663  1  0  -0.065369  -0.059849  0  3.927929  0
C  C55  1  0.75261456  0.66810105  0.46247390  1  0  -0.065391  -0.05984  0  3.927811  0
C  C56  1  0.20687811  0.21914743  0.59479510  1  0  -0.081999  -0.127164  0  3.976899  0
C  C57  1  0.79312036  0.78085103  0.40520478  1  0  -0.082021  -0.127176  0  3.976896  0
C  C58  1  0.11954515  0.24935997  0.67249115  1  0  0.062805  0.126689  0  3.936135  0
C  C59  1  0.88045446  0.75063850  0.32750943  1  0  0.062798  0.126681  0  3.936139  0
C  C60  1  0.10544517  0.49292371  0.63595379  1  0  0.124274  0.143534  0  3.966489  0
C  C61  1  0.89455443  0.50707474  0.36404542  1  0  0.124283  0.143503  0  3.966621  0
C  C62  1  0.04189112  0.63220075  0.65658987  1  0  0.119727  0.128365  0  3.981873  0
C  C63  1  0.95810832  0.36779658  0.34340928  1  0  0.119722  0.128372  0  3.98187  0
C  C64  1  0.32294122  0.76915901  0.41103250  1  0  0.222449  0.297427  0  3.989031  0
C  C65  1  0.67705855  0.23084058  0.58896676  1  0  0.222456  0.297398  0  3.989071  0
C  C66  1  0.42590374  0.84514762  0.34614315  1  0  0.003789  0.011636  0  3.970784  0
C  C67  1  0.57409717  0.15485198  0.65385682  1  0  0.003785  0.011663  0  3.970724  0
C  C68  1  0.45682521  0.00387925  0.36261811  1  0  -0.080334  -0.102173  0  3.945168  0
C  C69  1  0.54317342  0.99612034  0.63738183  1  0  -0.080339  -0.102204  0  3.94518  0
C  C70  1  0.55814504  0.09108945  0.30958613  1  0  -0.085657  -0.074441  0  3.989761  0
C  C71  1  0.44185245  0.90891013  0.69041310  1  0  -0.085663  -0.07435  0  3.989776  0
C  C72  1  0.63607589  0.02011640  0.23940549  1  0  -0.084298  -0.069066  0  3.971089  0
C  C73  1  0.36392518  0.97988434  0.76059523  1  0  -0.084354  -0.069121  0  3.971161  0
C  C74  1  0.60708423  0.86311306  0.22121653  1  0  -0.087354  -0.106966  0  4.006644  0
C  C75  1  0.39291554  0.13688653  0.77878343  1  0  -0.087347  -0.106951  0  4.006733  0
C  C76  1  0.50164708  0.77532622  0.27229291  1  0  -0.013382  -0.124723  0  3.896293  0
C  C77  1  0.49835269  0.22467337  0.72770704  1  0  -0.013351  -0.124663  0  3.896203  0
C  C78  1  0.77305823  0.17779915  0.89043880  1  0  0.196373  0.643537  0  4.135529  0
C  C79  1  0.22694398  0.82220159  0.10956193  1  0  0.196388  0.643588  0  4.135581  0
C  C80  1  0.68543874  0.03150033  0.91651593  1  0  -0.164611  -0.291825  0  3.908358  0
C  C81  1  0.31456039  0.96850266  0.08348488  1  0  -0.16464  -0.291904  0  3.908556  0
C  C82  1  0.79228504  0.94294469  0.96684038  1  0  -0.155014  -0.097734  0  3.917721  0
C  C83  1  0.20771506  0.05705715  0.03315901  1  0  -0.155015  -0.097723  0  3.917794  0
C  C84  1  0.71556106  0.78192997  0.98038433  1  0  -0.161008  -0.307696  0  3.878034  0
C  C85  1  0.28444099  0.21806962  0.01961496  1  0  -0.161002  -0.307738  0  3.878014  0
C  C86  1  0.83689964  0.69395560  0.01330883  1  0  0.241017  0.722804  0  4.061875  0
C  C87  1  0.16310387  0.30604626  0.98669128  1  0  0.240998  0.722825  0  4.061874  0
S  S88  1  0.46537561  0.57619796  0.23466027  1  0  0.531714  1.209715  0  6.123401  0
S  S89  1  0.53462335  0.42380388  0.76533979  1  0  0.531688  1.209682  0  6.123402  0
N  N90  1  0.95301444  0.64079637  0.73159865  1  0  -0.378343  -0.358169  0  3.524797  0
N  N91  1  0.04698614  0.35920096  0.26840051  1  0  -0.378367  -0.358157  0  3.524904  0
N  N92  1  0.07091884  0.38196623  0.69314393  1  0  -0.383233  -0.375591  0  3.472361  0
N  N93  1  0.92907849  0.61803222  0.30685594  1  0  -0.383231  -0.375571  0  3.472484  0
N  N94  1  0.22725755  0.83896722  0.46492871  1  0  -0.332387  -0.395104  0  3.200508  0
N  N95  1  0.77274205  0.16103124  0.53507118  1  0  -0.332394  -0.395091  0  3.200462  0
N  N96  1  0.32574804  0.62360845  0.43290016  1  0  -0.372931  -0.294114  0  3.588423  0
N  N97  1  0.67425270  0.37639002  0.56710044  1  0  -0.372954  -0.29409  0  3.588497  0
O  O98  1  0.29868748  0.54608184  0.21269546  1  0  -0.415246  -0.723402  0  2.462458  0
O  O99  1  0.70131165  0.45392116  0.78730604  1  0  -0.415214  -0.723384  0  2.462449  0
O  O100  1  0.50519305  0.49278910  0.31243679  1  0  -0.341262  -0.599783  0  2.182989  0
O  O101  1  0.49480656  0.50720934  0.68756172  1  0  -0.34128  -0.599798  0  2.183047  0
O  O102  1  0.55762084  0.55152748  0.15384635  1  0  -0.314559  -0.559172  0  2.196098  0
O  O103  1  0.44237340  0.44847320  0.84615153  1  0  -0.314556  -0.559181  0  2.196089  0
O  O104  1  0.78990062  0.29607816  0.94836875  1  0  -0.373048  -0.636209  0  2.249123  0
O  O105  1  0.21009834  0.70392368  0.05163131  1  0  -0.373016  -0.636157  0  2.249172  0
O  O106  1  0.83478085  0.18326767  0.81179434  1  0  -0.383133  -0.636142  0  2.240451  0
O  O107  1  0.16522363  0.81673310  0.18820848  1  0  -0.383173  -0.636176  0  2.240398  0
O  O108  1  0.90147290  0.61557433  0.95204626  1  0  -0.439774  -0.717378  0  2.37757  0
O  O109  1  0.09853044  0.38442639  0.04795310  1  0  -0.439777  -0.717357  0  2.37754  0
O  O110  1  0.87668292  0.70696281  0.09837325  1  0  -0.381029  -0.643758  0  2.258561  0
O  O111  1  0.12332189  0.29304018  0.90162625  1  0  -0.38101  -0.643771  0  2.258554  0
O  O112  1  0.19165159  0.60060384  0.86955868  1  0  -0.640825  -0.854657  0  2.027851  0
O  O113  1  0.80834804  0.39940252  0.13044093  1  0  -0.640818  -0.854643  0  2.027886  0
