# generated using pymatgen
data_ZnH11C13(N2O)3
_symmetry_space_group_name_H-M   'P 1'
_cell_length_a   6.87588342
_cell_length_b   13.41415774
_cell_length_c   15.30786096
_cell_angle_alpha   90.00002723
_cell_angle_beta   89.99995847
_cell_angle_gamma   91.38422095
_symmetry_Int_Tables_number   1
_chemical_formula_structural   ZnH11C13(N2O)3
_chemical_formula_sum   'Zn4 H44 C52 N24 O12'
_cell_volume   1411.49605356
_cell_formula_units_Z   4
loop_
 _symmetry_equiv_pos_site_id
 _symmetry_equiv_pos_as_xyz
  1  'x, y, z'
loop_
 _atom_site_type_symbol
 _atom_site_label
 _atom_site_symmetry_multiplicity
 _atom_site_fract_x
 _atom_site_fract_y
 _atom_site_fract_z
 _atom_site_occupancy
 _atom_site_hle17_bader_spin_density
 _atom_site_hle17_ddec_charge
 _atom_site_hle17_ddec_spin_density
 _atom_site_hle17_ddec_sum_bond_order
 _atom_site_hle17_magmom
 _atom_site_hse06_10hf_bader_spin_density
 _atom_site_hse06_10hf_ddec_charge
 _atom_site_hse06_10hf_ddec_spin_density
 _atom_site_hse06_10hf_ddec_sum_bond_order
 _atom_site_hse06_10hf_magmom
 _atom_site_hse06_bader_spin_density
 _atom_site_hse06_ddec_charge
 _atom_site_hse06_ddec_spin_density
 _atom_site_hse06_ddec_sum_bond_order
 _atom_site_hse06_magmom
 _atom_site_pbe_bader_spin_density
 _atom_site_pbe_cm5_charge
 _atom_site_pbe_ddec_charge
 _atom_site_pbe_ddec_spin_density
 _atom_site_pbe_ddec_sum_bond_order
 _atom_site_pbe_magmom
Zn  Zn0  1  0.58390212  0.75363089  0.02418567  1  0  0.986997  0  1.886724  0  0  0.790648  0  2.356997  0  0  0.836827  0  2.304803  0  0  0.692351  0.758521  0  2.39283  0
Zn  Zn1  1  0.91609470  0.74636801  0.52418884  1  0  0.986991  0  1.886715  0  0  0.790655  0  2.356966  0  0  0.836831  0  2.304775  0  0  0.692349  0.758528  0  2.392798  0
Zn  Zn2  1  0.41609862  0.24636779  0.97581300  1  0  0.986981  0  1.886704  0  0  0.790654  0  2.356965  0  0  0.83683  0  2.304771  0  0  0.69236  0.758528  0  2.392798  0
Zn  Zn3  1  0.08390325  0.25363292  0.47581439  1  0  0.986972  0  1.886753  0  0  0.790635  0  2.357013  0  0  0.836811  0  2.304822  0  0  0.692353  0.758511  0  2.392848  0
H  H4  1  0.25632474  0.83725806  0.97342418  1  0  0.390837  0  0.931705  0  0  0.348743  0  1.015545  0  0  0.360348  0  0.999094  0  0  0.27769  0.340626  0  1.027023  0
H  H5  1  0.24367593  0.66274394  0.47342417  1  0  0.390828  0  0.931719  0  0  0.348734  0  1.015559  0  0  0.360338  0  0.999109  0  0  0.277691  0.340617  0  1.027037  0
H  H6  1  0.74367605  0.16274138  0.02657645  1  0  0.390834  0  0.931704  0  0  0.348735  0  1.015564  0  0  0.36034  0  0.999113  0  0  0.277681  0.340617  0  1.027044  0
H  H7  1  0.75632351  0.33725773  0.52657710  1  0  0.390797  0  0.931739  0  0  0.348701  0  1.015602  0  0  0.360305  0  0.999151  0  0  0.277668  0.340583  0  1.027081  0
H  H8  1  0.18302252  0.73237514  0.01611667  1  0  0.428335  0  0.875572  0  0  0.397201  0  0.938968  0  0  0.408272  0  0.923091  0  0  0.285856  0.389385  0  0.950157  0
H  H9  1  0.31697586  0.76762513  0.51611859  1  0  0.428272  0  0.875662  0  0  0.397226  0  0.938927  0  0  0.408297  0  0.92305  0  0  0.285883  0.389411  0  0.950115  0
H  H10  1  0.81697677  0.26762355  0.98388330  1  0  0.428286  0  0.875639  0  0  0.397153  0  0.939036  0  0  0.408224  0  0.923158  0  0  0.285832  0.389337  0  0.950224  0
H  H11  1  0.68302358  0.23237654  0.48388334  1  0  0.428307  0  0.87561  0  0  0.397176  0  0.939002  0  0  0.408247  0  0.923125  0  0  0.285842  0.389361  0  0.95019  0
H  H12  1  0.47561002  0.54538121  0.06933630  1  0  0.083945  0  0.945402  0  0  0.092671  0  1.008715  0  0  0.095384  0  1.006368  0  0  0.116886  0.0906  0  1.010575  0
H  H13  1  0.02438228  0.95461536  0.56934035  1  0  0.083944  0  0.94539  0  0  0.092644  0  1.008759  0  0  0.095349  0  1.006408  0  0  0.116894  0.090575  0  1.010613  0
H  H14  1  0.52438476  0.45461450  0.93066236  1  0  0.083935  0  0.945423  0  0  0.092658  0  1.008752  0  0  0.095369  0  1.006403  0  0  0.116887  0.090589  0  1.01061  0
H  H15  1  0.97561414  0.04538408  0.43066028  1  0  0.083911  0  0.945436  0  0  0.092607  0  1.008809  0  0  0.095313  0  1.006457  0  0  0.116877  0.090539  0  1.010663  0
H  H16  1  0.35869531  0.44415772  0.19491230  1  0  0.120618  0  0.944778  0  0  0.127019  0  1.010123  0  0  0.131277  0  1.007092  0  0  0.113406  0.123969  0  1.012432  0
H  H17  1  0.14130119  0.05584286  0.69491288  1  0  0.120633  0  0.94478  0  0  0.127038  0  1.010115  0  0  0.131295  0  1.007086  0  0  0.11343  0.123988  0  1.012425  0
H  H18  1  0.64129392  0.55584322  0.80508832  1  0  0.120631  0  0.944738  0  0  0.127025  0  1.010092  0  0  0.131283  0  1.007062  0  0  0.113425  0.123973  0  1.012405  0
H  H19  1  0.85870400  0.94415732  0.30508839  1  0  0.120646  0  0.944715  0  0  0.127039  0  1.01007  0  0  0.131297  0  1.007041  0  0  0.113419  0.123988  0  1.012382  0
H  H20  1  0.40143706  0.71131330  0.35305594  1  0  0.120528  0  0.949049  0  0  0.132952  0  1.003733  0  0  0.136585  0  1.002195  0  0  0.112027  0.130298  0  1.00504  0
H  H21  1  0.09856957  0.78868789  0.85305924  1  0  0.120531  0  0.949007  0  0  0.132929  0  1.003729  0  0  0.136565  0  1.002184  0  0  0.112014  0.130274  0  1.005036  0
H  H22  1  0.59855936  0.28868614  0.64694142  1  0  0.120564  0  0.949032  0  0  0.132973  0  1.003735  0  0  0.136605  0  1.002199  0  0  0.112038  0.130318  0  1.005042  0
H  H23  1  0.90143569  0.21131378  0.14694204  1  0  0.120548  0  0.948989  0  0  0.132953  0  1.003696  0  0  0.136586  0  1.002158  0  0  0.11203  0.130299  0  1.005003  0
H  H24  1  0.52074979  0.80177044  0.22056257  1  0  0.085068  0  0.96448  0  0  0.085785  0  1.04042  0  0  0.089547  0  1.036369  0  0  0.114942  0.08307  0  1.04329  0
H  H25  1  0.97925407  0.69823005  0.72056636  1  0  0.085024  0  0.964443  0  0  0.085747  0  1.040383  0  0  0.089512  0  1.036324  0  0  0.114929  0.083032  0  1.043253  0
H  H26  1  0.47924946  0.19822750  0.77943479  1  0  0.085069  0  0.964447  0  0  0.085776  0  1.04039  0  0  0.08954  0  1.036335  0  0  0.114949  0.083061  0  1.04326  0
H  H27  1  0.02074679  0.30177088  0.27943622  1  0  0.085054  0  0.964489  0  0  0.085772  0  1.040431  0  0  0.089537  0  1.036374  0  0  0.114928  0.083057  0  1.043301  0
H  H28  1  0.25565608  0.59593122  0.62696227  1  0  0.097812  0  0.915308  0  0  0.107257  0  0.973962  0  0  0.110676  0  0.971602  0  0  0.12172  0.104698  0  0.975901  0
H  H29  1  0.24434367  0.90407060  0.12696236  1  0  0.09785  0  0.915299  0  0  0.107294  0  0.973961  0  0  0.110713  0  0.971598  0  0  0.12174  0.104736  0  0.975898  0
H  H30  1  0.74434322  0.40406747  0.37303967  1  0  0.097868  0  0.915263  0  0  0.107301  0  0.973932  0  0  0.110722  0  0.971568  0  0  0.121727  0.104741  0  0.975874  0
H  H31  1  0.75566450  0.09593106  0.87303826  1  0  0.097813  0  0.915362  0  0  0.107277  0  0.97399  0  0  0.110695  0  0.971629  0  0  0.121721  0.104719  0  0.975926  0
H  H32  1  0.07619447  0.39061743  0.81657529  1  0  0.092391  0  0.952172  0  0  0.097643  0  1.018588  0  0  0.100294  0  1.017619  0  0  0.114683  0.095621  0  1.019538  0
H  H33  1  0.42380628  0.10938470  0.31657325  1  0  0.092381  0  0.952187  0  0  0.097618  0  1.018633  0  0  0.100276  0  1.017654  0  0  0.114684  0.095597  0  1.019584  0
H  H34  1  0.92380475  0.60937977  0.18342533  1  0  0.092392  0  0.952201  0  0  0.097673  0  1.018581  0  0  0.100324  0  1.017617  0  0  0.114713  0.095652  0  1.019531  0
H  H35  1  0.57619328  0.89061921  0.68342672  1  0  0.092386  0  0.952188  0  0  0.097659  0  1.018598  0  0  0.100286  0  1.017657  0  0  0.114741  0.095637  0  1.019549  0
H  H36  1  0.04798858  0.25676311  0.70146448  1  0  0.096881  0  0.907986  0  0  0.108652  0  0.962139  0  0  0.111598  0  0.960169  0  0  0.127323  0.106461  0  0.963734  0
H  H37  1  0.45200511  0.24323970  0.20146248  1  0  0.096799  0  0.90802  0  0  0.108586  0  0.962156  0  0  0.111528  0  0.960194  0  0  0.127316  0.106395  0  0.963752  0
H  H38  1  0.95201217  0.74323558  0.29853419  1  0  0.096844  0  0.908019  0  0  0.108619  0  0.962158  0  0  0.111562  0  0.960195  0  0  0.127332  0.106427  0  0.963754  0
H  H39  1  0.54799004  0.75676347  0.79853488  1  0  0.096824  0  0.908017  0  0  0.10861  0  0.962152  0  0  0.111552  0  0.960189  0  0  0.127332  0.106419  0  0.963747  0
H  H40  1  0.13695642  0.56081453  0.93889482  1  0  0.10714  0  0.914396  0  0  0.125122  0  0.967219  0  0  0.127304  0  0.966194  0  0  0.102376  0.123514  0  0.968082  0
H  H41  1  0.36304714  0.93918596  0.43889489  1  0  0.107161  0  0.914377  0  0  0.125139  0  0.96719  0  0  0.127321  0  0.966167  0  0  0.102387  0.12353  0  0.968061  0
H  H42  1  0.86304437  0.43918491  0.06110384  1  0  0.107158  0  0.914363  0  0  0.125124  0  0.967194  0  0  0.127307  0  0.966171  0  0  0.10238  0.123518  0  0.968058  0
H  H43  1  0.63695372  0.06081496  0.56110573  1  0  0.107157  0  0.914389  0  0  0.125128  0  0.967204  0  0  0.127308  0  0.96618  0  0  0.102382  0.123518  0  0.968075  0
H  H44  1  0.91418158  0.50080833  0.90703131  1  0  0.095488  0  0.964132  0  0  0.106889  0  1.032377  0  0  0.108764  0  1.032635  0  0  0.094669  0.105581  0  1.032206  0
H  H45  1  0.58582051  0.99919152  0.40703346  1  0  0.095548  0  0.964135  0  0  0.106954  0  1.032352  0  0  0.108827  0  1.032611  0  0  0.094707  0.105646  0  1.03218  0
H  H46  1  0.08582062  0.49919036  0.09296605  1  0  0.095501  0  0.964159  0  0  0.106917  0  1.032374  0  0  0.108794  0  1.032635  0  0  0.094699  0.105609  0  1.032205  0
H  H47  1  0.41417894  0.00081015  0.59296586  1  0  0.095507  0  0.964153  0  0  0.106924  0  1.032366  0  0  0.108797  0  1.032625  0  0  0.094696  0.105616  0  1.032195  0
C  C48  1  0.45664063  0.57957734  0.13323289  1  0  0.127167  0  3.706646  0  0  0.09723  0  3.956515  0  0  0.10375  0  3.97476  0  0  0.045335  0.093032  0  3.944167  0
C  C49  1  0.04335318  0.92042225  0.63323561  1  0  0.127245  0  3.706403  0  0  0.097301  0  3.956336  0  0  0.103835  0  3.974569  0  0  0.045377  0.093102  0  3.943992  0
C  C50  1  0.54335143  0.42042211  0.86676642  1  0  0.127119  0  3.70653  0  0  0.097183  0  3.956455  0  0  0.103709  0  3.974692  0  0  0.045323  0.092984  0  3.944107  0
C  C51  1  0.95665205  0.07957867  0.36676632  1  0  0.127144  0  3.706333  0  0  0.09722  0  3.956283  0  0  0.103753  0  3.974515  0  0  0.045307  0.093021  0  3.943937  0
C  C52  1  0.39145213  0.52326374  0.20350594  1  0  -0.136801  0  3.702847  0  0  -0.159929  0  3.957041  0  0  -0.166765  0  3.976101  0  0  -0.076737  -0.155583  0  3.944376  0
C  C53  1  0.10854448  0.97673588  0.70350931  1  0  -0.136868  0  3.702903  0  0  -0.159978  0  3.957126  0  0  -0.166813  0  3.976178  0  0  -0.076805  -0.155631  0  3.944468  0
C  C54  1  0.60853702  0.47673570  0.79649142  1  0  -0.136758  0  3.702855  0  0  -0.159896  0  3.957033  0  0  -0.166734  0  3.976092  0  0  -0.076754  -0.155545  0  3.944368  0
C  C55  1  0.89146507  0.02326429  0.29649131  1  0  -0.136848  0  3.702739  0  0  -0.159963  0  3.956939  0  0  -0.166802  0  3.976  0  0  -0.076785  -0.155615  0  3.944278  0
C  C56  1  0.37048112  0.56915576  0.28532339  1  0  0.057189  0  3.790112  0  0  0.068449  0  4.025497  0  0  0.072923  0  4.047336  0  0  0.014243  0.065663  0  4.010482  0
C  C57  1  0.12952267  0.93084465  0.78532543  1  0  0.057127  0  3.789989  0  0  0.068321  0  4.025435  0  0  0.072805  0  4.047281  0  0  0.014199  0.065537  0  4.010425  0
C  C58  1  0.62951094  0.43084369  0.71467593  1  0  0.057228  0  3.790182  0  0  0.068526  0  4.025462  0  0  0.073004  0  4.047298  0  0  0.014246  0.065739  0  4.010447  0
C  C59  1  0.87048397  0.06915553  0.21467519  1  0  0.057146  0  3.789978  0  0  0.068388  0  4.025392  0  0  0.072861  0  4.047229  0  0  0.01421  0.065603  0  4.010381  0
C  C60  1  0.41567437  0.67153041  0.29147384  1  0  -0.148088  0  3.690322  0  0  -0.167909  0  3.935285  0  0  -0.17575  0  3.956441  0  0  -0.082448  -0.162793  0  3.920997  0
C  C61  1  0.08432795  0.82847000  0.79147520  1  0  -0.14817  0  3.690281  0  0  -0.167958  0  3.935274  0  0  -0.1758  0  3.95643  0  0  -0.082468  -0.162837  0  3.920976  0
C  C62  1  0.58432350  0.32846903  0.70852613  1  0  -0.148216  0  3.690451  0  0  -0.168052  0  3.935404  0  0  -0.175892  0  3.956556  0  0  -0.082479  -0.162936  0  3.921116  0
C  C63  1  0.91567287  0.17153018  0.20852608  1  0  -0.14811  0  3.690341  0  0  -0.167914  0  3.935319  0  0  -0.175754  0  3.956473  0  0  -0.082466  -0.162794  0  3.921021  0
C  C64  1  0.48043737  0.72266082  0.21761701  1  0  0.124368  0  3.701515  0  0  0.096521  0  3.951038  0  0  0.103365  0  3.968553  0  0  0.045956  0.092159  0  3.939023  0
C  C65  1  0.01956503  0.77733881  0.71762034  1  0  0.124539  0  3.70138  0  0  0.096701  0  3.950882  0  0  0.103543  0  3.968401  0  0  0.046054  0.092338  0  3.938866  0
C  C66  1  0.51956043  0.27733713  0.78238165  1  0  0.124446  0  3.701522  0  0  0.096631  0  3.951055  0  0  0.103476  0  3.968568  0  0  0.046015  0.092269  0  3.93904  0
C  C67  1  0.98043728  0.22266212  0.28238094  1  0  0.124316  0  3.701606  0  0  0.096491  0  3.951124  0  0  0.103334  0  3.968643  0  0  0.045974  0.092131  0  3.939108  0
C  C68  1  0.30580698  0.50974983  0.35986548  1  0  0.25981  0  3.801202  0  0  0.239446  0  4.074739  0  0  0.246207  0  4.094166  0  0  0.199272  0.235115  0  4.061181  0
C  C69  1  0.19419677  0.99025211  0.85986753  1  0  0.259826  0  3.801066  0  0  0.239519  0  4.074554  0  0  0.246247  0  4.094033  0  0  0.199356  0.235189  0  4.060999  0
C  C70  1  0.69418660  0.49025110  0.64013318  1  0  0.259679  0  3.801452  0  0  0.239378  0  4.074876  0  0  0.246138  0  4.094309  0  0  0.19931  0.235048  0  4.061316  0
C  C71  1  0.80580700  0.00974882  0.14013310  1  0  0.259838  0  3.801104  0  0  0.239486  0  4.074632  0  0  0.246252  0  4.09405  0  0  0.199337  0.235155  0  4.061078  0
C  C72  1  0.22837198  0.46067250  0.48678263  1  0  0.258566  0  3.827599  0  0  0.225961  0  4.101055  0  0  0.236557  0  4.11877  0  0  0.203294  0.219189  0  4.088847  0
C  C73  1  0.27162693  0.03932749  0.98678185  1  0  0.258617  0  3.827581  0  0  0.225993  0  4.101083  0  0  0.236593  0  4.11879  0  0  0.203367  0.219218  0  4.088877  0
C  C74  1  0.77163029  0.53932768  0.51321799  1  0  0.258514  0  3.827624  0  0  0.225925  0  4.101046  0  0  0.236523  0  4.11876  0  0  0.203311  0.219149  0  4.088839  0
C  C75  1  0.72837680  0.96067269  0.01321746  1  0  0.258582  0  3.827482  0  0  0.225946  0  4.100993  0  0  0.236545  0  4.118707  0  0  0.203261  0.219172  0  4.088786  0
C  C76  1  0.19003016  0.44621990  0.57958789  1  0  0.119647  0  3.765259  0  0  0.119913  0  4.013418  0  0  0.123403  0  4.032046  0  0  0.125041  0.117143  0  4.001059  0
C  C77  1  0.30996957  0.05378359  0.07958783  1  0  0.119627  0  3.765109  0  0  0.119862  0  4.013335  0  0  0.123356  0  4.031952  0  0  0.124969  0.117091  0  4.000978  0
C  C78  1  0.80997208  0.55377953  0.42041208  1  0  0.119653  0  3.765153  0  0  0.119929  0  4.013318  0  0  0.123423  0  4.031938  0  0  0.125028  0.117163  0  4.000958  0
C  C79  1  0.69002987  0.94621808  0.92041280  1  0  0.119691  0  3.765229  0  0  0.119923  0  4.013454  0  0  0.123406  0  4.032093  0  0  0.125046  0.11715  0  4.001096  0
C  C80  1  0.20767105  0.52020226  0.64403453  1  0  0.058794  0  3.657801  0  0  0.023884  0  3.926526  0  0  0.02588  0  3.9411  0  0  0.053674  0.022571  0  3.916664  0
C  C81  1  0.29232859  0.97979807  0.14403399  1  0  0.058673  0  3.657783  0  0  0.023745  0  3.926571  0  0  0.025742  0  3.941142  0  0  0.053612  0.022432  0  3.91671  0
C  C82  1  0.79232678  0.47979643  0.35596609  1  0  0.058643  0  3.657901  0  0  0.023724  0  3.926652  0  0  0.02572  0  3.941225  0  0  0.053629  0.022407  0  3.91679  0
C  C83  1  0.70767655  0.02020136  0.85596664  1  0  0.05865  0  3.657883  0  0  0.023737  0  3.92662  0  0  0.025735  0  3.941203  0  0  0.053601  0.022427  0  3.916759  0
C  C84  1  0.10945564  0.40774263  0.74839463  1  0  0.062026  0  3.698689  0  0  0.036456  0  3.966632  0  0  0.038033  0  3.984241  0  0  0.047373  0.035159  0  3.955173  0
C  C85  1  0.39054242  0.09226170  0.24839259  1  0  0.062003  0  3.698756  0  0  0.036397  0  3.966772  0  0  0.037982  0  3.984353  0  0  0.047332  0.035102  0  3.955313  0
C  C86  1  0.89054507  0.59225532  0.25160599  1  0  0.061992  0  3.69872  0  0  0.036361  0  3.966716  0  0  0.037955  0  3.98429  0  0  0.047336  0.035063  0  3.955257  0
C  C87  1  0.60945856  0.90774146  0.75160672  1  0  0.062059  0  3.698587  0  0  0.036414  0  3.966627  0  0  0.038023  0  3.984216  0  0  0.04733  0.035118  0  3.955169  0
C  C88  1  0.09346408  0.33299125  0.68492658  1  0  0.093957  0  3.687058  0  0  0.064501  0  3.944642  0  0  0.067643  0  3.961414  0  0  0.060729  0.062368  0  3.933198  0
C  C89  1  0.40652818  0.16701156  0.18492521  1  0  0.094102  0  3.687123  0  0  0.064647  0  3.944704  0  0  0.067788  0  3.961477  0  0  0.060781  0.062511  0  3.933262  0
C  C90  1  0.90653812  0.66700744  0.31507274  1  0  0.093968  0  3.687013  0  0  0.064544  0  3.944595  0  0  0.067685  0  3.961366  0  0  0.06072  0.062412  0  3.933151  0
C  C91  1  0.59346544  0.83299012  0.81507345  1  0  0.094046  0  3.686987  0  0  0.064607  0  3.944582  0  0  0.067748  0  3.961347  0  0  0.060745  0.062473  0  3.933139  0
C  C92  1  0.88260337  0.62764640  0.99148272  1  0  0.697607  0  3.832127  0  0  0.654415  0  4.126654  0  0  0.687395  0  4.119869  0  0  0.208671  0.632038  0  4.130408  0
C  C93  1  0.61739277  0.87235350  0.49148742  1  0  0.697742  0  3.831966  0  0  0.654512  0  4.126544  0  0  0.687495  0  4.119756  0  0  0.208685  0.632136  0  4.130302  0
C  C94  1  0.11739589  0.37235155  0.00851333  1  0  0.697678  0  3.831949  0  0  0.654481  0  4.126471  0  0  0.687463  0  4.119682  0  0  0.208683  0.632104  0  4.130228  0
C  C95  1  0.38260530  0.12764967  0.50851320  1  0  0.697688  0  3.832005  0  0  0.654491  0  4.126516  0  0  0.68747  0  4.11973  0  0  0.208686  0.632115  0  4.130273  0
C  C96  1  0.99126988  0.53683196  0.96153859  1  0  -0.242315  0  3.65842  0  0  -0.282567  0  3.908831  0  0  -0.287766  0  3.916319  0  0  -0.16463  -0.278873  0  3.903448  0
C  C97  1  0.50873066  0.96316792  0.46154010  1  0  -0.242414  0  3.658432  0  0  -0.282633  0  3.90881  0  0  -0.287837  0  3.916297  0  0  -0.164665  -0.278941  0  3.903425  0
C  C98  1  0.00873083  0.46316598  0.03845876  1  0  -0.242343  0  3.65838  0  0  -0.282552  0  3.908728  0  0  -0.287763  0  3.916223  0  0  -0.164631  -0.278861  0  3.903347  0
C  C99  1  0.49126886  0.03683525  0.53845922  1  0  -0.242355  0  3.658476  0  0  -0.282571  0  3.908805  0  0  -0.28777  0  3.91629  0  0  -0.164629  -0.278875  0  3.903415  0
N  N100  1  0.50173986  0.67773718  0.13948264  1  0  -0.335919  0  3.291869  0  0  -0.253593  0  3.559434  0  0  -0.272121  0  3.575578  0  0  -0.33081  -0.241043  0  3.548249  0
N  N101  1  0.99826110  0.82226103  0.63948582  1  0  -0.335956  0  3.291681  0  0  -0.253635  0  3.559272  0  0  -0.272164  0  3.575414  0  0  -0.330858  -0.241089  0  3.548091  0
N  N102  1  0.49825939  0.32226076  0.86051538  1  0  -0.335897  0  3.291801  0  0  -0.253618  0  3.559434  0  0  -0.272144  0  3.575573  0  0  -0.330865  -0.241069  0  3.54825  0
N  N103  1  0.00174129  0.17774139  0.36051677  1  0  -0.335733  0  3.291594  0  0  -0.253449  0  3.559205  0  0  -0.271976  0  3.575349  0  0  -0.330749  -0.240899  0  3.54802  0
N  N104  1  0.29174205  0.54301110  0.44396999  1  0  -0.453886  0  3.010634  0  0  -0.404167  0  3.265339  0  0  -0.421098  0  3.279537  0  0  -0.323454  -0.392668  0  3.25549  0
N  N105  1  0.20826299  0.95699014  0.94397006  1  0  -0.453865  0  3.010821  0  0  -0.404142  0  3.265519  0  0  -0.421059  0  3.279715  0  0  -0.323526  -0.392639  0  3.255664  0
N  N106  1  0.70826164  0.45698833  0.55602998  1  0  -0.453752  0  3.010702  0  0  -0.404068  0  3.265397  0  0  -0.420993  0  3.279581  0  0  -0.323462  -0.392567  0  3.255546  0
N  N107  1  0.79174227  0.04301153  0.05602991  1  0  -0.453857  0  3.010647  0  0  -0.404098  0  3.265342  0  0  -0.421035  0  3.27955  0  0  -0.323422  -0.392598  0  3.255494  0
N  N108  1  0.20276448  0.38255856  0.43168805  1  0  -0.309626  0  3.302188  0  0  -0.238989  0  3.607982  0  0  -0.256913  0  3.62283  0  0  -0.244838  -0.226972  0  3.597874  0
N  N109  1  0.29723605  0.11744288  0.93168860  1  0  -0.309593  0  3.302097  0  0  -0.238949  0  3.607904  0  0  -0.256872  0  3.622744  0  0  -0.244842  -0.226926  0  3.597791  0
N  N110  1  0.79723202  0.61744237  0.56831257  1  0  -0.309596  0  3.302165  0  0  -0.238948  0  3.607946  0  0  -0.256873  0  3.622794  0  0  -0.244781  -0.226927  0  3.597836  0
N  N111  1  0.70277058  0.88255729  0.06831071  1  0  -0.309662  0  3.302221  0  0  -0.239001  0  3.608027  0  0  -0.256923  0  3.62287  0  0  -0.24482  -0.226979  0  3.597914  0
N  N112  1  0.25287063  0.41265456  0.35087336  1  0  -0.253258  0  2.927676  0  0  -0.239103  0  3.203367  0  0  -0.246894  0  3.220338  0  0  -0.217793  -0.233702  0  3.191748  0
N  N113  1  0.24712999  0.08734609  0.85087327  1  0  -0.253336  0  2.927637  0  0  -0.239201  0  3.203322  0  0  -0.246982  0  3.220301  0  0  -0.217844  -0.233802  0  3.191703  0
N  N114  1  0.74711710  0.58734563  0.64912661  1  0  -0.25325  0  2.927774  0  0  -0.239132  0  3.203451  0  0  -0.246923  0  3.220424  0  0  -0.217848  -0.233732  0  3.191832  0
N  N115  1  0.75287520  0.91265409  0.14912605  1  0  -0.253267  0  2.927732  0  0  -0.239124  0  3.203422  0  0  -0.246915  0  3.220391  0  0  -0.217807  -0.233724  0  3.191804  0
N  N116  1  0.13218550  0.35235413  0.60126694  1  0  -0.301388  0  3.185632  0  0  -0.242787  0  3.444248  0  0  -0.25517  0  3.460031  0  0  -0.295813  -0.234105  0  3.433553  0
N  N117  1  0.36781125  0.14764863  0.10126624  1  0  -0.301373  0  3.185681  0  0  -0.24273  0  3.444271  0  0  -0.255113  0  3.460053  0  0  -0.295785  -0.234046  0  3.433577  0
N  N118  1  0.86781819  0.64764530  0.39873303  1  0  -0.30131  0  3.185451  0  0  -0.242749  0  3.444093  0  0  -0.255133  0  3.459875  0  0  -0.295796  -0.234066  0  3.433399  0
N  N119  1  0.63218383  0.85235305  0.89873373  1  0  -0.301381  0  3.185626  0  0  -0.24277  0  3.444256  0  0  -0.255151  0  3.460042  0  0  -0.29581  -0.234087  0  3.433561  0
N  N120  1  0.16593354  0.50127270  0.72797833  1  0  -0.257552  0  3.049628  0  0  -0.227889  0  3.325378  0  0  -0.234325  0  3.340052  0  0  -0.304063  -0.223163  0  3.315216  0
N  N121  1  0.33407336  0.99872991  0.22797713  1  0  -0.257523  0  3.049641  0  0  -0.227832  0  3.325379  0  0  -0.234273  0  3.340054  0  0  -0.304007  -0.223104  0  3.315217  0
N  N122  1  0.83407007  0.49872524  0.27202294  1  0  -0.257475  0  3.049677  0  0  -0.227796  0  3.325433  0  0  -0.234239  0  3.34011  0  0  -0.304055  -0.223067  0  3.31527  0
N  N123  1  0.66593772  0.00127175  0.77202415  1  0  -0.257526  0  3.049537  0  0  -0.227841  0  3.325285  0  0  -0.234281  0  3.339949  0  0  -0.30405  -0.223115  0  3.315126  0
O  O124  1  0.96579677  0.68996796  0.04186474  1  0  -0.64008  0  1.938516  0  0  -0.587471  0  2.159252  0  0  -0.610554  0  2.147729  0  0  -0.324342  -0.571291  0  2.166699  0
O  O125  1  0.53419845  0.81002872  0.54186807  1  0  -0.640111  0  1.938442  0  0  -0.587566  0  2.159234  0  0  -0.610635  0  2.147679  0  0  -0.324391  -0.571384  0  2.166683  0
O  O126  1  0.03420091  0.31002775  0.95813327  1  0  -0.640098  0  1.938436  0  0  -0.587509  0  2.159212  0  0  -0.610588  0  2.147675  0  0  -0.324384  -0.571328  0  2.166661  0
O  O127  1  0.46579809  0.18997296  0.45813190  1  0  -0.640098  0  1.938422  0  0  -0.58752  0  2.159203  0  0  -0.610599  0  2.147672  0  0  -0.3244  -0.571337  0  2.166654  0
O  O128  1  0.70410722  0.63482141  0.96674971  1  0  -0.639149  0  2.001333  0  0  -0.565341  0  2.259075  0  0  -0.594305  0  2.246125  0  0  -0.326049  -0.545067  0  2.267194  0
O  O129  1  0.79589187  0.86517847  0.46675565  1  0  -0.639222  0  2.001415  0  0  -0.565361  0  2.259109  0  0  -0.594326  0  2.246155  0  0  -0.326017  -0.545086  0  2.267229  0
O  O130  1  0.29589510  0.36517951  0.03324569  1  0  -0.639197  0  2.0013  0  0  -0.565385  0  2.259036  0  0  -0.594349  0  2.246082  0  0  -0.326036  -0.54511  0  2.267155  0
O  O131  1  0.20410758  0.13482320  0.53324759  1  0  -0.639237  0  2.001377  0  0  -0.565386  0  2.259059  0  0  -0.594349  0  2.246105  0  0  -0.326033  -0.545113  0  2.26718  0
O  O132  1  0.29786441  0.76732453  0.98774686  1  0  -0.84709  0  1.96882  0  0  -0.777597  0  2.195367  0  0  -0.800367  0  2.15871  0  0  -0.586538  -0.761517  0  2.22071  0
O  O133  1  0.20213474  0.73267674  0.48774755  1  0  -0.84705  0  1.968855  0  0  -0.777608  0  2.19528  0  0  -0.800379  0  2.158625  0  0  -0.586578  -0.761528  0  2.220622  0
O  O134  1  0.70213492  0.23267491  0.01225376  1  0  -0.847046  0  1.968845  0  0  -0.777559  0  2.195381  0  0  -0.800329  0  2.158726  0  0  -0.586508  -0.76148  0  2.220725  0
O  O135  1  0.79786612  0.26732419  0.51225438  1  0  -0.847052  0  1.968871  0  0  -0.777555  0  2.195423  0  0  -0.800326  0  2.158769  0  0  -0.586512  -0.761475  0  2.220766  0
