# generated using pymatgen
data_AgH8C4SNO4
_symmetry_space_group_name_H-M   'P 1'
_cell_length_a   6.08090205
_cell_length_b   7.33164169
_cell_length_c   17.70394236
_cell_angle_alpha   89.99990239
_cell_angle_beta   97.47466280
_cell_angle_gamma   89.99996659
_symmetry_Int_Tables_number   1
_chemical_formula_structural   AgH8C4SNO4
_chemical_formula_sum   'Ag4 H32 C16 S4 N4 O16'
_cell_volume   782.58772884
_cell_formula_units_Z   4
loop_
 _symmetry_equiv_pos_site_id
 _symmetry_equiv_pos_as_xyz
  1  'x, y, z'
loop_
 _atom_site_type_symbol
 _atom_site_label
 _atom_site_symmetry_multiplicity
 _atom_site_fract_x
 _atom_site_fract_y
 _atom_site_fract_z
 _atom_site_occupancy
 _atom_site_hle17_bader_spin_density
 _atom_site_hle17_ddec_charge
 _atom_site_hle17_ddec_spin_density
 _atom_site_hle17_ddec_sum_bond_order
 _atom_site_hle17_magmom
 _atom_site_hse06_10hf_bader_spin_density
 _atom_site_hse06_10hf_ddec_charge
 _atom_site_hse06_10hf_ddec_spin_density
 _atom_site_hse06_10hf_ddec_sum_bond_order
 _atom_site_hse06_10hf_magmom
 _atom_site_hse06_bader_spin_density
 _atom_site_hse06_ddec_charge
 _atom_site_hse06_ddec_spin_density
 _atom_site_hse06_ddec_sum_bond_order
 _atom_site_hse06_magmom
 _atom_site_pbe_bader_spin_density
 _atom_site_pbe_cm5_charge
 _atom_site_pbe_ddec_charge
 _atom_site_pbe_ddec_spin_density
 _atom_site_pbe_ddec_sum_bond_order
 _atom_site_pbe_magmom
Ag  Ag0  1  0.66757236  0.51305364  0.22482704  1  0  0.423983  0  1.596754  0  0  0.303693  0  2.072085  0  0  0.327953  0  2.023726  0  0  0.388947  0.286539  0  2.105805  0
Ag  Ag1  1  0.66757134  0.98694785  0.72482632  1  0  0.423983  0  1.596761  0  0  0.303691  0  2.072084  0  0  0.327952  0  2.023724  0  0  0.38895  0.286537  0  2.105814  0
Ag  Ag2  1  0.33242381  0.48694658  0.77517273  1  0  0.423922  0  1.596771  0  0  0.303625  0  2.07212  0  0  0.327889  0  2.02376  0  0  0.388935  0.286474  0  2.105846  0
Ag  Ag3  1  0.33242484  0.01304964  0.27517402  1  0  0.423933  0  1.596703  0  0  0.303647  0  2.072029  0  0  0.327909  0  2.023673  0  0  0.388932  0.286494  0  2.105749  0
H  H4  1  0.45533198  0.55241425  0.39074565  1  0  0.124147  0  0.936953  0  0  0.135667  0  1.002385  0  0  0.137657  0  1.001277  0  0  0.107275  0.134175  0  1.003265  0
H  H5  1  0.45533267  0.94758666  0.89074559  1  0  0.124193  0  0.936933  0  0  0.135702  0  1.002347  0  0  0.137692  0  1.00124  0  0  0.107273  0.13421  0  1.003228  0
H  H6  1  0.54467084  0.44758597  0.60925554  1  0  0.124232  0  0.936832  0  0  0.135726  0  1.002306  0  0  0.137716  0  1.001193  0  0  0.107259  0.134231  0  1.003191  0
H  H7  1  0.54467014  0.05241082  0.10925447  1  0  0.12423  0  0.93691  0  0  0.135722  0  1.002352  0  0  0.137713  0  1.001243  0  0  0.107259  0.134227  0  1.003234  0
H  H8  1  0.21226868  0.44988622  0.33952881  1  0  0.113578  0  0.943031  0  0  0.129428  0  1.004493  0  0  0.130028  0  1.005638  0  0  0.10307  0.128919  0  1.003803  0
H  H9  1  0.21226973  0.05011662  0.83952792  1  0  0.113628  0  0.94305  0  0  0.129444  0  1.004519  0  0  0.130045  0  1.005664  0  0  0.103093  0.128935  0  1.003828  0
H  H10  1  0.78773249  0.55011536  0.66047231  1  0  0.113607  0  0.94306  0  0  0.129455  0  1.00452  0  0  0.130053  0  1.005662  0  0  0.103084  0.128944  0  1.003828  0
H  H11  1  0.78772975  0.94988360  0.16047200  1  0  0.113632  0  0.943059  0  0  0.129455  0  1.004518  0  0  0.130055  0  1.005663  0  0  0.103082  0.128943  0  1.003827  0
H  H12  1  0.24149685  0.39195619  0.48156982  1  0  0.079971  0  0.916012  0  0  0.094603  0  0.976427  0  0  0.095157  0  0.975681  0  0  0.109938  0.094081  0  0.977101  0
H  H13  1  0.24149620  0.10804605  0.98156938  1  0  0.079954  0  0.91603  0  0  0.094584  0  0.976449  0  0  0.095137  0  0.975705  0  0  0.109929  0.094063  0  0.977118  0
H  H14  1  0.75851097  0.60804402  0.51843271  1  0  0.080016  0  0.915999  0  0  0.094672  0  0.976372  0  0  0.095227  0  0.975625  0  0  0.109975  0.09415  0  0.977045  0
H  H15  1  0.75850494  0.89195280  0.01843061  1  0  0.079959  0  0.916027  0  0  0.094599  0  0.976438  0  0  0.095152  0  0.975693  0  0  0.109932  0.094077  0  0.977112  0
H  H16  1  0.24673016  0.18441070  0.42846666  1  0  0.049937  0  0.952345  0  0  0.063671  0  1.022626  0  0  0.063823  0  1.02247  0  0  0.095417  0.063454  0  1.022878  0
H  H17  1  0.24672764  0.31559312  0.92846542  1  0  0.049951  0  0.952388  0  0  0.063687  0  1.022656  0  0  0.063837  0  1.022502  0  0  0.095425  0.063468  0  1.022909  0
H  H18  1  0.75327433  0.81558952  0.57153517  1  0  0.049966  0  0.952368  0  0  0.06368  0  1.022655  0  0  0.063833  0  1.022496  0  0  0.095425  0.063459  0  1.02291  0
H  H19  1  0.75327020  0.68440709  0.07153499  1  0  0.049956  0  0.952387  0  0  0.063699  0  1.022651  0  0  0.063849  0  1.022496  0  0  0.095423  0.063479  0  1.022906  0
H  H20  1  0.82326338  0.12024743  0.49826640  1  0  0.082252  0  0.929126  0  0  0.094576  0  0.992042  0  0  0.09546  0  0.991275  0  0  0.108517  0.093807  0  0.992719  0
H  H21  1  0.82325748  0.37975446  0.99826498  1  0  0.082229  0  0.929212  0  0  0.094551  0  0.992133  0  0  0.095438  0  0.991361  0  0  0.108491  0.093781  0  0.992806  0
H  H22  1  0.17674275  0.87975278  0.50173436  1  0  0.082242  0  0.929184  0  0  0.094571  0  0.992097  0  0  0.095458  0  0.991325  0  0  0.108503  0.0938  0  0.992775  0
H  H23  1  0.17674035  0.62024712  0.00173487  1  0  0.082256  0  0.92915  0  0  0.094588  0  0.992056  0  0  0.095474  0  0.991284  0  0  0.108509  0.093818  0  0.992734  0
H  H24  1  0.59563719  0.02270602  0.43721900  1  0  0.051863  0  0.942029  0  0  0.059981  0  1.019701  0  0  0.061712  0  1.016873  0  0  0.093617  0.05858  0  1.0219  0
H  H25  1  0.59563619  0.47729487  0.93721828  1  0  0.051861  0  0.942087  0  0  0.060004  0  1.01972  0  0  0.061734  0  1.016896  0  0  0.093623  0.058601  0  1.02192  0
H  H26  1  0.40436894  0.97729420  0.56278177  1  0  0.051839  0  0.942059  0  0  0.05995  0  1.019738  0  0  0.06168  0  1.016912  0  0  0.093604  0.058546  0  1.021939  0
H  H27  1  0.40436331  0.52270535  0.06278220  1  0  0.051832  0  0.942078  0  0  0.059972  0  1.01972  0  0  0.061702  0  1.016894  0  0  0.093615  0.058568  0  1.021918  0
H  H28  1  0.85154605  0.37157196  0.40285965  1  0  0.110042  0  0.941528  0  0  0.126259  0  1.001294  0  0  0.127269  0  1.001554  0  0  0.103277  0.125463  0  1.001248  0
H  H29  1  0.85154870  0.12843031  0.90285934  1  0  0.110048  0  0.941582  0  0  0.126276  0  1.001333  0  0  0.127285  0  1.001596  0  0  0.10328  0.125482  0  1.001288  0
H  H30  1  0.14845842  0.62842553  0.59714104  1  0  0.110046  0  0.941511  0  0  0.126264  0  1.001282  0  0  0.127273  0  1.001541  0  0  0.103279  0.125466  0  1.001241  0
H  H31  1  0.14845244  0.87157127  0.09714065  1  0  0.110069  0  0.941529  0  0  0.126292  0  1.001279  0  0  0.127299  0  1.001542  0  0  0.103298  0.125498  0  1.001237  0
H  H32  1  0.87596662  0.15132123  0.36005017  1  0  0.119769  0  0.955784  0  0  0.135853  0  1.014599  0  0  0.137012  0  1.014848  0  0  0.104706  0.13495  0  1.014555  0
H  H33  1  0.87596408  0.34867983  0.86004947  1  0  0.119767  0  0.955755  0  0  0.135881  0  1.014545  0  0  0.137039  0  1.014796  0  0  0.104709  0.134978  0  1.014505  0
H  H34  1  0.12403785  0.84867898  0.63994996  1  0  0.11979  0  0.955778  0  0  0.13587  0  1.014597  0  0  0.137028  0  1.014849  0  0  0.104702  0.134966  0  1.014558  0
H  H35  1  0.12403708  0.65132175  0.13995108  1  0  0.119764  0  0.955785  0  0  0.135883  0  1.014562  0  0  0.137041  0  1.014811  0  0  0.104712  0.134978  0  1.014524  0
C  C36  1  0.37065516  0.42294944  0.37508376  1  0  -0.187975  0  3.606218  0  0  -0.23275  0  3.871819  0  0  -0.233393  0  3.883269  0  0  -0.156339  -0.232182  0  3.863901  0
C  C37  1  0.37065618  0.07705317  0.87508229  1  0  -0.188145  0  3.606308  0  0  -0.232834  0  3.871828  0  0  -0.233472  0  3.883258  0  0  -0.156373  -0.232266  0  3.863917  0
C  C38  1  0.62934767  0.57705078  0.62491742  1  0  -0.188132  0  3.606399  0  0  -0.232881  0  3.871914  0  0  -0.233541  0  3.883411  0  0  -0.156386  -0.232313  0  3.864005  0
C  C39  1  0.62934330  0.92294431  0.12491706  1  0  -0.188185  0  3.606418  0  0  -0.232879  0  3.87195  0  0  -0.23352  0  3.88339  0  0  -0.156343  -0.232315  0  3.864039  0
C  C40  1  0.33797491  0.31142721  0.44523843  1  0  0.086195  0  3.65682  0  0  0.029453  0  3.9244  0  0  0.036318  0  3.93143  0  0  -0.076298  0.024921  0  3.919557  0
C  C41  1  0.33797251  0.18857513  0.94523673  1  0  0.086187  0  3.656925  0  0  0.029449  0  3.924482  0  0  0.036313  0  3.931514  0  0  -0.076302  0.024927  0  3.919626  0
C  C42  1  0.66203124  0.68857300  0.55476346  1  0  0.086144  0  3.657  0  0  0.029414  0  3.92453  0  0  0.036282  0  3.931553  0  0  -0.076318  0.024876  0  3.919689  0
C  C43  1  0.66202697  0.81142372  0.05476262  1  0  0.086235  0  3.656913  0  0  0.029472  0  3.924502  0  0  0.036334  0  3.931533  0  0  -0.076291  0.024947  0  3.919658  0
C  C44  1  0.68240535  0.15164571  0.45482429  1  0  0.080695  0  3.653355  0  0  0.026432  0  3.918905  0  0  0.032829  0  3.925823  0  0  -0.077415  0.02227  0  3.914085  0
C  C45  1  0.68240447  0.34835779  0.95482423  1  0  0.080631  0  3.65332  0  0  0.02637  0  3.918881  0  0  0.032765  0  3.925796  0  0  -0.077411  0.022214  0  3.914065  0
C  C46  1  0.31759911  0.84835724  0.54517527  1  0  0.080774  0  3.653231  0  0  0.026508  0  3.918774  0  0  0.032909  0  3.92569  0  0  -0.077377  0.022342  0  3.913962  0
C  C47  1  0.31759669  0.65164379  0.04517688  1  0  0.080658  0  3.653363  0  0  0.026398  0  3.918901  0  0  0.032793  0  3.925818  0  0  -0.077408  0.022245  0  3.914092  0
C  C48  1  0.76634534  0.24243040  0.38698215  1  0  -0.185196  0  3.622901  0  0  -0.227745  0  3.881964  0  0  -0.228468  0  3.893717  0  0  -0.155012  -0.227166  0  3.873888  0
C  C49  1  0.76634453  0.25756788  0.88698047  1  0  -0.185176  0  3.622817  0  0  -0.227794  0  3.881949  0  0  -0.228518  0  3.893701  0  0  -0.155026  -0.2272  0  3.873835  0
C  C50  1  0.23365579  0.75757118  0.61301727  1  0  -0.185215  0  3.6228  0  0  -0.227828  0  3.881989  0  0  -0.228547  0  3.893735  0  0  -0.155001  -0.227224  0  3.873854  0
C  C51  1  0.23365164  0.74242961  0.11301931  1  0  -0.1852  0  3.62283  0  0  -0.227843  0  3.882019  0  0  -0.228563  0  3.893768  0  0  -0.155051  -0.227239  0  3.873867  0
S  S52  1  0.53703241  0.29737737  0.31449364  1  0  0.052255  0  3.0196  0  0  0.096632  0  3.531048  0  0  0.090395  0  3.511324  0  0  -0.029214  0.100806  0  3.544653  0
S  S53  1  0.53703332  0.20262404  0.81449263  1  0  0.05231  0  3.019746  0  0  0.096669  0  3.531206  0  0  0.090435  0  3.51148  0  0  -0.029204  0.100835  0  3.544827  0
S  S54  1  0.46296542  0.70262421  0.68550677  1  0  0.05222  0  3.01975  0  0  0.096601  0  3.531223  0  0  0.090365  0  3.511495  0  0  -0.029241  0.100768  0  3.54484  0
S  S55  1  0.46296616  0.79737345  0.18550728  1  0  0.052211  0  3.019765  0  0  0.096574  0  3.531231  0  0  0.090337  0  3.511506  0  0  -0.029267  0.100741  0  3.54484  0
N  N56  1  0.01520972  0.26950275  0.15942443  1  0  0.68632  0  4.133866  0  0  0.716534  0  4.419032  0  0  0.74483  0  4.427158  0  0  0.094165  0.699114  0  4.412607  0
N  N57  1  0.01520398  0.23049682  0.65942369  1  0  0.686265  0  4.134194  0  0  0.71625  0  4.419636  0  0  0.744549  0  4.427761  0  0  0.094048  0.69883  0  4.413214  0
N  N58  1  0.98481447  0.73048792  0.84056581  1  0  0.686217  0  4.13442  0  0  0.716709  0  4.419291  0  0  0.745011  0  4.427417  0  0  0.094256  0.699282  0  4.41287  0
N  N59  1  0.98481357  0.76951430  0.34056571  1  0  0.686225  0  4.13441  0  0  0.716718  0  4.419282  0  0  0.745018  0  4.427408  0  0  0.094226  0.69929  0  4.41286  0
O  O60  1  0.89199616  0.40410273  0.13447334  1  0  -0.459101  0  1.854004  0  0  -0.425723  0  2.096531  0  0  -0.444478  0  2.086545  0  0  -0.197848  -0.413192  0  2.103147  0
O  O61  1  0.89199387  0.09589379  0.63447340  1  0  -0.459145  0  1.854109  0  0  -0.425688  0  2.096695  0  0  -0.444444  0  2.086709  0  0  -0.197846  -0.41316  0  2.103314  0
O  O62  1  0.10799834  0.59590295  0.86552523  1  0  -0.458986  0  1.854697  0  0  -0.425747  0  2.097217  0  0  -0.444501  0  2.087234  0  0  -0.197778  -0.413219  0  2.103839  0
O  O63  1  0.10799731  0.90409688  0.36552502  1  0  -0.458984  0  1.854714  0  0  -0.425735  0  2.09722  0  0  -0.444487  0  2.087237  0  0  -0.197773  -0.413206  0  2.103839  0
O  O64  1  0.00149283  0.20948604  0.22642359  1  0  -0.486077  0  1.810077  0  0  -0.462143  0  2.056467  0  0  -0.480126  0  2.046945  0  0  -0.208844  -0.450127  0  2.062751  0
O  O65  1  0.00150031  0.29050644  0.72642393  1  0  -0.485966  0  1.810258  0  0  -0.461945  0  2.056706  0  0  -0.479931  0  2.04719  0  0  -0.208724  -0.449922  0  2.062962  0
O  O66  1  0.99849673  0.79051553  0.77357759  1  0  -0.485748  0  1.810926  0  0  -0.4619  0  2.057287  0  0  -0.479877  0  2.047769  0  0  -0.208645  -0.449877  0  2.063543  0
O  O67  1  0.99849922  0.70948422  0.27357824  1  0  -0.485752  0  1.810918  0  0  -0.461904  0  2.057285  0  0  -0.479881  0  2.047765  0  0  -0.208626  -0.449876  0  2.063534  0
O  O68  1  0.14543284  0.19981582  0.11833145  1  0  -0.441026  0  1.735844  0  0  -0.431655  0  1.947708  0  0  -0.445249  0  1.941687  0  0  -0.176383  -0.422982  0  1.951874  0
O  O69  1  0.14541205  0.30019068  0.61832718  1  0  -0.44106  0  1.735994  0  0  -0.431603  0  1.94792  0  0  -0.445194  0  1.941894  0  0  -0.176371  -0.422901  0  1.952045  0
O  O70  1  0.85455347  0.80020077  0.88167355  1  0  -0.44136  0  1.73471  0  0  -0.43212  0  1.946538  0  0  -0.445726  0  1.94051  0  0  -0.176801  -0.423427  0  1.950705  0
O  O71  1  0.85455098  0.69980272  0.38167343  1  0  -0.441368  0  1.734704  0  0  -0.432142  0  1.946543  0  0  -0.445747  0  1.940514  0  0  -0.176797  -0.42345  0  1.95071  0
O  O72  1  0.54139962  0.26890044  0.49171619  1  0  -0.301589  0  2.218449  0  0  -0.232675  0  2.464511  0  0  -0.248638  0  2.466579  0  0  -0.231521  -0.221358  0  2.462669  0
O  O73  1  0.54139720  0.23110161  0.99171559  1  0  -0.301507  0  2.218453  0  0  -0.232619  0  2.464521  0  0  -0.248582  0  2.466588  0  0  -0.231513  -0.221319  0  2.462681  0
O  O74  1  0.45860817  0.73109977  0.50828464  1  0  -0.301598  0  2.218462  0  0  -0.232652  0  2.464458  0  0  -0.248623  0  2.466529  0  0  -0.231516  -0.221329  0  2.462614  0
O  O75  1  0.45860229  0.76889860  0.00828433  1  0  -0.3015  0  2.21844  0  0  -0.232598  0  2.464505  0  0  -0.248559  0  2.466573  0  0  -0.231496  -0.221303  0  2.462672  0
