# generated using pymatgen
data_MnH16C20(S3N2)2
_symmetry_space_group_name_H-M   'P 1'
_cell_length_a   7.98633922
_cell_length_b   7.98640653
_cell_length_c   19.26341345
_cell_angle_alpha   89.94462760
_cell_angle_beta   89.94454623
_cell_angle_gamma   115.95531337
_symmetry_Int_Tables_number   1
_chemical_formula_structural   MnH16C20(S3N2)2
_chemical_formula_sum   'Mn2 H32 C40 S12 N8'
_cell_volume   1104.73195632
_cell_formula_units_Z   2
loop_
 _symmetry_equiv_pos_site_id
 _symmetry_equiv_pos_as_xyz
  1  'x, y, z'
loop_
 _atom_site_type_symbol
 _atom_site_label
 _atom_site_symmetry_multiplicity
 _atom_site_fract_x
 _atom_site_fract_y
 _atom_site_fract_z
 _atom_site_occupancy
 _atom_site_hle17_ddec_charge
 _atom_site_hle17_ddec_spin_density
 _atom_site_hle17_ddec_sum_bond_order
 _atom_site_hle17_magmom
 _atom_site_hse06_10hf_bader_charge
 _atom_site_hse06_10hf_bader_spin_density
 _atom_site_hse06_10hf_ddec_charge
 _atom_site_hse06_10hf_ddec_spin_density
 _atom_site_hse06_10hf_ddec_sum_bond_order
 _atom_site_hse06_10hf_magmom
 _atom_site_hse06_ddec_charge
 _atom_site_hse06_ddec_spin_density
 _atom_site_hse06_ddec_sum_bond_order
 _atom_site_hse06_magmom
 _atom_site_pbe_cm5_charge
 _atom_site_pbe_ddec_charge
 _atom_site_pbe_ddec_spin_density
 _atom_site_pbe_ddec_sum_bond_order
 _atom_site_pbe_magmom
Mn  Mn0  1  0.16584663  0.83414928  0.25000193  1  0.454222  2.014537  3.400356  1.848  1.266655  1.370688  0.374966  1.48572  3.943313  1.367  0.390956  1.403438  3.924352  1.297  0.631277  0.361963  1.433456  3.954381  1.318
Mn  Mn1  1  0.83394907  0.16605358  0.74999891  1  0.452399  -2.018862  3.394771  -1.853  1.263704  -1.373178  0.373727  -1.48792  3.937706  -1.369  0.389793  -1.401836  3.918605  -1.295  0.628783  0.361172  -1.436417  3.948603  -1.321
H  H2  1  0.74107963  0.61116752  0.23253311  1  0.072169  0.000648  0.993456  0.001  0.098434  -0.000217  0.082488  -0.000201  1.056642  0.0  0.085549  -0.000161  1.054404  0.0  0.103937  0.080468  -0.000108  1.057952  0.0
H  H3  1  0.25947403  0.39135458  0.73298096  1  0.072455  -0.000659  0.99333  -0.001  0.118639  0.000201  0.081808  0.000205  1.057556  0.0  0.085044  0.00016  1.055093  0.0  0.103656  0.079743  0.000112  1.058917  0.0
H  H4  1  0.38884611  0.25890603  0.26746577  1  0.072178  0.000647  0.993437  0.001  0.09862  -0.000216  0.082475  -0.000201  1.056646  0.0  0.085538  -0.000161  1.054403  0.0  0.103936  0.080482  -0.000109  1.057926  0.0
H  H5  1  0.60864141  0.74053526  0.76701716  1  0.07245  -0.000658  0.993312  -0.001  0.118738  0.000201  0.081778  0.000205  1.057565  0.0  0.085017  0.00016  1.055103  0.0  0.103643  0.079715  0.000112  1.058925  0.0
H  H6  1  0.53399532  0.34835786  0.15783044  1  0.095112  1e-05  0.984322  0.0  0.077991  4.9e-05  0.102796  0.000144  1.051106  0.0  0.106737  0.0001  1.049505  0.0  0.094257  0.100124  0.000252  1.05221  0.0
H  H7  1  0.46696375  0.65368953  0.65770446  1  0.095493  -1.4e-05  0.984959  0.0  0.0731  -5e-05  0.102842  -0.000148  1.052063  0.0  0.106909  -0.000105  1.050273  0.0  0.094034  0.100123  -0.000255  1.053228  0.0
H  H8  1  0.65164810  0.46599107  0.34217102  1  0.095152  1e-05  0.98426  0.0  0.07815  4.9e-05  0.102805  0.000144  1.051103  0.0  0.106751  0.0001  1.049497  0.0  0.094237  0.100136  0.000252  1.052203  0.0
H  H9  1  0.34630036  0.53304671  0.84229473  1  0.095598  -1.4e-05  0.984855  0.0  0.073509  -5.1e-05  0.102892  -0.000149  1.052019  0.0  0.106962  -0.000105  1.050222  0.0  0.094019  0.100173  -0.000255  1.053188  0.0
H  H10  1  0.67876678  0.22066226  0.06797190  1  0.089821  0.001127  0.95925  0.002  0.145023  -0.000295  0.09618  -0.000362  1.028414  0.0  0.099665  -0.000195  1.025207  0.0  0.096272  0.093799  -0.000412  1.030403  0.0
H  H11  1  0.32278088  0.77916773  0.56681857  1  0.089726  -0.001142  0.958355  -0.002  0.104162  0.000363  0.096178  0.000362  1.027687  0.0  0.099695  0.000194  1.024336  0.0  0.096324  0.093793  0.000413  1.029716  0.0
H  H12  1  0.77934158  0.32122211  0.43203257  1  0.089763  0.001127  0.95933  0.002  0.145044  -0.000294  0.096135  -0.000362  1.028475  0.0  0.099621  -0.000195  1.025268  0.0  0.096237  0.093755  -0.000412  1.030462  0.0
H  H13  1  0.22083509  0.67723178  0.93318590  1  0.089727  -0.001142  0.958225  -0.002  0.104232  0.000364  0.096145  0.000362  1.027587  0.0  0.099656  0.000194  1.024243  0.0  0.096311  0.093772  0.000412  1.029576  0.0
H  H14  1  0.02334579  0.37004514  0.05622812  1  0.094125  -0.000415  0.993861  -0.001  0.098781  -3.6e-05  0.099601  7.6e-05  1.066314  0.0  0.1038  6.2e-05  1.063521  0.0  0.093728  0.0967  5.8e-05  1.068418  0.0
H  H15  1  0.97816897  0.62909768  0.55524628  1  0.094121  0.00042  0.99441  0.001  0.098438  3.4e-05  0.099063  -7.7e-05  1.067451  0.0  0.10319  -6.5e-05  1.064794  0.0  0.093583  0.096237  -5.7e-05  1.069404  0.0
H  H16  1  0.62995166  0.97664927  0.44377614  1  0.094121  -0.000415  0.993964  -0.001  0.098777  -3.6e-05  0.099608  7.6e-05  1.066377  0.0  0.103807  6.2e-05  1.063583  0.0  0.093752  0.096712  5.8e-05  1.068471  0.0
H  H17  1  0.37092069  0.02184430  0.94475684  1  0.094166  0.00042  0.994404  0.001  0.09843  3.4e-05  0.099164  -7.7e-05  1.067349  0.0  0.103293  -6.4e-05  1.064689  0.0  0.093619  0.096328  -5.7e-05  1.069324  0.0
H  H18  1  0.99834041  0.41266665  0.27266648  1  0.084659  2.7e-05  0.944766  0.0  0.103745  -0.000409  0.093726  -0.000347  1.006242  0.0  0.095571  -0.000296  1.004995  0.0  0.118177  0.092411  -0.000294  1.007126  0.0
H  H19  1  0.99966512  0.58713276  0.77226004  1  0.083497  -1.8e-05  0.946251  0.0  0.106604  0.000415  0.092829  0.000356  1.007519  0.0  0.094601  0.000302  1.006339  0.0  0.118036  0.091537  0.000303  1.008365  0.0
H  H20  1  0.58733737  0.00166243  0.22733690  1  0.084596  2.8e-05  0.944756  0.0  0.103598  -0.000409  0.093642  -0.000347  1.006257  0.0  0.09549  -0.000296  1.005005  0.0  0.118133  0.092327  -0.000294  1.007139  0.0
H  H21  1  0.41287855  0.00032820  0.72773631  1  0.083541  -1.8e-05  0.946206  0.0  0.106271  0.000415  0.092872  0.000356  1.00749  0.0  0.094646  0.000301  1.006309  0.0  0.118074  0.091581  0.000303  1.00834  0.0
H  H22  1  0.05626932  0.20272541  0.35367939  1  0.098493  0.000783  0.99812  0.0  0.079195  0.000629  0.103449  0.000765  1.068557  0.0  0.107492  0.000614  1.067739  0.0  0.090419  0.100619  0.000923  1.069163  0.0
H  H23  1  0.94174540  0.79660126  0.85355431  1  0.098373  -0.000787  0.998312  0.0  0.129772  -0.000641  0.103308  -0.000767  1.068799  0.0  0.107393  -0.000617  1.067891  0.0  0.090388  0.100425  -0.000921  1.069477  0.0
H  H24  1  0.79728073  0.94373677  0.14632167  1  0.098473  0.000783  0.998157  0.0  0.079274  0.000629  0.103467  0.000765  1.068561  0.0  0.107511  0.000614  1.067741  0.0  0.090419  0.100636  0.000923  1.069169  0.0
H  H25  1  0.20340231  0.05824687  0.64644319  1  0.098387  -0.000787  0.998328  0.0  0.129766  -0.000641  0.103298  -0.000767  1.068815  0.0  0.107394  -0.000617  1.067902  0.0  0.090402  0.100414  -0.000921  1.069493  0.0
H  H26  1  0.30828200  0.34235850  0.44344756  1  0.079817  0.000671  0.986949  0.001  0.094398  -0.00018  0.08946  -0.000202  1.052313  0.0  0.091781  -0.000171  1.050739  0.0  0.092162  0.087709  -0.000196  1.053563  0.0
H  H27  1  0.69036110  0.65618553  0.94385246  1  0.079905  -0.000683  0.985306  -0.001  0.098185  0.000173  0.089592  0.000203  1.050497  0.0  0.09203  0.000167  1.048827  0.0  0.092262  0.08774  0.000199  1.051809  0.0
H  H28  1  0.65764685  0.69172907  0.05655086  1  0.079861  0.000671  0.98695  0.001  0.093446  -0.000181  0.089494  -0.000202  1.052333  0.0  0.091813  -0.000171  1.050764  0.0  0.092164  0.087741  -0.000196  1.053585  0.0
H  H29  1  0.34381843  0.30961293  0.55613989  1  0.07989  -0.000683  0.985356  -0.001  0.097443  0.000173  0.089643  0.000203  1.05049  0.0  0.092049  0.000167  1.04884  0.0  0.092267  0.08779  0.000198  1.051813  0.0
H  H30  1  0.48697745  0.68915014  0.44963018  1  0.102558  -6e-05  0.959277  0.0  0.083494  -3e-05  0.111429  9.8e-05  1.02437  0.0  0.114701  8.7e-05  1.023172  0.0  0.10185  0.109054  8.5e-05  1.025493  0.0
H  H31  1  0.51263031  0.30909033  0.95009481  1  0.101369  6.3e-05  0.961079  0.0  0.072466  3.2e-05  0.110556  -9.6e-05  1.026054  0.0  0.113808  -8.8e-05  1.024789  0.0  0.10159  0.10823  -8.1e-05  1.027135  0.0
H  H32  1  0.31084939  0.51302689  0.05037557  1  0.102657  -6e-05  0.959236  0.0  0.083224  -3e-05  0.111544  9.8e-05  1.024293  0.0  0.114819  8.7e-05  1.02309  0.0  0.101891  0.109168  8.5e-05  1.02542  0.0
H  H33  1  0.69091717  0.48733054  0.54988814  1  0.101388  6.3e-05  0.961019  0.0  0.072286  3.2e-05  0.110587  -9.6e-05  1.025958  0.0  0.113854  -8.8e-05  1.024659  0.0  0.101592  0.10825  -8.1e-05  1.027076  0.0
C  C34  1  0.79843787  0.55366370  0.19297833  1  0.108028  -0.027954  3.682311  -0.019  0.486417  -0.013679  0.077454  -0.010762  3.927954  -0.006  0.087866  -0.009973  3.93815  -0.006  0.036073  0.070713  -0.007911  3.920878  -0.004
C  C35  1  0.20236776  0.44787768  0.69300220  1  0.108359  0.028378  3.679934  0.019  0.464633  0.013911  0.079043  0.010992  3.925033  0.006  0.089098  0.010116  3.935642  0.006  0.036541  0.072373  0.008125  3.918016  0.004
C  C36  1  0.44634837  0.20155630  0.30702258  1  0.107951  -0.027936  3.682529  -0.019  0.485949  -0.013676  0.077464  -0.010759  3.928131  -0.006  0.08786  -0.009971  3.938356  -0.006  0.036072  0.0707  -0.007908  3.921044  -0.004
C  C37  1  0.55212086  0.79764711  0.80699545  1  0.108479  0.028342  3.679832  0.019  0.464826  0.013895  0.079173  0.01098  3.924872  0.006  0.089147  0.010105  3.935515  0.006  0.036613  0.07251  0.008115  3.917843  0.004
C  C38  1  0.68454329  0.40717732  0.15108730  1  -0.122363  0.003596  3.755442  0.006  -0.002086  -0.003813  -0.129185  -0.003433  3.998432  -0.001  -0.135199  -0.000188  4.014339  0.001  -0.090656  -0.125512  -0.005588  3.98733  -0.003
C  C39  1  0.31649922  0.59395994  0.65077625  1  -0.123639  -0.003769  3.756049  -0.006  0.00832  0.003774  -0.130224  0.003383  3.999069  0.001  -0.136195  4.8e-05  4.014748  -0.001  -0.090717  -0.126521  0.005573  3.98799  0.003
C  C40  1  0.59282880  0.31544552  0.34891308  1  -0.122298  0.003582  3.755445  0.006  -0.001949  -0.003816  -0.129113  -0.003436  3.998388  -0.001  -0.135129  -0.000188  4.014295  0.001  -0.09052  -0.12544  -0.00559  3.98729  -0.003
C  C41  1  0.40603503  0.68351168  0.84922400  1  -0.123915  -0.003744  3.75604  -0.006  0.00791  0.003782  -0.130482  0.003389  3.999091  0.001  -0.136446  5.3e-05  4.014774  -0.001  -0.090814  -0.12678  0.005578  3.988015  0.003
C  C42  1  0.76444862  0.33805262  0.10077403  1  -0.02868  -0.054366  3.753954  -0.042  -0.127234  -0.026645  -0.043875  -0.021759  4.000799  -0.016  -0.034635  -0.01646  4.012003  -0.012  -0.08346  -0.048872  -0.019981  3.992149  -0.014
C  C43  1  0.23701248  0.66216515  0.59999693  1  -0.028467  0.054781  3.752796  0.042  -0.047348  0.026637  -0.043737  0.021961  3.999672  0.016  -0.034383  0.016491  4.010765  0.012  -0.083747  -0.048779  0.020183  3.991009  0.014
C  C44  1  0.66194852  0.23554098  0.39923045  1  -0.028812  -0.05436  3.75409  -0.042  -0.127123  -0.026648  -0.04402  -0.021761  4.000913  -0.016  -0.034777  -0.016465  4.012112  -0.012  -0.083563  -0.049017  -0.019983  3.992261  -0.014
C  C45  1  0.33784036  0.76299897  0.90000494  1  -0.028353  0.054727  3.752707  0.042  -0.047304  0.026616  -0.043604  0.021944  3.999618  0.016  -0.034244  0.01648  4.010687  0.012  -0.08371  -0.048637  0.020168  3.990956  0.014
C  C46  1  0.95672071  0.42177363  0.09432754  1  -0.131592  0.021294  3.733273  0.02  -0.012353  0.003621  -0.14965  0.00262  3.979439  0.004  -0.155833  0.003598  3.994111  0.004  -0.084512  -0.146216  0.001005  3.969423  0.003
C  C47  1  0.04472648  0.57799292  0.59358389  1  -0.131845  -0.021534  3.73249  -0.02  -0.088357  -0.003561  -0.149968  -0.002697  3.979528  -0.004  -0.156109  -0.003696  3.994245  -0.004  -0.084364  -0.146551  -0.001053  3.969461  -0.003
C  C48  1  0.57822408  0.04327352  0.40567689  1  -0.131494  0.021281  3.73358  0.02  -0.012417  0.00362  -0.14956  0.002618  3.979723  0.004  -0.155742  0.003601  3.994391  0.004  -0.084476  -0.146124  0.001005  3.969701  0.003
C  C49  1  0.42200189  0.95527574  0.90641802  1  -0.13198  -0.021509  3.732491  -0.02  -0.088468  -0.003554  -0.150088  -0.002692  3.979461  -0.004  -0.156238  -0.003691  3.994169  -0.004  -0.084384  -0.146648  -0.001048  3.969417  -0.003
C  C50  1  0.06493935  0.56971309  0.13797240  1  0.148686  -0.045521  3.75587  -0.033  0.407216  -0.022715  0.144017  -0.019087  3.996609  -0.012  0.155624  -0.014515  4.007362  -0.009  0.105754  0.136997  -0.017756  3.98836  -0.011
C  C51  1  0.93613017  0.43049659  0.63754035  1  0.148453  0.045614  3.753878  0.033  0.504085  0.022585  0.144985  0.019152  3.993758  0.012  0.156418  0.014441  4.004736  0.009  0.105647  0.138074  0.017819  3.985453  0.011
C  C52  1  0.43028817  0.93505782  0.36203192  1  0.148562  -0.045517  3.756034  -0.033  0.407184  -0.022718  0.143941  -0.01909  3.996769  -0.012  0.155552  -0.01452  4.007515  -0.009  0.1057  0.136921  -0.017758  3.988519  -0.011
C  C53  1  0.56950869  0.06387652  0.86245649  1  0.148552  0.045606  3.754087  0.033  0.504288  0.022583  0.144944  0.01915  3.994056  0.012  0.156378  0.014434  4.004959  0.009  0.105631  0.137948  0.017821  3.98586  0.011
C  C54  1  0.10488325  0.46948488  0.31253647  1  0.118909  -0.013699  3.658176  -0.008  0.494054  -0.009632  0.086621  -0.007218  3.91146  -0.003  0.095359  -0.010842  3.924351  -0.007  0.043134  0.080172  -0.004066  3.903699  -0.001
C  C55  1  0.89379110  0.53019868  0.81247376  1  0.120681  0.013894  3.657026  0.008  0.447768  0.009675  0.088345  0.007302  3.910414  0.003  0.097153  0.010788  3.923286  0.007  0.0436  0.081996  0.004171  3.90239  0.001
C  C56  1  0.53051744  0.89511512  0.18746675  1  0.119003  -0.013707  3.658267  -0.008  0.494068  -0.009633  0.086693  -0.007218  3.911523  -0.003  0.095428  -0.010844  3.92442  -0.007  0.043167  0.080251  -0.004067  3.903756  -0.001
C  C57  1  0.46981198  0.10621150  0.68752469  1  0.12074  0.013897  3.656903  0.008  0.448106  0.009676  0.088392  0.007303  3.910283  0.003  0.0972  0.010791  3.923163  0.007  0.043689  0.082057  0.004171  3.90223  0.001
C  C58  1  0.13743267  0.35325256  0.35833187  1  -0.118701  -0.0075  3.747264  -0.003  0.020001  -0.004861  -0.126028  -0.004349  3.993922  -0.002  -0.129722  0.001358  4.008754  0.003  -0.089577  -0.123635  -0.006541  3.983945  -0.003
C  C59  1  0.86125667  0.64605126  0.85841455  1  -0.119027  0.007436  3.747057  0.003  -0.085512  0.004859  -0.126438  0.004374  3.99376  0.002  -0.130058  -0.001348  4.008453  -0.003  -0.089819  -0.124066  0.006563  3.983847  0.003
C  C60  1  0.64674845  0.86257251  0.14167026  1  -0.118653  -0.007493  3.747449  -0.003  0.019921  -0.004859  -0.126013  -0.004348  3.994091  -0.002  -0.129707  0.00136  4.008924  0.003  -0.089597  -0.123622  -0.00654  3.984115  -0.003
C  C61  1  0.35394787  0.13873503  0.64158084  1  -0.119086  0.007434  3.746828  0.003  -0.083786  0.004859  -0.126447  0.004373  3.993544  0.002  -0.130081  -0.001348  4.008225  -0.003  -0.089858  -0.124076  0.006562  3.983631  0.003
C  C62  1  0.27691158  0.43185745  0.40848387  1  -0.026197  -0.031339  3.769809  -0.024  -0.080961  -0.018694  -0.043146  -0.015306  4.013888  -0.011  -0.038731  -0.017124  4.029911  -0.012  -0.083592  -0.045765  -0.012183  4.002938  -0.008
C  C63  1  0.72203550  0.56702500  0.90879725  1  -0.025381  0.031569  3.767498  0.024  -0.018863  0.018832  -0.042026  0.015401  4.011278  0.011  -0.037673  0.016977  4.027196  0.012  -0.082733  -0.044585  0.012336  4.000423  0.008
C  C64  1  0.56814422  0.72309757  0.09151876  1  -0.026321  -0.031347  3.769826  -0.024  -0.079907  -0.018691  -0.043285  -0.015306  4.013931  -0.011  -0.03887  -0.017124  4.029957  -0.012  -0.083637  -0.045908  -0.012182  4.002995  -0.008
C  C65  1  0.43298216  0.27794074  0.59119350  1  -0.025323  0.031564  3.76734  0.024  -0.01971  0.018829  -0.04206  0.015401  4.011164  0.011  -0.03768  0.01698  4.02712  0.012  -0.082727  -0.044622  0.012334  4.000299  0.008
C  C66  1  0.37651565  0.62373839  0.41156564  1  -0.133377  0.007511  3.71677  0.008  -0.024422  0.000986  -0.148251  0.000616  3.955669  0.002  -0.153684  0.004305  3.972424  0.005  -0.081977  -0.144998  -0.0012  3.944439  0.0
C  C67  1  0.62303470  0.37502996  0.91197179  1  -0.132521  -0.007635  3.717571  -0.008  -0.007936  -0.000988  -0.147588  -0.000626  3.956995  -0.002  -0.15293  -0.004263  3.97377  -0.004  -0.082488  -0.144393  0.001174  3.94572  0.0
C  C68  1  0.37626408  0.62349021  0.08844013  1  -0.133411  0.007517  3.716915  0.008  -0.024834  0.000986  -0.148282  0.000616  3.955753  0.002  -0.153714  0.004305  3.972506  0.005  -0.081932  -0.145032  -0.0012  3.944526  0.0
C  C69  1  0.62498154  0.37695077  0.58801995  1  -0.132648  -0.007631  3.717301  -0.008  -0.007745  -0.000987  -0.147675  -0.000625  3.95678  -0.002  -0.153015  -0.004264  3.97355  -0.004  -0.082527  -0.144484  0.001174  3.945502  0.0
C  C70  1  0.26613331  0.66429034  0.13577014  1  0.157424  -0.029699  3.765461  -0.019  0.544432  -0.017413  0.155096  -0.015124  4.00312  -0.009  0.164193  -0.016014  4.016451  -0.01  0.10994  0.149172  -0.012715  3.993431  -0.007
C  C71  1  0.73486847  0.33618084  0.63542246  1  0.157136  0.02986  3.765466  0.019  0.451401  0.017673  0.153733  0.015203  4.00459  0.009  0.162887  0.015855  4.017926  0.01  0.109822  0.14778  0.012845  3.994897  0.007
C  C72  1  0.33570757  0.73386557  0.36423517  1  0.157437  -0.029696  3.765172  -0.019  0.543836  -0.017416  0.155124  -0.015126  4.002892  -0.009  0.164218  -0.016015  4.016228  -0.01  0.109959  0.149195  -0.012716  3.993204  -0.007
C  C73  1  0.66381241  0.26513657  0.86457338  1  0.156957  0.029874  3.765721  0.019  0.451427  0.01768  0.153674  0.015208  4.004731  0.009  0.162814  0.015857  4.018067  0.01  0.109638  0.147746  0.01285  3.99505  0.007
S  S74  1  0.06672360  0.14622615  0.81415455  1  -0.28781  0.062365  2.250866  0.059  -0.406262  0.0081  -0.301322  0.00532  2.677088  0.011  -0.331643  0.00786  2.681738  0.011  -0.170368  -0.280638  -0.003993  2.673153  0.005
S  S75  1  0.93307396  0.85380742  0.31427169  1  -0.288583  -0.061751  2.253136  -0.058  -0.406806  -0.007956  -0.302422  -0.005175  2.68029  -0.011  -0.332519  -0.007944  2.684651  -0.011  -0.170928  -0.281703  0.004213  2.676416  -0.005
S  S76  1  0.85377181  0.93327395  0.68584875  1  -0.287806  0.062364  2.250945  0.059  -0.406376  0.0081  -0.301289  0.005319  2.677127  0.011  -0.331604  0.007857  2.681774  0.011  -0.170359  -0.280605  -0.003995  2.67319  0.005
S  S77  1  0.14620107  0.06692309  0.18572773  1  -0.28856  -0.061758  2.252961  -0.058  -0.40669  -0.007967  -0.30242  -0.005181  2.680134  -0.011  -0.332512  -0.007946  2.684487  -0.011  -0.17092  -0.281669  0.004205  2.676201  -0.005
S  S78  1  0.06857237  0.23771080  0.91412101  1  -0.035554  0.023505  2.563793  0.017  -0.093689  0.008453  -0.033908  0.008184  2.992246  0.006  -0.039488  0.00787  3.000198  0.006  -0.023834  -0.030677  0.006985  2.986939  0.006
S  S79  1  0.93065147  0.76230703  0.41433903  1  -0.035604  -0.023306  2.562146  -0.017  -0.093432  -0.008373  -0.033819  -0.008128  2.990649  -0.006  -0.039223  -0.007891  2.998353  -0.006  -0.024051  -0.030643  -0.006911  2.985433  -0.006
S  S80  1  0.76228514  0.93140885  0.58588129  1  -0.035595  0.023506  2.563819  0.017  -0.093196  0.008453  -0.033976  0.008184  2.992304  0.006  -0.039559  0.007871  3.000254  0.006  -0.023882  -0.030743  0.006985  2.987001  0.006
S  S81  1  0.23769169  0.06933747  0.08565828  1  -0.035618  -0.023309  2.562067  -0.017  -0.093485  -0.008377  -0.033828  -0.008131  2.990577  -0.006  -0.039231  -0.007893  2.99828  -0.006  -0.024063  -0.030657  -0.006913  2.985361  -0.006
S  S82  1  0.88947285  0.03257097  0.97921026  1  -0.049553  -0.000503  2.460819  -0.003  -0.083922  -0.001153  -0.042849  -0.000667  2.870528  -0.002  -0.044923  -0.000668  2.871701  -0.002  -0.006145  -0.041263  -0.001526  2.869699  -0.003
S  S83  1  0.11018050  0.96747187  0.47902527  1  -0.049021  0.000618  2.458981  0.003  -0.089879  0.001216  -0.042601  0.000727  2.868914  0.002  -0.044714  0.00071  2.870143  0.002  -0.006034  -0.041012  0.001585  2.86807  0.003
S  S84  1  0.96742185  0.11051187  0.52079164  1  -0.049569  -0.000503  2.460831  -0.003  -0.084223  -0.001153  -0.04287  -0.000667  2.87054  -0.002  -0.044941  -0.000669  2.871701  -0.002  -0.006173  -0.041288  -0.001526  2.869722  -0.003
S  S85  1  0.03251795  0.88981482  0.02097296  1  -0.049092  0.000617  2.45898  0.003  -0.089782  0.001214  -0.04268  0.000726  2.86894  0.002  -0.044792  0.000709  2.870173  0.002  -0.006084  -0.041096  0.001584  2.868099  0.003
N  N86  1  0.98691020  0.63580041  0.18815421  1  -0.276394  -0.044036  3.327811  -0.049  -1.261166  -0.023647  -0.207973  -0.020871  3.590181  -0.026  -0.221339  -0.013971  3.605516  -0.018  -0.34373  -0.198397  -0.021797  3.578169  -0.028
N  N87  1  0.01385431  0.36504577  0.68806859  1  -0.275111  0.044353  3.32171  0.05  -1.250853  0.023842  -0.207572  0.021008  3.584611  0.026  -0.220754  0.013816  3.599895  0.018  -0.342587  -0.198253  0.022008  3.572823  0.028
N  N88  1  0.36420241  0.01308804  0.31184874  1  -0.276186  -0.044046  3.327893  -0.049  -1.261222  -0.023648  -0.207858  -0.020874  3.590312  -0.026  -0.221226  -0.013973  3.605651  -0.018  -0.343689  -0.198283  -0.0218  3.57831  -0.028
N  N89  1  0.63495395  0.98615051  0.81193117  1  -0.275121  0.044352  3.321996  0.05  -1.251154  0.02383  -0.207507  0.021003  3.584903  0.026  -0.220557  0.013814  3.600031  0.018  -0.342525  -0.198166  0.022003  3.573142  0.028
N  N90  1  0.34289344  0.79899314  0.18524976  1  -0.266442  -0.038573  3.354334  -0.045  -1.270475  -0.022587  -0.202885  -0.020241  3.620825  -0.026  -0.218348  -0.014177  3.641534  -0.018  -0.34279  -0.192206  -0.019407  3.605982  -0.026
N  N91  1  0.65751757  0.20191233  0.68519167  1  -0.266829  0.03863  3.353841  0.045  -1.223999  0.022783  -0.203444  0.020314  3.621402  0.026  -0.218832  0.014069  3.64204  0.018  -0.343158  -0.19285  0.01952  3.606621  0.026
N  N92  1  0.20100841  0.65710785  0.31475557  1  -0.266376  -0.038581  3.354031  -0.045  -1.270614  -0.022586  -0.202944  -0.020244  3.620673  -0.026  -0.218409  -0.014181  3.641377  -0.018  -0.342796  -0.192256  -0.01941  3.605831  -0.026
N  N93  1  0.79809546  0.34249246  0.81480518  1  -0.266716  0.038641  3.353666  0.045  -1.223902  0.022788  -0.203338  0.020318  3.621151  0.026  -0.218721  0.014072  3.641775  0.018  -0.342907  -0.192741  0.019527  3.606361  0.026
