# generated using pymatgen
data_Ni2H28C36N4O11
_symmetry_space_group_name_H-M   'P 1'
_cell_length_a   13.03378888
_cell_length_b   12.50157453
_cell_length_c   16.17513968
_cell_angle_alpha   101.80875412
_cell_angle_beta   89.99999536
_cell_angle_gamma   121.41469385
_symmetry_Int_Tables_number   1
_chemical_formula_structural   Ni2H28C36N4O11
_chemical_formula_sum   'Ni4 H56 C72 N8 O22'
_cell_volume   2183.66017177
_cell_formula_units_Z   2
loop_
 _symmetry_equiv_pos_site_id
 _symmetry_equiv_pos_as_xyz
  1  'x, y, z'
loop_
 _atom_site_type_symbol
 _atom_site_label
 _atom_site_symmetry_multiplicity
 _atom_site_fract_x
 _atom_site_fract_y
 _atom_site_fract_z
 _atom_site_occupancy
 _atom_site_pbe_bader_charge
 _atom_site_pbe_bader_spin_density
 _atom_site_pbe_cm5_charge
 _atom_site_pbe_ddec_charge
 _atom_site_pbe_ddec_spin_density
 _atom_site_pbe_ddec_sum_bond_order
 _atom_site_pbe_magmom
Ni  Ni0  1  0.69631244  0.16731944  0.76502193  1  1.211874  1.582838  0.638507  0.895603  1.784134  2.394267  1.569
Ni  Ni1  1  0.52892780  0.83257038  0.73495400  1  1.206042  1.583021  0.638107  0.895829  1.782929  2.393821  1.569
Ni  Ni2  1  0.30368208  0.83267404  0.23496988  1  1.21226  1.582828  0.638553  0.895804  1.784158  2.394244  1.569
Ni  Ni3  1  0.47106312  0.16742513  0.26504493  1  1.20613  1.583038  0.638151  0.895975  1.78294  2.393706  1.569
H  H4  1  0.49727199  0.03048933  0.80414486  1  0.650245  -8.7e-05  0.288353  0.375727  0.000345  0.979621  0.0
H  H5  1  0.46671576  0.96942047  0.69582590  1  0.645803  -7.9e-05  0.288018  0.375262  0.000347  0.980264  0.0
H  H6  1  0.50272201  0.96950618  0.19585406  1  0.650148  -8.7e-05  0.288315  0.375678  0.000345  0.979689  0.0
H  H7  1  0.53326912  0.03057216  0.30417382  1  0.645453  -7.9e-05  0.287984  0.375219  0.000347  0.980325  0.0
H  H8  1  0.93218517  0.38139471  0.84379689  1  0.612887  0.000613  0.29106  0.351742  0.000542  0.9899  0.001
H  H9  1  0.55077751  0.61853193  0.65617368  1  0.617036  0.000612  0.291059  0.351484  0.000544  0.990054  0.001
H  H10  1  0.06781046  0.61861020  0.15618677  1  0.612641  0.000614  0.291022  0.351683  0.000543  0.989955  0.001
H  H11  1  0.44922700  0.38149075  0.34383927  1  0.616843  0.000613  0.291088  0.351562  0.000545  0.990008  0.001
H  H12  1  0.91460982  0.27939406  0.76022626  1  0.624236  -0.000652  0.311917  0.391022  -0.00069  0.903025  0.0
H  H13  1  0.63518305  0.72052345  0.73974668  1  0.650276  -0.000651  0.312518  0.391817  -0.000689  0.903194  0.0
H  H14  1  0.08540094  0.72061196  0.23976747  1  0.623448  -0.000653  0.311916  0.391049  -0.00069  0.90313  0.0
H  H15  1  0.36482184  0.27950307  0.26026500  1  0.650473  -0.00065  0.312437  0.391715  -0.000689  0.903242  0.0
H  H16  1  0.77100201  0.83171675  0.90798649  1  0.095329  0.000277  0.098979  0.096698  0.000157  1.061222  0.0
H  H17  1  0.93919718  0.16820568  0.59199533  1  0.062448  0.000284  0.098872  0.096321  0.000157  1.06076  0.0
H  H18  1  0.22901758  0.16830080  0.09200466  1  0.095288  0.000277  0.099002  0.096685  0.000157  1.061198  0.0
H  H19  1  0.06078767  0.83176386  0.40800644  1  0.062218  0.000285  0.098841  0.096336  0.000157  1.061063  0.0
H  H20  1  0.61699171  0.45217916  0.86656224  1  0.098158  0.000111  0.100174  0.101798  4.2e-05  1.025069  0.0
H  H21  1  0.16476687  0.54781097  0.63344412  1  0.061117  0.000116  0.100072  0.101821  4.3e-05  1.024744  0.0
H  H22  1  0.38304434  0.54783293  0.13345095  1  0.09865  0.000111  0.100195  0.101936  4.2e-05  1.024886  0.0
H  H23  1  0.83520087  0.45219034  0.36655630  1  0.060929  0.000116  0.10005  0.101797  4.3e-05  1.024675  0.0
H  H24  1  0.97490521  0.24034238  0.92688434  1  0.06596  0.000115  0.095285  0.089769  3e-05  1.050082  0.0
H  H25  1  0.73459909  0.75957899  0.57308866  1  0.070717  0.000115  0.095399  0.089586  3e-05  1.05014  0.0
H  H26  1  0.02509540  0.75967711  0.07310772  1  0.066189  0.000115  0.095311  0.089775  3e-05  1.05027  0.0
H  H27  1  0.26537509  0.24037689  0.42690114  1  0.070872  0.000115  0.095347  0.089386  3e-05  1.050417  0.0
H  H28  1  0.41922716  0.18448595  0.02062506  1  0.103331  1.5e-05  0.101747  0.104436  -4.4e-05  1.02275  0.0
H  H29  1  0.23471403  0.81545608  0.47934598  1  0.062803  1.6e-05  0.101909  0.104589  -4.4e-05  1.022617  0.0
H  H30  1  0.58079728  0.81552136  0.97939050  1  0.102649  1.5e-05  0.101886  0.104611  -4.4e-05  1.022879  0.0
H  H31  1  0.76526381  0.18453167  0.52064929  1  0.062298  1.6e-05  0.101902  0.104599  -4.4e-05  1.022621  0.0
H  H32  1  0.55077496  0.06415514  0.59155043  1  0.14143  0.002108  0.12362  0.097385  0.000712  1.010768  0.001
H  H33  1  0.48658567  0.93576489  0.90844482  1  0.133324  0.002123  0.123445  0.097564  0.000713  1.010657  0.001
H  H34  1  0.44923539  0.93584239  0.40845499  1  0.14155  0.002106  0.123669  0.097415  0.000711  1.010809  0.001
H  H35  1  0.51343937  0.06423747  0.09156133  1  0.133789  0.002124  0.123448  0.097572  0.000714  1.010598  0.001
H  H36  1  0.38066417  0.34395088  0.11126652  1  0.068574  0.000246  0.098376  0.098375  0.000112  1.02274  0.0
H  H37  1  0.03665773  0.65603015  0.38874369  1  0.047925  0.000248  0.098509  0.099204  0.000112  1.022984  0.0
H  H38  1  0.61936371  0.65606330  0.88875812  1  0.066375  0.000246  0.098437  0.098385  0.000112  1.022819  0.0
H  H39  1  0.96332861  0.34395004  0.61126218  1  0.048  0.000248  0.098445  0.0991  0.000112  1.022795  0.0
H  H40  1  0.47039576  0.31194570  0.45525716  1  0.151236  1.5e-05  0.122437  0.094046  -7.2e-05  1.039913  0.0
H  H41  1  0.15845421  0.68806941  0.04477506  1  0.147813  1.6e-05  0.122427  0.09355  -7.2e-05  1.040039  0.0
H  H42  1  0.52959792  0.68803230  0.54473044  1  0.151218  1.5e-05  0.122434  0.094094  -7.2e-05  1.039865  0.0
H  H43  1  0.84155119  0.31195505  0.95522765  1  0.148304  1.6e-05  0.122431  0.093603  -7.2e-05  1.040094  0.0
H  H44  1  0.67918741  0.52166791  0.66811143  1  0.042997  0.001386  0.109965  0.11441  0.000698  1.003324  0.0
H  H45  1  0.15746437  0.47826489  0.83186523  1  0.088286  0.001366  0.110164  0.114743  0.000698  1.003372  0.0
H  H46  1  0.32078870  0.47832558  0.33188162  1  0.04267  0.001386  0.110004  0.114526  0.000698  1.003426  0.0
H  H47  1  0.84253778  0.52175769  0.16814029  1  0.08828  0.001367  0.110193  0.114781  0.000698  1.003289  0.0
H  H48  1  0.47179164  0.14490830  0.49516948  1  0.126359  0.000951  0.114667  0.127754  0.000463  1.008727  0.001
H  H49  1  0.32690303  0.85504850  0.00485273  1  0.129158  0.000952  0.114429  0.128231  0.000462  1.007682  0.001
H  H50  1  0.52819850  0.85507183  0.50483205  1  0.1264  0.000951  0.114649  0.127663  0.000463  1.008818  0.001
H  H51  1  0.67311522  0.14497404  0.99515030  1  0.129508  0.000951  0.114436  0.128101  0.000462  1.007652  0.001
H  H52  1  0.14515892  0.26590759  0.01584569  1  0.066346  0.000194  0.101482  0.105174  7.5e-05  1.002369  0.0
H  H53  1  0.87935479  0.73409185  0.48415966  1  0.056682  0.000194  0.101473  0.105646  7.5e-05  1.001393  0.0
H  H54  1  0.85485298  0.73411759  0.98414043  1  0.066474  0.000193  0.101376  0.105028  7.5e-05  1.002504  0.0
H  H55  1  0.12062771  0.26586226  0.51584038  1  0.056746  0.000194  0.101578  0.105772  7.5e-05  1.001654  0.0
H  H56  1  0.74962114  0.42490553  0.75759192  1  0.109865  0.00208  0.124684  0.103669  0.000731  0.980696  0.002
H  H57  1  0.32469759  0.57502585  0.74241558  1  0.135828  0.002069  0.124523  0.103385  0.00073  0.980593  0.002
H  H58  1  0.25037863  0.57510919  0.24240374  1  0.109768  0.002079  0.124699  0.103714  0.00073  0.980633  0.002
H  H59  1  0.67529604  0.42498120  0.25758262  1  0.135856  0.00207  0.12449  0.103376  0.00073  0.980657  0.002
C  C60  1  0.53392320  0.51591979  0.96476869  1  -0.087814  0.000347  -0.007984  0.075893  0.000143  4.021015  0.0
C  C61  1  0.01799491  0.48409303  0.53523232  1  0.091407  0.000336  -0.008425  0.075465  0.000141  4.022817  0.0
C  C62  1  0.46612880  0.48410886  0.03525753  1  -0.039106  0.000347  -0.008031  0.076239  0.000143  4.021208  0.0
C  C63  1  0.98198627  0.51591214  0.46476869  1  0.031522  0.000334  -0.008459  0.075423  0.000141  4.022668  0.0
C  C64  1  0.56679472  0.33948910  0.57462020  1  -0.027954  -0.006781  0.010675  0.10645  -0.007636  3.998236  -0.004
C  C65  1  0.22724122  0.66046583  0.92538082  1  -0.058591  -0.006794  0.010627  0.107133  -0.007628  3.998643  -0.004
C  C66  1  0.43319087  0.66049573  0.42537339  1  -0.027866  -0.006789  0.010576  0.106396  -0.007644  3.997953  -0.004
C  C67  1  0.77276764  0.33955481  0.07462379  1  -0.057291  -0.006791  0.010664  0.107163  -0.007625  3.99903  -0.004
C  C68  1  0.86178595  0.03303519  0.91262038  1  -0.053888  0.01136  -0.021709  -0.034895  0.006762  3.986378  0.009
C  C69  1  0.82869270  0.96687138  0.58734789  1  -0.035323  0.011336  -0.022589  -0.036946  0.00676  3.988936  0.009
C  C70  1  0.13821663  0.96697749  0.08736755  1  -0.053827  0.011357  -0.021767  -0.034704  0.00676  3.986416  0.009
C  C71  1  0.17128039  0.03308077  0.41265062  1  -0.033642  0.011332  -0.022467  -0.037031  0.006759  3.988566  0.009
C  C72  1  0.85269616  0.92606138  0.93233575  1  -0.042907  0.001375  -0.081572  -0.136089  0.000498  3.941605  0.001
C  C73  1  0.92660351  0.07386276  0.56766987  1  0.01731  0.001363  -0.080909  -0.135312  0.000495  3.940743  0.001
C  C74  1  0.14731149  0.07395530  0.06766145  1  -0.042937  0.001376  -0.081636  -0.136293  0.000499  3.94186  0.001
C  C75  1  0.07338018  0.92609219  0.43232226  1  0.016577  0.001365  -0.080773  -0.134961  0.000497  3.94095  0.001
C  C76  1  0.75879851  0.01694712  0.85902245  1  1.565009  0.00029  0.21544  0.591533  -0.000494  4.161663  -0.001
C  C77  1  0.74178679  0.98296256  0.64095173  1  1.560039  0.000234  0.215212  0.591915  -0.000497  4.161025  -0.001
C  C78  1  0.24120555  0.98306852  0.14097026  1  1.564338  0.000296  0.215481  0.591273  -0.000492  4.161459  -0.001
C  C79  1  0.25819044  0.01700402  0.35904526  1  1.559361  0.000235  0.215224  0.592075  -0.000497  4.160433  -0.001
C  C80  1  0.94636673  0.93729497  0.98436221  1  -0.015727  0.000542  -0.002559  0.082722  0.000246  3.996855  0.0
C  C81  1  0.00906217  0.06268325  0.51565481  1  -0.02988  0.000545  -0.002604  0.08398  0.000246  3.992721  0.0
C  C82  1  0.05363938  0.06272171  0.01563560  1  0.024123  0.000539  -0.002476  0.08285  0.000246  3.996726  0.0
C  C83  1  0.99092799  0.93727852  0.48434207  1  0.017977  0.00054  -0.002727  0.083733  0.000245  3.992805  0.0
C  C84  1  0.56305239  0.42837601  0.91907518  1  -0.03354  0.000751  -0.084043  -0.144631  0.000352  3.950904  0.0
C  C85  1  0.13462046  0.57159791  0.58093238  1  -0.141264  0.000761  -0.08381  -0.144505  0.000346  3.951355  0.0
C  C86  1  0.43698592  0.57163907  0.08094527  1  -0.033249  0.000751  -0.084042  -0.144946  0.000352  3.950943  0.0
C  C87  1  0.86533921  0.42838420  0.41907255  1  -0.141438  0.000763  -0.083723  -0.144513  0.000347  3.950767  0.0
C  C88  1  0.96830401  0.15703536  0.94360892  1  -0.067979  0.001061  -0.093301  -0.102245  0.000538  4.003176  0.001
C  C89  1  0.81123705  0.84289280  0.55634353  1  -0.05877  0.00107  -0.093221  -0.101057  0.000538  4.002387  0.001
C  C90  1  0.03170736  0.84297648  0.05638755  1  -0.039761  0.001056  -0.093252  -0.102114  0.000538  4.003152  0.001
C  C91  1  0.18873925  0.15707192  0.44365813  1  -0.059468  0.001072  -0.093216  -0.101003  0.000539  4.002172  0.001
C  C92  1  0.45213083  0.27819287  0.00714733  1  -0.031466  0.001203  -0.088597  -0.098228  0.000559  3.996346  0.001
C  C93  1  0.17387473  0.72178795  0.49283825  1  -0.00969  0.001195  -0.088726  -0.098307  0.000559  3.995577  0.001
C  C94  1  0.54791609  0.72183175  0.99286654  1  -0.027582  0.001201  -0.088824  -0.098592  0.000559  3.996387  0.001
C  C95  1  0.82609959  0.27820655  0.50715805  1  -0.018697  0.001204  -0.088765  -0.098433  0.000559  3.995695  0.001
C  C96  1  0.57712880  0.16474944  0.60645952  1  0.452705  -0.005206  0.055883  0.106465  -0.006227  3.921895  -0.004
C  C97  1  0.41235498  0.83516647  0.89353135  1  0.45172  -0.005195  0.056155  0.106517  -0.006231  3.921774  -0.004
C  C98  1  0.42287168  0.83525290  0.39354601  1  0.452372  -0.005208  0.05589  0.106509  -0.006228  3.921826  -0.004
C  C99  1  0.58766810  0.16485037  0.10647700  1  0.45161  -0.005196  0.055998  0.106345  -0.006231  3.921895  -0.004
C  C100  1  0.52221907  0.31135230  0.93909560  1  -0.035589  0.006544  -0.020147  -0.030528  0.003894  4.008966  0.005
C  C101  1  0.21076720  0.68858443  0.56089272  1  0.040288  0.006523  -0.020007  -0.029811  0.003899  4.008665  0.005
C  C102  1  0.47781062  0.68865016  0.06091737  1  -0.033189  0.006546  -0.020093  -0.030486  0.003894  4.008841  0.005
C  C103  1  0.78919487  0.31139479  0.43911176  1  0.048971  0.006508  -0.019931  -0.029483  0.003895  4.009133  0.005
C  C104  1  0.55013999  0.21892116  0.88702978  1  1.533712  -0.001117  0.210368  0.574836  -0.001802  4.192367  -0.002
C  C105  1  0.33110515  0.78100251  0.61295974  1  1.542436  -0.001054  0.210368  0.575359  -0.001801  4.191963  -0.002
C  C106  1  0.44986920  0.78108020  0.11297437  1  1.533163  -0.001114  0.210516  0.575213  -0.001801  4.192122  -0.002
C  C107  1  0.66888025  0.21899883  0.38704254  1  1.542643  -0.001055  0.210368  0.575302  -0.001801  4.192066  -0.002
C  C108  1  0.42841854  0.36488540  0.05570864  1  -0.039098  0.000727  -0.090286  -0.130151  0.000388  3.992542  0.0
C  C109  1  0.06345170  0.63512284  0.44430451  1  -0.051358  0.000722  -0.090477  -0.131386  0.000388  3.993759  0.0
C  C110  1  0.57163163  0.63515187  0.94431395  1  -0.041669  0.000728  -0.090445  -0.12994  0.000388  3.992244  0.0
C  C111  1  0.93652511  0.36487359  0.55569146  1  -0.050519  0.000722  -0.09025  -0.131122  0.000388  3.993139  0.0
C  C112  1  0.51797789  0.38151036  0.51641037  1  0.594654  -0.002036  0.08603  0.071007  -0.002462  3.875569  -0.001
C  C113  1  0.13641195  0.61850935  0.98359052  1  0.620338  -0.002023  0.085585  0.070419  -0.002465  3.874805  -0.001
C  C114  1  0.48201828  0.61846955  0.48357567  1  0.594575  -0.002034  0.085954  0.070745  -0.002459  3.875613  -0.001
C  C115  1  0.86359132  0.38150931  0.01641069  1  0.619216  -0.002025  0.085707  0.070493  -0.002467  3.874727  -0.001
C  C116  1  0.64744553  0.41946896  0.64937906  1  0.061332  0.006046  -0.072587  -0.152682  0.003386  3.918089  0.005
C  C117  1  0.22792199  0.58046581  0.85063069  1  -0.000871  0.006072  -0.072614  -0.15294  0.003382  3.917579  0.005
C  C118  1  0.35254062  0.58052160  0.35061107  1  0.061532  0.006046  -0.072633  -0.1528  0.003386  3.918053  0.005
C  C119  1  0.77207924  0.41954418  0.14937044  1  -0.002042  0.006074  -0.072588  -0.153003  0.003382  3.917775  0.005
C  C120  1  0.53247212  0.20957785  0.55334470  1  -0.010297  0.004872  -0.067735  -0.143359  0.002629  3.882786  0.004
C  C121  1  0.32289340  0.79033362  0.94666891  1  0.03529  0.004864  -0.067442  -0.144224  0.002631  3.882365  0.004
C  C122  1  0.46752501  0.79041473  0.44665192  1  -0.010537  0.004875  -0.067707  -0.1432  0.002631  3.882831  0.004
C  C123  1  0.67712831  0.20968509  0.05333602  1  0.034373  0.004865  -0.067467  -0.143981  0.002631  3.882135  0.004
C  C124  1  0.06229612  0.17115578  0.99328009  1  -0.011101  0.000784  -0.088282  -0.12443  0.000411  3.977349  0.001
C  C125  1  0.89115642  0.82882559  0.50668425  1  -0.050098  0.000792  -0.088267  -0.12602  0.000411  3.975378  0.001
C  C126  1  0.93772148  0.82886085  0.00671463  1  -0.03987  0.000788  -0.088166  -0.124389  0.000411  3.977677  0.001
C  C127  1  0.10882841  0.17114392  0.49331566  1  -0.050086  0.00079  -0.088409  -0.12606  0.00041  3.975891  0.001
C  C128  1  0.68735785  0.36680550  0.69914210  1  0.484674  -0.00434  0.051573  0.098895  -0.005051  3.934909  -0.003
C  C129  1  0.32052950  0.63312857  0.80088432  1  0.441162  -0.004305  0.051734  0.098669  -0.005042  3.934369  -0.003
C  C130  1  0.31263885  0.63320156  0.30085673  1  0.484978  -0.004345  0.051482  0.098747  -0.005057  3.934913  -0.003
C  C131  1  0.67946666  0.36688047  0.19911790  1  0.441593  -0.004304  0.051656  0.098589  -0.005042  3.934521  -0.003
N  N132  1  0.65203956  0.24097809  0.67895108  1  -1.196141  0.072644  -0.32133  -0.229957  0.041557  3.560566  0.065
N  N133  1  0.41104012  0.75895062  0.82104365  1  -1.189391  0.0726  -0.321665  -0.229855  0.041575  3.561165  0.065
N  N134  1  0.34796664  0.75903568  0.32104568  1  -1.195927  0.072645  -0.321298  -0.22998  0.041555  3.560464  0.065
N  N135  1  0.58897544  0.24106039  0.17896196  1  -1.189569  0.0726  -0.321489  -0.22977  0.041577  3.561289  0.065
N  N136  1  0.52684330  0.49227881  0.53390687  1  -0.783648  -0.002443  -0.206406  -0.174046  -0.002826  3.30138  -0.002
N  N137  1  0.03453588  0.50774223  0.96608674  1  -0.786294  -0.002442  -0.205969  -0.173159  -0.002826  3.302045  -0.002
N  N138  1  0.47315718  0.50770973  0.46607677  1  -0.802017  -0.002451  -0.206191  -0.173637  -0.00283  3.301328  -0.002
N  N139  1  0.96548113  0.49228703  0.03391484  1  -0.806603  -0.002446  -0.206152  -0.173342  -0.002825  3.301908  -0.002
O  O140  1  0.52870916  0.99994153  0.74998590  1  -1.227601  0.147867  -0.553599  -0.793189  0.082598  2.447444  0.134
O  O141  1  0.47128052  0.00005301  0.25001288  1  -1.227274  0.147885  -0.553567  -0.793147  0.082606  2.447443  0.134
O  O142  1  0.88899469  0.33845792  0.78533772  1  -1.204571  0.047095  -0.5589  -0.722081  0.026418  2.102408  0.04
O  O143  1  0.55050789  0.66147796  0.71462928  1  -1.234247  0.047061  -0.559414  -0.722237  0.026435  2.103368  0.04
O  O144  1  0.11100629  0.66153929  0.21464600  1  -1.203637  0.047103  -0.558884  -0.722079  0.026421  2.102388  0.04
O  O145  1  0.44949739  0.33852937  0.28538752  1  -1.234312  0.047048  -0.55942  -0.722367  0.026428  2.103222  0.04
O  O146  1  0.64945220  0.26807252  0.85422608  1  -1.14483  0.07648  -0.316893  -0.562122  0.04216  2.371763  0.071
O  O147  1  0.38123001  0.73183753  0.64579484  1  -1.140679  0.076431  -0.316674  -0.562297  0.042157  2.371346  0.071
O  O148  1  0.35055711  0.73193061  0.14576720  1  -1.144881  0.076456  -0.317005  -0.562421  0.042149  2.371979  0.071
O  O149  1  0.61874118  0.26815227  0.35420878  1  -1.141021  0.076423  -0.316745  -0.56238  0.042152  2.371361  0.071
O  O150  1  0.67870076  0.90214333  0.81835167  1  -1.170048  0.065778  -0.316088  -0.57143  0.036458  2.386613  0.061
O  O151  1  0.77649375  0.09777341  0.68159697  1  -1.157377  0.065846  -0.31602  -0.571176  0.036396  2.387949  0.061
O  O152  1  0.32131903  0.09787614  0.18163915  1  -1.169724  0.065779  -0.316095  -0.571377  0.036456  2.386613  0.061
O  O153  1  0.22347891  0.90219478  0.31837801  1  -1.156171  0.065868  -0.316035  -0.571198  0.036409  2.38739  0.061
O  O154  1  0.75831855  0.11868832  0.85920474  1  -1.161336  0.056397  -0.315649  -0.565495  0.030958  2.396649  0.051
O  O155  1  0.63955950  0.88122218  0.64076888  1  -1.169986  0.056406  -0.315466  -0.566021  0.030918  2.395613  0.051
O  O156  1  0.24169038  0.88131865  0.14078789  1  -1.16081  0.056396  -0.315687  -0.56544  0.030959  2.396414  0.051
O  O157  1  0.36042262  0.11874343  0.35922796  1  -1.170744  0.056401  -0.315508  -0.566131  0.030915  2.395682  0.051
O  O158  1  0.47340199  0.09881685  0.87808830  1  -1.161264  0.003416  -0.31999  -0.536654  0.00124  2.188622  0.003
O  O159  1  0.37447662  0.90111105  0.62191050  1  -1.174662  0.003396  -0.319869  -0.536693  0.001237  2.188731  0.003
O  O160  1  0.52660131  0.90118651  0.12192048  1  -1.161293  0.003419  -0.320004  -0.536744  0.001242  2.188761  0.003
O  O161  1  0.62551019  0.09888543  0.37808919  1  -1.174475  0.003397  -0.31988  -0.536709  0.001238  2.188578  0.003
