# generated using pymatgen
data_ZnH22C24(SN)2
_symmetry_space_group_name_H-M   'P 1'
_cell_length_a   10.42719006
_cell_length_b   11.04174033
_cell_length_c   26.17294345
_cell_angle_alpha   90.40967572
_cell_angle_beta   90.88830011
_cell_angle_gamma   61.84867865
_symmetry_Int_Tables_number   1
_chemical_formula_structural   ZnH22C24(SN)2
_chemical_formula_sum   'Zn4 H88 C96 S8 N8'
_cell_volume   2656.61301136
_cell_formula_units_Z   4
loop_
 _symmetry_equiv_pos_site_id
 _symmetry_equiv_pos_as_xyz
  1  'x, y, z'
loop_
 _atom_site_type_symbol
 _atom_site_label
 _atom_site_symmetry_multiplicity
 _atom_site_fract_x
 _atom_site_fract_y
 _atom_site_fract_z
 _atom_site_occupancy
 _atom_site_pbe_bader_charge
 _atom_site_pbe_bader_spin_density
 _atom_site_pbe_cm5_charge
 _atom_site_pbe_ddec_charge
 _atom_site_pbe_ddec_spin_density
 _atom_site_pbe_ddec_sum_bond_order
 _atom_site_pbe_magmom
Zn  Zn0  1  0.58261946  0.02807986  0.39060518  1  0.978875  0  0.526615  0.478716  0  2.753355  0
Zn  Zn1  1  0.38896928  0.02805651  0.10942719  1  0.98128  0  0.526492  0.478871  0  2.753189  0
Zn  Zn2  1  0.41737793  0.97192042  0.60939475  1  0.978713  0  0.526596  0.478711  0  2.753332  0
Zn  Zn3  1  0.61103335  0.97194480  0.89057273  1  0.981278  0  0.526529  0.478919  0  2.753249  0
H  H4  1  0.47652871  0.14754964  0.49191767  1  0.130782  0  0.101807  0.07429  0  1.064799  0
H  H5  1  0.37629532  0.14810388  0.00812212  1  0.135096  0  0.101835  0.074177  0  1.06484  0
H  H6  1  0.52346335  0.85246092  0.50807805  1  0.131873  0  0.10179  0.074286  0  1.064778  0
H  H7  1  0.62369908  0.85191797  0.99188047  1  0.135239  0  0.101841  0.074195  0  1.064711  0
H  H8  1  0.43988716  0.34535093  0.54403168  1  0.096223  0  0.110421  0.119023  0  1.032384  0
H  H9  1  0.21471732  0.34564517  0.95596785  1  0.121743  0  0.110556  0.119424  0  1.030853  0
H  H10  1  0.56011905  0.65465244  0.45596442  1  0.096166  0  0.110433  0.119062  0  1.032378  0
H  H11  1  0.78526628  0.65437360  0.04403743  1  0.121626  0  0.110517  0.119382  0  1.03094  0
H  H12  1  0.58870333  0.49136074  0.41581447  1  0.096461  0  0.109141  0.113693  0  1.039567  0
H  H13  1  0.92054375  0.49155252  0.08432197  1  0.107301  0  0.109585  0.114169  0  1.038839  0
H  H14  1  0.41130503  0.50863852  0.58418353  1  0.096648  0  0.109169  0.113711  0  1.03954  0
H  H15  1  0.07944275  0.50843954  0.91568562  1  0.108016  0  0.109587  0.114175  0  1.038956  0
H  H16  1  0.61970470  0.28529036  0.36878941  1  0.061089  0  0.116501  0.08535  0  0.998703  0
H  H17  1  0.09603797  0.28576824  0.13138423  1  0.097809  0  0.116762  0.08609  0  0.997394  0
H  H18  1  0.38029434  0.71471404  0.63120784  1  0.061209  0  0.116473  0.085321  0  0.998733  0
H  H19  1  0.90396527  0.71422074  0.86862029  1  0.098049  0  0.116732  0.086053  0  0.997409  0
H  H20  1  0.89123686  0.96334140  0.39314221  1  0.104034  0  0.111153  0.078021  0  1.03462  0
H  H21  1  0.14447542  0.96358152  0.10681992  1  0.10463  0  0.111461  0.078861  0  1.034474  0
H  H22  1  0.10876260  0.03665682  0.60685963  1  0.103854  0  0.111169  0.078027  0  1.034627  0
H  H23  1  0.85552440  0.03641774  0.89318000  1  0.104624  0  0.111449  0.078841  0  1.034532  0
H  H24  1  0.08122176  0.95731603  0.33513413  1  0.139494  0  0.105933  0.113114  0  1.063552  0
H  H25  1  0.96066183  0.95742886  0.16487610  1  0.118647  0  0.105834  0.112553  0  1.063584  0
H  H26  1  0.91877571  0.04268426  0.66486770  1  0.139376  0  0.105932  0.113094  0  1.063564  0
H  H27  1  0.03933105  0.04257656  0.83512345  1  0.118423  0  0.10582  0.112517  0  1.063705  0
H  H28  1  0.76224377  0.07143007  0.21187956  1  0.107373  0  0.101725  0.119163  0  1.054711  0
H  H29  1  0.16615820  0.07086368  0.28812550  1  0.108651  0  0.101708  0.119059  0  1.055737  0
H  H30  1  0.23775822  0.92856302  0.78812152  1  0.107701  0  0.101701  0.119156  0  1.05465  0
H  H31  1  0.83385622  0.92911606  0.71187557  1  0.108587  0  0.101673  0.119036  0  1.055656  0
H  H32  1  0.58824872  0.07218429  0.27481701  1  0.097  0  0.108247  0.0871  0  1.024479  0
H  H33  1  0.33930891  0.07167177  0.22516284  1  0.109232  0  0.107836  0.086577  0  1.025271  0
H  H34  1  0.41175325  0.92780880  0.72518368  1  0.09679  0  0.108272  0.087118  0  1.02447  0
H  H35  1  0.66070697  0.92830900  0.77483937  1  0.109269  0  0.107834  0.086608  0  1.025258  0
H  H36  1  0.89741918  0.59754421  0.48568472  1  0.043191  0  0.094131  0.09919  0  1.029702  0
H  H37  1  0.50356735  0.59780542  0.01434651  1  0.037617  0  0.093974  0.098933  0  1.030751  0
H  H38  1  0.10259542  0.40245196  0.51431137  1  0.043202  0  0.094149  0.099187  0  1.029875  0
H  H39  1  0.49642553  0.40220206  0.98565457  1  0.03753  0  0.093967  0.098925  0  1.030789  0
H  H40  1  0.97841983  0.36809380  0.44713442  1  0.05806  0  0.096738  0.1002  0  1.015956  0
H  H41  1  0.65231529  0.36814491  0.05273480  1  0.063637  0  0.09678  0.100588  0  1.016099  0
H  H42  1  0.02159412  0.63190341  0.55285861  1  0.057999  0  0.096728  0.100207  0  1.015908  0
H  H43  1  0.34767326  0.63186359  0.94726666  1  0.063519  0  0.096749  0.100477  0  1.016146  0
H  H44  1  0.72771268  0.55794129  0.31135420  1  0.035477  0  0.092275  0.092992  0  1.00712  0
H  H45  1  0.71376501  0.55751063  0.18854735  1  0.041162  0  0.092381  0.093237  0  1.007  0
H  H46  1  0.27227619  0.44205283  0.68864383  1  0.035617  0  0.092309  0.093047  0  1.007097  0
H  H47  1  0.28623823  0.44249890  0.81145104  1  0.041094  0  0.092379  0.093169  0  1.00708  0
H  H48  1  0.64757076  0.78680238  0.34936699  1  0.096686  0  0.083262  0.085231  0  1.071442  0
H  H49  1  0.56481264  0.78650527  0.15069887  1  0.092688  0  0.083067  0.084641  0  1.071848  0
H  H50  1  0.35241534  0.21319174  0.65063334  1  0.096444  0  0.083275  0.085242  0  1.071421  0
H  H51  1  0.43518916  0.21350323  0.84929875  1  0.092304  0  0.0831  0.084755  0  1.071735  0
H  H52  1  0.84400238  0.30723215  0.32034665  1  0.020938  0  0.082203  0.113093  0  1.015372  0
H  H53  1  0.84817905  0.30692836  0.17945068  1  0.022296  0  0.081895  0.113006  0  1.015212  0
H  H54  1  0.15600454  0.69276403  0.67964907  1  0.021034  0  0.082181  0.113109  0  1.015309  0
H  H55  1  0.15180904  0.69307706  0.82054887  1  0.022244  0  0.081905  0.113  0  1.015111  0
H  H56  1  0.91717623  0.23049325  0.38079521  1  0.02981  0  0.083463  0.1154  0  1.028046  0
H  H57  1  0.85170482  0.23038171  0.11895234  1  0.034854  0  0.083403  0.115417  0  1.027776  0
H  H58  1  0.08282689  0.76950292  0.61920127  1  0.029855  0  0.083498  0.115415  0  1.027998  0
H  H59  1  0.14828119  0.76962782  0.88104683  1  0.034712  0  0.083395  0.115379  0  1.027797  0
H  H60  1  0.02524810  0.26551193  0.33842915  1  0.055937  0  0.08622  0.128428  0  1.012213  0
H  H61  1  0.70880670  0.26500216  0.16133535  1  0.050236  0  0.086274  0.128372  0  1.013082  0
H  H62  1  0.97475983  0.73448219  0.66156618  1  0.056091  0  0.086227  0.12843  0  1.012261  0
H  H63  1  0.29117583  0.73501045  0.83866306  1  0.050302  0  0.086253  0.128341  0  1.013009  0
H  H64  1  0.22228470  0.10731726  0.43818969  1  0.074207  0  0.089766  0.097962  0  1.033862  0
H  H65  1  0.67002250  0.10669398  0.06179939  1  0.090535  0  0.089537  0.097759  0  1.033992  0
H  H66  1  0.77772158  0.89267583  0.56182132  1  0.074069  0  0.089769  0.098028  0  1.033604  0
H  H67  1  0.32999527  0.89330322  0.93819326  1  0.090273  0  0.089568  0.097843  0  1.033918  0
H  H68  1  0.12071513  0.97765152  0.48301170  1  0.053107  0  0.092942  0.097414  0  1.018553  0
H  H69  1  0.90102829  0.97712087  0.01691475  1  0.049094  0  0.09273  0.096972  0  1.018248  0
H  H70  1  0.87928208  0.02234978  0.51699549  1  0.05318  0  0.092982  0.09749  0  1.018558  0
H  H71  1  0.09898999  0.02286196  0.98307867  1  0.049488  0  0.092752  0.096977  0  1.018206  0
H  H72  1  0.30539294  0.65483701  0.37104224  1  0.050559  0  0.095597  0.09849  0  1.002524  0
H  H73  1  0.03965105  0.65469490  0.12912157  1  0.031133  0  0.095653  0.098597  0  1.002935  0
H  H74  1  0.69457899  0.34518176  0.62895962  1  0.050434  0  0.095563  0.098447  0  1.002649  0
H  H75  1  0.96035784  0.34530538  0.87087835  1  0.031105  0  0.095673  0.098639  0  1.002896  0
H  H76  1  0.40806617  0.78568834  0.32600490  1  0.049131  0  0.095024  0.103577  0  1.00263  0
H  H77  1  0.80617919  0.78527648  0.17415543  1  0.069187  0  0.095084  0.103509  0  1.002339  0
H  H78  1  0.59190782  0.21432837  0.67399848  1  0.048966  0  0.095027  0.103506  0  1.002882  0
H  H79  1  0.19382347  0.21473202  0.82583990  1  0.069021  0  0.095123  0.103572  0  1.002276  0
H  H80  1  0.15942381  0.72764734  0.49924734  1  0.004449  0  0.084313  0.119717  0  1.018969  0
H  H81  1  0.11289758  0.72734934  0.00088428  1  0.009935  0  0.084295  0.119632  0  1.018056  0
H  H82  1  0.84056844  0.27235192  0.50075488  1  0.00455  0  0.084333  0.119765  0  1.018989  0
H  H83  1  0.88711463  0.27263451  0.99911334  1  0.010029  0  0.084327  0.119629  0  1.018006  0
H  H84  1  0.18852131  0.62071384  0.44491201  1  0.05199  0  0.087598  0.127499  0  0.999651  0
H  H85  1  0.19062897  0.62062575  0.05528319  1  0.010377  0  0.087494  0.127591  0  1.000151  0
H  H86  1  0.81147418  0.37928850  0.55508982  1  0.052019  0  0.087582  0.127477  0  0.999615  0
H  H87  1  0.80938186  0.37935913  0.94471635  1  0.010614  0  0.087456  0.127539  0  0.999963  0
H  H88  1  0.02195961  0.77415725  0.45172899  1  0.106157  0  0.079113  0.117897  0  1.057348  0
H  H89  1  0.20338034  0.77431016  0.04842986  1  0.051717  0  0.079315  0.118186  0  1.057692  0
H  H90  1  0.97802946  0.22583892  0.54827477  1  0.10633  0  0.079124  0.117919  0  1.057275  0
H  H91  1  0.79663467  0.22567574  0.95156776  1  0.051721  0  0.079304  0.118117  0  1.057734  0
C  C92  1  0.50063938  0.22580174  0.47619535  1  0.486434  0  0.050564  0.106783  0  3.899236  0
C  C93  1  0.27401687  0.22628047  0.02387719  1  0.49741  0  0.05115  0.107362  0  3.89891  0
C  C94  1  0.49935916  0.77420368  0.52380190  1  0.484938  0  0.050618  0.106831  0  3.899102  0
C  C95  1  0.72597585  0.77373521  0.97612617  1  0.497887  0  0.051156  0.107407  0  3.898811  0
C  C96  1  0.47938295  0.33900268  0.50541072  1  0.036375  0  -0.068677  -0.14495  0  3.897488  0
C  C97  1  0.18186552  0.33935116  0.99463551  1  -0.045982  0  -0.068828  -0.14494  0  3.89568  0
C  C98  1  0.52062666  0.66099966  0.49458537  1  0.036488  0  -0.06872  -0.144952  0  3.897557  0
C  C99  1  0.81812312  0.66065940  0.00536939  1  -0.046598  0  -0.068792  -0.144902  0  3.895629  0
C  C100  1  0.50986803  0.43946309  0.48493552  1  -0.054329  0  0.020295  0.107285  0  3.946126  0
C  C101  1  0.05088207  0.43963943  0.01511158  1  -0.00713  0  0.020006  0.106911  0  3.944997  0
C  C102  1  0.49014307  0.56054028  0.51506248  1  -0.012358  0  0.020307  0.107141  0  3.946547  0
C  C103  1  0.94910274  0.56035982  0.98489563  1  -0.040132  0  0.020197  0.107105  0  3.945296  0
C  C104  1  0.56100518  0.41928408  0.43451819  1  -0.012951  0  -0.075948  -0.16574  0  3.937198  0
C  C105  1  0.02028571  0.41960200  0.06559708  1  -0.042469  0  -0.075441  -0.165308  0  3.937088  0
C  C106  1  0.43900657  0.58071415  0.56547981  1  -0.012716  0  -0.075933  -0.165638  0  3.937258  0
C  C107  1  0.97970313  0.58039108  0.93440974  1  -0.042166  0  -0.075555  -0.165562  0  3.937628  0
C  C108  1  0.57927450  0.30350645  0.40775790  1  0.485881  0  0.044073  0.083981  0  3.951553  0
C  C109  1  0.11801224  0.30397016  0.09237538  1  0.509367  0  0.043097  0.082858  0  3.952467  0
C  C110  1  0.42072793  0.69649897  0.59224049  1  0.485897  0  0.044072  0.084062  0  3.951498  0
C  C111  1  0.88198463  0.69602395  0.90762952  1  0.508652  0  0.043042  0.082929  0  3.952291  0
C  C112  1  0.86812393  0.98841533  0.35265484  1  0.483207  0  0.049212  0.09372  0  3.928128  0
C  C113  1  0.14263782  0.98855305  0.14730816  1  0.468404  0  0.049095  0.093157  0  3.928361  0
C  C114  1  0.13187209  0.01158393  0.64734586  1  0.483628  0  0.049194  0.093761  0  3.928228  0
C  C115  1  0.85736697  0.01144210  0.85269253  1  0.468097  0  0.04907  0.093146  0  3.92838  0
C  C116  1  0.97314572  0.98501621  0.31996843  1  -0.038779  0  -0.074635  -0.15414  0  3.912572  0
C  C117  1  0.04113105  0.98504963  0.18003410  1  -0.008197  0  -0.074784  -0.153683  0  3.911457  0
C  C118  1  0.02685524  0.01497894  0.68003265  1  -0.039084  0  -0.074675  -0.154152  0  3.912432  0
C  C119  1  0.95886819  0.01495271  0.81996583  1  -0.007668  0  -0.074786  -0.153598  0  3.911647  0
C  C120  1  0.93840838  0.01524452  0.26801049  1  -0.054144  0  0.016124  0.108556  0  3.95644  0
C  C121  1  0.04576280  0.01519423  0.23199097  1  -0.051512  0  0.016612  0.108805  0  3.956796  0
C  C122  1  0.06159900  0.98474549  0.73199096  1  -0.053973  0  0.016136  0.108507  0  3.956269  0
C  C123  1  0.95424409  0.98479680  0.76801086  1  -0.051565  0  0.016633  0.108806  0  3.956871  0
C  C124  1  0.79749872  0.04688300  0.25153580  1  0.005016  0  -0.078362  -0.164242  0  3.924632  0
C  C125  1  0.15523462  0.04656708  0.24846225  1  0.013995  0  -0.078437  -0.163868  0  3.926283  0
C  C126  1  0.20250859  0.95310907  0.74846565  1  0.004548  0  -0.078324  -0.164254  0  3.924402  0
C  C127  1  0.84477525  0.95341985  0.75153882  1  0.014256  0  -0.078393  -0.163846  0  3.926157  0
C  C128  1  0.69823065  0.04898017  0.28670930  1  0.491699  0  0.046857  0.091994  0  3.931857  0
C  C129  1  0.25236000  0.04866894  0.21327031  1  0.458815  0  0.047133  0.092138  0  3.932713  0
C  C130  1  0.30177161  0.95101600  0.71328948  1  0.491987  0  0.04683  0.091985  0  3.931874  0
C  C131  1  0.74764888  0.95132004  0.78673152  1  0.459013  0  0.047143  0.092148  0  3.932862  0
C  C132  1  0.76925441  0.70979228  0.42015354  1  -0.144354  0  -0.021202  0.123095  0  4.049218  0
C  C133  1  0.51986399  0.70976241  0.07988953  1  -0.183148  0  -0.021857  0.122233  0  4.04956  0
C  C134  1  0.23073984  0.29021006  0.57984218  1  -0.144109  0  -0.021262  0.123123  0  4.049206  0
C  C135  1  0.48013234  0.29024198  0.92011116  1  -0.182717  0  -0.021872  0.122365  0  4.049325  0
C  C136  1  0.86196211  0.58887394  0.44705132  1  -0.050814  0  -0.106448  -0.142196  0  4.002301  0
C  C137  1  0.54788224  0.58895027  0.05295365  1  0.021013  0  -0.106052  -0.141603  0  4.002352  0
C  C138  1  0.13803804  0.41112429  0.55294478  1  -0.051047  0  -0.106377  -0.142078  0  4.002421  0
C  C139  1  0.45211108  0.41105823  0.94704704  1  0.020337  0  -0.105978  -0.141645  0  4.002077  0
C  C140  1  0.90655410  0.45997333  0.42532799  1  -0.008566  0  -0.101602  -0.14824  0  3.998214  0
C  C141  1  0.63232995  0.45994778  0.07458608  1  -0.137269  0  -0.10151  -0.148762  0  3.998675  0
C  C142  1  0.09345910  0.54002182  0.57466810  1  -0.008543  0  -0.101568  -0.148288  0  3.997975  0
C  C143  1  0.36766281  0.54006175  0.92541385  1  -0.136897  0  -0.101537  -0.148672  0  3.998533  0
C  C144  1  0.86090029  0.44525902  0.37598855  1  -0.031393  0  -0.027416  0.1427  0  4.012324  0
C  C145  1  0.69305819  0.44506446  0.12387198  1  0.024589  0  -0.027743  0.142463  0  4.013947  0
C  C146  1  0.13910881  0.55473305  0.62400984  1  -0.031365  0  -0.027545  0.142631  0  4.011995  0
C  C147  1  0.30693601  0.55494404  0.87612718  1  0.024335  0  -0.027736  0.142461  0  4.013793  0
C  C148  1  0.76691569  0.56555851  0.34963518  1  -0.121643  0  -0.106282  -0.151195  0  4.014626  0
C  C149  1  0.66672178  0.56527719  0.15029123  1  -0.136919  0  -0.106259  -0.152171  0  4.016093  0
C  C150  1  0.23307995  0.43443561  0.65036399  1  -0.121646  0  -0.106247  -0.151242  0  4.014671  0
C  C151  1  0.33327727  0.43472926  0.84970755  1  -0.136752  0  -0.106187  -0.151928  0  4.016131  0
C  C152  1  0.72182524  0.69547201  0.37096372  1  -0.074615  0  -0.112486  -0.153027  0  4.017534  0
C  C153  1  0.58173042  0.69528927  0.12906196  1  -0.017951  0  -0.112369  -0.151434  0  4.017235  0
C  C154  1  0.27816927  0.30452416  0.62903316  1  -0.07453  0  -0.112478  -0.152985  0  4.01751  0
C  C155  1  0.41826753  0.30472129  0.87093681  1  -0.017375  0  -0.112494  -0.151782  0  4.017407  0
C  C156  1  0.91361797  0.30535747  0.35262676  1  -0.065691  0  -0.245133  -0.410227  0  3.988949  0
C  C157  1  0.78046952  0.30506725  0.14716149  1  -0.067488  0  -0.244781  -0.409872  0  3.989666  0
C  C158  1  0.08638946  0.69463973  0.64737048  1  -0.065847  0  -0.245142  -0.410268  0  3.988791  0
C  C159  1  0.21951951  0.69494022  0.85283921  1  -0.067506  0  -0.24479  -0.409845  0  3.989489  0
C  C160  1  0.32207406  0.95662337  0.37845332  1  -0.17789  0  -0.022557  0.118207  0  4.049549  0
C  C161  1  0.72102559  0.95614632  0.12161175  1  -0.197887  0  -0.022754  0.117596  0  4.049787  0
C  C162  1  0.67791421  0.04338615  0.62155311  1  -0.17761  0  -0.022519  0.118283  0  4.049505  0
C  C163  1  0.27898831  0.04385294  0.87838166  1  -0.198262  0  -0.022745  0.1177  0  4.04982  0
C  C164  1  0.23961525  0.00865912  0.42294756  1  0.021684  0  -0.10254  -0.133534  0  4.000115  0
C  C165  1  0.75137454  0.00811733  0.07706891  1  0.007828  0  -0.102555  -0.133073  0  4.000271  0
C  C166  1  0.76038147  0.99134321  0.57706039  1  0.020906  0  -0.102514  -0.13353  0  3.999959  0
C  C167  1  0.24864424  0.99187987  0.92292488  1  0.007816  0  -0.102513  -0.133189  0  4.000272  0
C  C168  1  0.18207206  0.93474331  0.44810357  1  -0.080312  0  -0.102937  -0.148729  0  3.981927  0
C  C169  1  0.88271127  0.93425073  0.05187956  1  -0.08167  0  -0.102724  -0.148139  0  3.981478  0
C  C170  1  0.81792612  0.06525800  0.55190400  1  -0.079505  0  -0.103033  -0.148893  0  3.98206  0
C  C171  1  0.11731017  0.06573929  0.94811462  1  -0.081768  0  -0.102753  -0.147953  0  3.981295  0
C  C172  1  0.20380967  0.80614578  0.43025461  1  -0.079738  0  -0.021043  0.153737  0  3.993758  0
C  C173  1  0.98967438  0.80583157  0.06981517  1  -0.096223  0  -0.020917  0.152575  0  3.993784  0
C  C174  1  0.79617439  0.19386066  0.56975182  1  -0.079666  0  -0.02105  0.153679  0  3.99399  0
C  C175  1  0.01034091  0.19415742  0.93018016  1  -0.096224  0  -0.020853  0.152424  0  3.994054  0
C  C176  1  0.28646334  0.75446153  0.38601845  1  -0.060139  0  -0.102814  -0.157031  0  4.006104  0
C  C177  1  0.95883890  0.75418326  0.11410403  1  3.4e-05  0  -0.102869  -0.156872  0  4.005501  0
C  C178  1  0.71351005  0.24555827  0.61398455  1  -0.060197  0  -0.102803  -0.157051  0  4.006588  0
C  C179  1  0.04116843  0.24581395  0.88589092  1  0.000301  0  -0.102883  -0.156813  0  4.00557  0
C  C180  1  0.34491177  0.82777957  0.36051540  1  -0.018927  0  -0.105748  -0.145606  0  4.015484  0
C  C181  1  0.82714152  0.82739617  0.13961269  1  -0.051582  0  -0.105763  -0.145211  0  4.01263  0
C  C182  1  0.65506857  0.17223612  0.63948989  1  -0.019074  0  -0.105776  -0.145562  0  4.015569  0
C  C183  1  0.17286909  0.17260617  0.86038416  1  -0.051436  0  -0.105893  -0.145463  0  4.012562  0
C  C184  1  0.14068263  0.72787263  0.45778917  1  -0.110737  0  -0.24633  -0.414832  0  3.969186  0
C  C185  1  0.13116129  0.72774544  0.04236287  1  -0.00726  0  -0.246536  -0.414622  0  3.968916  0
C  C186  1  0.85930720  0.27212765  0.54221344  1  -0.110909  0  -0.246336  -0.414823  0  3.96898  0
C  C187  1  0.86885667  0.27223841  0.95763475  1  -0.007616  0  -0.246567  -0.414496  0  3.968891  0
S  S188  1  0.71805545  0.86863846  0.45048991  1  -0.402246  0  -0.214418  -0.399031  0  2.56587  0
S  S189  1  0.41246591  0.86874516  0.04957390  1  -0.405291  0  -0.214392  -0.399076  0  2.565652  0
S  S190  1  0.28194534  0.13135875  0.54950887  1  -0.402333  0  -0.214431  -0.39911  0  2.565974  0
S  S191  1  0.58752884  0.13126026  0.95042450  1  -0.405216  0  -0.214364  -0.399051  0  2.565776  0
S  S192  1  0.38575889  0.05506099  0.34404939  1  -0.449462  0  -0.267014  -0.467656  0  2.518457  0
S  S193  1  0.55908387  0.05451247  0.15605568  1  -0.450399  0  -0.266574  -0.467107  0  2.519836  0
S  S194  1  0.61423307  0.94495059  0.65595550  1  -0.449234  0  -0.266981  -0.467616  0  2.518518  0
S  S195  1  0.44092687  0.94549500  0.84393735  1  -0.450094  0  -0.266595  -0.467136  0  2.519933  0
N  N196  1  0.54998057  0.20758384  0.42806442  1  -1.271877  0  -0.329293  -0.196025  0  3.564897  0
N  N197  1  0.24304458  0.20804438  0.07203789  1  -1.282308  0  -0.328887  -0.196292  0  3.565791  0
N  N198  1  0.45001852  0.79241849  0.57193245  1  -1.271923  0  -0.329293  -0.196183  0  3.564941  0
N  N199  1  0.75695191  0.79196001  0.92796624  1  -1.282255  0  -0.328892  -0.196383  0  3.565881  0
N  N200  1  0.73235342  0.02113060  0.33655271  1  -1.261226  0  -0.328841  -0.199528  0  3.568826  0
N  N201  1  0.24583205  0.02113593  0.16340027  1  -1.255984  0  -0.328609  -0.199945  0  3.568939  0
N  N202  1  0.26764513  0.97886351  0.66344722  1  -1.261433  0  -0.328823  -0.199498  0  3.569031  0
N  N203  1  0.75417583  0.97885306  0.83660080  1  -1.256077  0  -0.328601  -0.19998  0  3.569027  0
