# generated using pymatgen
data_Zn4H32C36O17
_symmetry_space_group_name_H-M   'P 1'
_cell_length_a   17.80446353
_cell_length_b   18.64629479
_cell_length_c   23.36505181
_cell_angle_alpha   66.59720418
_cell_angle_beta   69.70220667
_cell_angle_gamma   89.94596390
_symmetry_Int_Tables_number   1
_chemical_formula_structural   Zn4H32C36O17
_chemical_formula_sum   'Zn8 H64 C72 O34'
_cell_volume   6591.80285312
_cell_formula_units_Z   2
loop_
 _symmetry_equiv_pos_site_id
 _symmetry_equiv_pos_as_xyz
  1  'x, y, z'
loop_
 _atom_site_type_symbol
 _atom_site_label
 _atom_site_symmetry_multiplicity
 _atom_site_fract_x
 _atom_site_fract_y
 _atom_site_fract_z
 _atom_site_occupancy
 _atom_site_pbe_bader_charge
 _atom_site_pbe_bader_spin_density
 _atom_site_pbe_cm5_charge
 _atom_site_pbe_ddec_charge
 _atom_site_pbe_ddec_spin_density
 _atom_site_pbe_ddec_sum_bond_order
 _atom_site_pbe_magmom
Zn  Zn0  1  0.11844117  0.53101382  0.94152480  1  1.314628  0  0.66921  0.95938  0  2.379022  0
Zn  Zn1  1  0.97223310  0.55959853  0.05132167  1  1.311302  0  0.667689  0.951395  0  2.40855  0
Zn  Zn2  1  0.97603110  0.38924173  0.05096006  1  1.309551  0  0.66802  0.951555  0  2.412145  0
Zn  Zn3  1  0.93872048  0.53051797  0.93479693  1  1.303067  0  0.669968  0.96468  0  2.343819  0
Zn  Zn4  1  0.38515453  0.97690134  0.05012054  1  1.312933  0  0.668312  0.95557  0  2.389461  0
Zn  Zn5  1  0.52918417  0.11600955  0.93694302  1  1.310767  0  0.668729  0.952823  0  2.408527  0
Zn  Zn6  1  0.52365880  0.94602682  0.93723273  1  1.301291  0  0.668664  0.953223  0  2.40854  0
Zn  Zn7  1  0.56740919  0.97272916  0.05111855  1  1.313874  0  0.669728  0.965546  0  2.339271  0
H  H8  1  0.49767522  0.86740718  0.26382624  1  0.091317  0  0.116789  0.147845  0  0.979608  0
H  H9  1  0.26013021  0.87429621  0.25317872  1  0.109973  0  0.117373  0.151927  0  0.978831  0
H  H10  1  0.25155268  0.63160089  0.73680383  1  0.118594  0  0.116316  0.149854  0  0.977208  0
H  H11  1  0.01501951  0.63773263  0.72421797  1  0.115034  0  0.116954  0.14826  0  0.979821  0
H  H12  1  0.62990042  0.01869730  0.72970607  1  0.128062  0  0.116887  0.149664  0  0.978117  0
H  H13  1  0.62726116  0.24992471  0.73050792  1  0.103866  0  0.117353  0.150805  0  0.978132  0
H  H14  1  0.86999770  0.25509901  0.25819399  1  0.110041  0  0.117446  0.151279  0  0.976977  0
H  H15  1  0.86800100  0.48651267  0.25876485  1  0.144918  0  0.11746  0.151043  0  0.977321  0
H  H16  1  0.19772849  0.30137177  0.91100333  1  0.0285  0  0.09185  0.086432  0  0.978928  0
H  H17  1  0.12578687  0.22965414  0.98738045  1  0.049366  0  0.093205  0.091914  0  0.983025  0
H  H18  1  0.21487533  0.13777733  0.98492861  1  0.031859  0  0.093217  0.091646  0  0.982069  0
H  H19  1  0.28648582  0.21015748  0.90876048  1  0.039532  0  0.091949  0.086881  0  0.978285  0
H  H20  1  0.21461505  0.12363510  0.09606677  1  0.048436  0  0.092924  0.094099  0  0.985071  0
H  H21  1  0.28642210  0.18450206  0.10029350  1  0.008978  0  0.089496  0.083305  0  0.979871  0
H  H22  1  0.12633801  0.21653534  0.09881244  1  0.062838  0  0.0926  0.094058  0  0.987048  0
H  H23  1  0.19941809  0.27755139  0.10156222  1  0.013284  0  0.089535  0.083592  0  0.979676  0
H  H24  1  0.30201246  0.39088837  0.91434439  1  0.041955  0  0.090766  0.091146  0  0.985632  0
H  H25  1  0.30263867  0.38188975  0.99196345  1  0.007079  0  0.089748  0.086117  0  0.980984  0
H  H26  1  0.39117223  0.28945893  0.99064729  1  0.01941  0  0.089272  0.085918  0  0.980966  0
H  H27  1  0.39096201  0.29911259  0.91283311  1  0.031073  0  0.091255  0.091098  0  0.985177  0
H  H28  1  0.89067040  0.80045470  0.90484622  1  0.020828  0  0.091023  0.084917  0  0.979674  0
H  H29  1  0.88788626  0.78782977  0.98478582  1  0.034832  0  0.091979  0.090666  0  0.984471  0
H  H30  1  0.79894567  0.88014859  0.98601789  1  0.042045  0  0.09291  0.091649  0  0.982863  0
H  H31  1  0.80193158  0.89173379  0.90622964  1  0.040117  0  0.090987  0.086089  0  0.978506  0
H  H32  1  0.69594980  0.77693851  0.09170517  1  0.040928  0  0.093347  0.094341  0  0.984898  0
H  H33  1  0.62366089  0.71537596  0.08855867  1  0.012707  0  0.089827  0.083794  0  0.979923  0
H  H34  1  0.78331381  0.68312987  0.09076839  1  0.039962  0  0.09296  0.094141  0  0.987797  0
H  H35  1  0.71133264  0.62322156  0.08573225  1  0.015846  0  0.089842  0.083649  0  0.979155  0
H  H36  1  0.78919444  0.71280310  0.89716375  1  0.048525  0  0.090543  0.089469  0  0.983533  0
H  H37  1  0.71633997  0.63989228  0.97076424  1  -0.005045  0  0.089799  0.086859  0  0.98211  0
H  H38  1  0.62687335  0.73133187  0.97323335  1  0.032996  0  0.089801  0.086775  0  0.981917  0
H  H39  1  0.69946298  0.80391484  0.89937030  1  0.036442  0  0.090859  0.090084  0  0.984487  0
H  H40  1  0.16211807  0.79324215  0.93705532  1  0.011997  0  0.091299  0.085502  0  0.979297  0
H  H41  1  0.24638992  0.75723954  0.89603757  1  0.033988  0  0.093972  0.093326  0  0.982853  0
H  H42  1  0.33353306  0.85282742  0.89379855  1  0.046033  0  0.093959  0.093855  0  0.982468  0
H  H43  1  0.24876883  0.88761492  0.93566682  1  0.02496  0  0.091504  0.08612  0  0.978236  0
H  H44  1  0.39390437  0.74398468  0.96067378  1  0.050368  0  0.093152  0.094495  0  0.986942  0
H  H45  1  0.35293413  0.70261825  0.04955288  1  -0.004413  0  0.089469  0.08321  0  0.980606  0
H  H46  1  0.30566248  0.64820148  0.96370867  1  0.022555  0  0.092972  0.094493  0  0.9869  0
H  H47  1  0.26463909  0.60815542  0.05259681  1  -0.001174  0  0.089219  0.083152  0  0.980465  0
H  H48  1  0.10188903  0.73506189  0.06508032  1  0.034506  0  0.090698  0.090694  0  0.984421  0
H  H49  1  0.14323735  0.65919665  0.11231941  1  0.032776  0  0.089855  0.087146  0  0.980183  0
H  H50  1  0.23183269  0.75344437  0.11014740  1  0.023721  0  0.089648  0.086199  0  0.980517  0
H  H51  1  0.18987436  0.82927294  0.06350004  1  0.060196  0  0.090717  0.089754  0  0.984079  0
H  H52  1  0.89925675  0.26715977  0.92951109  1  0.045398  0  0.091153  0.085666  0  0.980687  0
H  H53  1  0.85502022  0.34325065  0.88426187  1  0.039163  0  0.093534  0.091598  0  0.98075  0
H  H54  1  0.76875119  0.24768268  0.88563244  1  0.042342  0  0.093686  0.092862  0  0.981794  0
H  H55  1  0.81215148  0.17204541  0.93223322  1  0.023853  0  0.091178  0.085413  0  0.979063  0
H  H56  1  0.64947623  0.29811693  0.94545191  1  0.042086  0  0.092814  0.094738  0  0.985384  0
H  H57  1  0.60650410  0.25716616  0.03425814  1  0.030533  0  0.089021  0.082449  0  0.981543  0
H  H58  1  0.73636798  0.39241689  0.94542391  1  0.035654  0  0.092635  0.094153  0  0.986651  0
H  H59  1  0.69375540  0.34993891  0.03426989  1  0.010168  0  0.089354  0.084075  0  0.980001  0
H  H60  1  0.83943019  0.20525129  0.05749672  1  0.035333  0  0.090901  0.09109  0  0.987196  0
H  H61  1  0.75648370  0.23931415  0.10083151  1  0.033537  0  0.089825  0.08672  0  0.979982  0
H  H62  1  0.66718800  0.14668424  0.10199558  1  0.026247  0  0.089621  0.086928  0  0.980101  0
H  H63  1  0.75024123  0.11121349  0.06025743  1  0.055184  0  0.090672  0.090096  0  0.98412  0
H  H64  1  0.16405488  0.78434015  0.43095245  1  0.578091  0  0.316352  0.338243  0  0.929338  0
H  H65  1  0.41210814  0.77841589  0.44219984  1  0.576167  0  0.318864  0.341562  0  0.9229  0
H  H66  1  0.10195474  0.72688185  0.54599697  1  0.570027  0  0.318429  0.340579  0  0.925547  0
H  H67  1  0.34915955  0.72075236  0.55905928  1  0.595498  0  0.317434  0.33995  0  0.928326  0
H  H68  1  0.72997547  0.34392262  0.55316749  1  0.589404  0  0.318127  0.339952  0  0.925861  0
H  H69  1  0.73179859  0.10286356  0.55221935  1  0.613701  0  0.317307  0.339223  0  0.927522  0
H  H70  1  0.77957273  0.40216162  0.43715804  1  0.571159  0  0.317668  0.340407  0  0.926403  0
H  H71  1  0.78053463  0.16103263  0.43652196  1  0.582633  0  0.317766  0.340114  0  0.925697  0
C  C72  1  0.14177208  0.63502711  0.00324668  1  1.549985  0  0.235228  0.602539  0  4.09952  0
C  C73  1  0.90893318  0.41190877  0.17627983  1  1.57392  0  0.228538  0.6025  0  4.160782  0
C  C74  1  0.14435201  0.36388977  0.00105852  1  1.540433  0  0.234358  0.602854  0  4.099781  0
C  C75  1  0.86092984  0.36578784  0.99046753  1  1.544914  0  0.234576  0.602117  0  4.097124  0
C  C76  1  0.09092998  0.59329935  0.81310747  1  1.555599  0  0.22998  0.605895  0  4.15376  0
C  C77  1  0.86112871  0.64341432  0.98911947  1  1.5461  0  0.235195  0.603829  0  4.096644  0
C  C78  1  0.36013977  0.14172357  0.99691559  1  1.543063  0  0.235025  0.60293  0  4.098065  0
C  C79  1  0.58333095  0.09322764  0.81194462  1  1.550605  0  0.228255  0.601258  0  4.16205  0
C  C80  1  0.35579689  0.86314042  0.99819144  1  1.551306  0  0.235284  0.603041  0  4.096167  0
C  C81  1  0.64417565  0.86528258  0.99234585  1  1.548153  0  0.23653  0.606009  0  4.092618  0
C  C82  1  0.41970770  0.91263648  0.17583015  1  1.620004  0  0.22896  0.603492  0  4.15807  0
C  C83  1  0.64685805  0.13984725  0.99233936  1  1.54721  0  0.235819  0.605291  0  4.094531  0
C  C84  1  0.38248031  0.87443770  0.25134102  1  -0.080922  0  -0.011513  0.012246  0  4.019846  0
C  C85  1  0.43192978  0.85509575  0.28889450  1  0.079583  0  -0.104982  -0.243521  0  3.957108  0
C  C86  1  0.39623248  0.82009034  0.35888515  1  0.505044  0  0.08768  0.296712  0  4.067693  0
C  C87  1  0.31043923  0.80340114  0.39259942  1  0.106686  0  -0.039309  -0.13504  0  4.148604  0
C  C88  1  0.26210937  0.82363025  0.35284911  1  0.516151  0  0.088636  0.301063  0  4.067804  0
C  C89  1  0.29780476  0.85889144  0.28299984  1  0.055156  0  -0.106651  -0.249063  0  3.962241  0
C  C90  1  0.27364424  0.76788520  0.46361258  1  -0.395631  0  -0.052254  -0.118483  0  4.230845  0
C  C91  1  0.24020548  0.73700250  0.52550021  1  -0.155914  0  -0.052282  -0.118209  0  4.231471  0
C  C92  1  0.20292984  0.70158783  0.59646409  1  0.165459  0  -0.037927  -0.132919  0  4.148293  0
C  C93  1  0.25064544  0.68154009  0.63674086  1  0.430209  0  0.088367  0.299783  0  4.066005  0
C  C94  1  0.21433091  0.64660637  0.70659984  1  0.153245  0  -0.104863  -0.245811  0  3.957435  0
C  C95  1  0.12961552  0.63102544  0.73766422  1  -0.075032  0  -0.013129  0.00987  0  4.020427  0
C  C96  1  0.08078395  0.65005872  0.69956233  1  0.077325  0  -0.105506  -0.245266  0  3.957611  0
C  C97  1  0.11707890  0.68500208  0.62964463  1  0.446665  0  0.08871  0.29937  0  4.067641  0
C  C98  1  0.62406174  0.13090654  0.73684959  1  -0.112707  0  -0.012606  0.010501  0  4.025457  0
C  C99  1  0.64419275  0.08277979  0.70232158  1  0.050196  0  -0.104514  -0.244494  0  3.955997  0
C  C100  1  0.68305223  0.11772493  0.63267490  1  0.440251  0  0.089375  0.301042  0  4.067575  0
C  C101  1  0.70201694  0.20141977  0.59642257  1  0.206645  0  -0.038584  -0.134238  0  4.154057  0
C  C102  1  0.68182009  0.24847743  0.63316453  1  0.510782  0  0.087955  0.29833  0  4.069321  0
C  C103  1  0.64272257  0.21347531  0.70279858  1  0.121448  0  -0.10488  -0.245066  0  3.958329  0
C  C104  1  0.73911856  0.23699110  0.52556137  1  -0.244086  0  -0.052965  -0.119893  0  4.238723  0
C  C105  1  0.76971832  0.26817461  0.46357190  1  -0.365638  0  -0.051982  -0.117907  0  4.236543  0
C  C106  1  0.80417837  0.30372124  0.39259009  1  0.206555  0  -0.038432  -0.132919  0  4.154976  0
C  C107  1  0.82215482  0.25662083  0.35583398  1  0.510392  0  0.088155  0.298829  0  4.071798  0
C  C108  1  0.85631925  0.29162415  0.28591234  1  0.018492  0  -0.104951  -0.24624  0  3.958415  0
C  C109  1  0.87250794  0.37424779  0.25162172  1  0.001161  0  -0.012103  0.011191  0  4.02622  0
C  C110  1  0.85521944  0.42239352  0.28624395  1  0.090022  0  -0.105006  -0.24583  0  3.958867  0
C  C111  1  0.82130081  0.38742927  0.35617643  1  0.351055  0  0.088099  0.298404  0  4.071823  0
C  C112  1  0.18920270  0.25920173  0.96248150  1  -0.056399  0  -0.154765  -0.169372  0  3.848254  0
C  C113  1  0.24830866  0.19823891  0.96098952  1  -0.02562  0  -0.155042  -0.16897  0  3.84668  0
C  C114  1  0.30329946  0.20253925  0.99872328  1  0.052612  0  -0.01662  0.021975  0  3.811011  0
C  C115  1  0.24828797  0.18392149  0.07211801  1  -0.027049  0  -0.158687  -0.172553  0  3.862227  0
C  C116  1  0.18988210  0.24544662  0.07341655  1  -0.049321  0  -0.158115  -0.170556  0  3.862065  0
C  C117  1  0.20410059  0.30544634  0.00094511  1  0.069536  0  -0.016972  0.018934  0  3.814268  0
C  C118  1  0.29234530  0.34770899  0.96562740  1  -0.021953  0  -0.164303  -0.176254  0  3.890397  0
C  C119  1  0.35105540  0.28672324  0.96462454  1  -0.01267  0  -0.164803  -0.177343  0  3.889576  0
C  C120  1  0.84974727  0.78665699  0.95683899  1  -0.033807  0  -0.154296  -0.166575  0  3.846708  0
C  C121  1  0.79058757  0.84775793  0.95777077  1  -0.038578  0  -0.1553  -0.169955  0  3.849634  0
C  C122  1  0.70186882  0.80494168  0.99089843  1  0.03122  0  -0.017251  0.018186  0  3.809949  0
C  C123  1  0.68719107  0.74479907  0.06346099  1  -0.008944  0  -0.158906  -0.172182  0  3.864713  0
C  C124  1  0.74556065  0.68335540  0.06225299  1  -0.021907  0  -0.158426  -0.170846  0  3.859139  0
C  C125  1  0.80153486  0.70216735  0.98892208  1  0.038288  0  -0.017048  0.019894  0  3.81126  0
C  C126  1  0.74945488  0.70011761  0.94911042  1  0.001406  0  -0.164733  -0.177214  0  3.890138  0
C  C127  1  0.69019997  0.76069186  0.95056804  1  -0.039229  0  -0.164635  -0.175106  0  3.883434  0
C  C128  1  0.21883930  0.77132483  0.93949175  1  -0.013625  0  -0.154753  -0.169204  0  3.852572  0
C  C129  1  0.27676444  0.83436592  0.93821145  1  -0.036459  0  -0.155042  -0.169329  0  3.85253  0
C  C130  1  0.29687358  0.80042315  0.00240997  1  0.035379  0  -0.017213  0.021284  0  3.811605  0
C  C131  1  0.33694020  0.72631044  0.00475160  1  -0.010315  0  -0.159067  -0.173123  0  3.861478  0
C  C132  1  0.27842744  0.66325922  0.00660858  1  0.009304  0  -0.159027  -0.173325  0  3.865357  0
C  C133  1  0.19858137  0.69447645  0.00492861  1  0.034057  0  -0.01614  0.022575  0  3.810403  0
C  C134  1  0.15926139  0.71390903  0.06579586  1  -0.021302  0  -0.163956  -0.178  0  3.882538  0
C  C135  1  0.21771005  0.77645416  0.06448224  1  -0.04364  0  -0.164408  -0.175683  0  3.884047  0
C  C136  1  0.84126887  0.28780642  0.92984276  1  -0.041643  0  -0.154182  -0.168429  0  3.847864  0
C  C137  1  0.78336644  0.22459627  0.93103133  1  -0.041296  0  -0.154977  -0.168645  0  3.846322  0
C  C138  1  0.70364674  0.19961280  0.99381751  1  0.047661  0  -0.016579  0.021844  0  3.810926  0
C  C139  1  0.66425374  0.27428927  0.99070817  1  -0.039494  0  -0.158727  -0.172508  0  3.859945  0
C  C140  1  0.72218110  0.33644487  0.99049933  1  -0.01614  0  -0.160164  -0.175586  0  3.869684  0
C  C141  1  0.80171625  0.30489694  0.99254714  1  0.042345  0  -0.016041  0.022738  0  3.807549  0
C  C142  1  0.78253646  0.22709478  0.05618197  1  -0.02885  0  -0.165271  -0.177416  0  3.884446  0
C  C143  1  0.72375990  0.16514707  0.05733544  1  -0.053101  0  -0.164363  -0.177619  0  3.891231  0
O  O144  1  0.00100987  0.50320386  0.99351738  1  -1.22457  0  -0.573469  -1.027101  0  2.543872  0
O  O145  1  0.17179410  0.60708494  0.95974771  1  -1.172105  0  -0.317447  -0.553662  0  2.340452  0
O  O146  1  0.91964908  0.48734434  0.14734862  1  -1.154341  0  -0.313419  -0.540573  0  2.338749  0
O  O147  1  0.07049519  0.33489590  0.03998599  1  -1.180767  0  -0.315786  -0.548268  0  2.353192  0
O  O148  1  0.06825498  0.61895445  0.04416334  1  -1.183029  0  -0.313546  -0.544318  0  2.366557  0
O  O149  1  0.17174553  0.43667302  0.96156478  1  -1.185035  0  -0.314091  -0.549446  0  2.357361  0
O  O150  1  0.92624984  0.36541303  0.14727221  1  -1.165436  0  -0.312833  -0.540525  0  2.338594  0
O  O151  1  0.89932318  0.33948767  0.02964064  1  -1.176753  0  -0.315256  -0.548865  0  2.381775  0
O  O152  1  0.01354248  0.57997888  0.83934024  1  -1.179355  0  -0.313501  -0.543815  0  2.324345  0
O  O153  1  0.86885126  0.43791552  0.94924581  1  -1.175708  0  -0.315399  -0.550208  0  2.32525  0
O  O154  1  0.13903918  0.57772568  0.84464968  1  -1.183109  0  -0.315151  -0.544294  0  2.339368  0
O  O155  1  0.90062501  0.63564483  0.02706106  1  -1.177015  0  -0.319006  -0.554829  0  2.360437  0
O  O156  1  0.86763078  0.60702493  0.95195079  1  -1.180088  0  -0.31229  -0.546199  0  2.341536  0
O  O157  1  0.50165675  0.00221002  0.99512280  1  -1.222845  0  -0.572896  -1.025799  0  2.542901  0
O  O158  1  0.32850386  0.06882562  0.03192133  1  -1.165684  0  -0.316606  -0.550618  0  2.337658  0
O  O159  1  0.56465283  0.13970640  0.84088373  1  -1.167819  0  -0.313702  -0.540719  0  2.339607  0
O  O160  1  0.42712185  0.87939386  0.95314006  1  -1.186009  0  -0.318384  -0.553978  0  2.352571  0
O  O161  1  0.43491108  0.16801108  0.96016378  1  -1.186971  0  -0.313746  -0.547656  0  2.371823  0
O  O162  1  0.32985813  0.89533063  0.03884156  1  -1.1721  0  -0.312378  -0.544215  0  2.353455  0
O  O163  1  0.57096948  0.01774586  0.84084799  1  -1.154524  0  -0.312984  -0.54008  0  2.340155  0
O  O164  1  0.60346642  0.87699369  0.95500602  1  -1.185122  0  -0.315009  -0.548021  0  2.375388  0
O  O165  1  0.49689466  0.92232908  0.14808676  1  -1.184407  0  -0.312748  -0.541389  0  2.313497  0
O  O166  1  0.64098145  0.89951708  0.03074945  1  -1.169603  0  -0.317202  -0.554573  0  2.326736  0
O  O167  1  0.37029819  0.93232745  0.14573601  1  -1.180154  0  -0.315275  -0.544714  0  2.350498  0
O  O168  1  0.61775482  0.16643146  0.94635901  1  -1.174173  0  -0.319049  -0.554005  0  2.353588  0
O  O169  1  0.63287482  0.06840867  0.03618597  1  -1.182497  0  -0.313467  -0.549181  0  2.345588  0
O  O170  1  0.17948069  0.80905588  0.38215512  1  -1.108304  0  -0.349192  -0.421607  0  2.242249  0
O  O171  1  0.44588663  0.80227113  0.39423410  1  -1.087491  0  -0.34888  -0.421476  0  2.242835  0
O  O172  1  0.06788671  0.70291077  0.59389268  1  -1.099255  0  -0.350436  -0.42299  0  2.243485  0
O  O173  1  0.33328811  0.69605557  0.60789762  1  -1.105254  0  -0.349989  -0.422771  0  2.244312  0
O  O174  1  0.70008366  0.32902302  0.60106343  1  -1.101508  0  -0.349296  -0.421433  0  2.241745  0
O  O175  1  0.70229191  0.06966208  0.60008536  1  -1.13391  0  -0.34917  -0.421818  0  2.242903  0
O  O176  1  0.80483693  0.43548141  0.38886794  1  -1.097222  0  -0.349122  -0.422057  0  2.242349  0
O  O177  1  0.80629490  0.17601862  0.38821191  1  -1.135592  0  -0.349149  -0.421885  0  2.242708  0
