# generated using pymatgen
data_NiH20C21(NO3)2
_symmetry_space_group_name_H-M   'P 1'
_cell_length_a   8.19141854
_cell_length_b   11.37786527
_cell_length_c   11.71829156
_cell_angle_alpha   109.98095269
_cell_angle_beta   99.70005374
_cell_angle_gamma   104.29986691
_symmetry_Int_Tables_number   1
_chemical_formula_structural   NiH20C21(NO3)2
_chemical_formula_sum   'Ni2 H40 C42 N4 O12'
_cell_volume   955.49380521
_cell_formula_units_Z   2
loop_
 _symmetry_equiv_pos_site_id
 _symmetry_equiv_pos_as_xyz
  1  'x, y, z'
loop_
 _atom_site_type_symbol
 _atom_site_label
 _atom_site_symmetry_multiplicity
 _atom_site_fract_x
 _atom_site_fract_y
 _atom_site_fract_z
 _atom_site_occupancy
 _atom_site_hle17_ddec_charge
 _atom_site_hle17_ddec_spin_density
 _atom_site_hle17_ddec_sum_bond_order
 _atom_site_hle17_magmom
 _atom_site_hse06_10hf_ddec_charge
 _atom_site_hse06_10hf_ddec_spin_density
 _atom_site_hse06_10hf_ddec_sum_bond_order
 _atom_site_hse06_10hf_magmom
 _atom_site_hse06_ddec_charge
 _atom_site_hse06_ddec_spin_density
 _atom_site_hse06_ddec_sum_bond_order
 _atom_site_hse06_magmom
 _atom_site_pbe_cm5_charge
 _atom_site_pbe_ddec_charge
 _atom_site_pbe_ddec_spin_density
 _atom_site_pbe_ddec_sum_bond_order
 _atom_site_pbe_magmom
Ni  Ni0  1  0.25115378  0.27562649  0.93193346  1  0.669894  0.028432  2.120661  0.015  0.659179  0.041869  2.550741  0.022  0.780842  0.041842  2.449918  0.021  0.604947  0.582674  -0.032027  2.61813  -0.017
Ni  Ni1  1  0.74884430  0.72437261  0.06806979  1  0.66982  -0.028427  2.120644  -0.015  0.659104  -0.041865  2.550776  -0.022  0.780749  -0.041841  2.449951  -0.021  0.604947  0.582594  0.032024  2.618067  0.017
H  H2  1  0.15884119  0.37379842  0.12995659  1  0.41567  -3.3e-05  0.888999  0.0  0.386013  2.4e-05  0.956988  0.0  0.399539  -3.1e-05  0.938378  0.0  0.289442  0.376628  -4.3e-05  0.969778  0.0
H  H3  1  0.84115624  0.62620469  0.87004960  1  0.415708  3.3e-05  0.88897  0.0  0.386007  -2.4e-05  0.956996  0.0  0.399532  2.9e-05  0.938386  0.0  0.289438  0.376619  4.3e-05  0.969789  0.0
H  H4  1  0.25791743  0.48767290  0.08773973  1  0.408739  -5e-06  0.895464  0.0  0.381281  0.000382  0.961198  0.0  0.393384  0.000363  0.944068  0.0  0.291544  0.372941  -0.000289  0.972927  0.0
H  H5  1  0.74208483  0.51232718  0.91226774  1  0.40873  6e-06  0.895423  0.0  0.381287  -0.000381  0.961175  0.0  0.393386  -0.000362  0.944048  0.0  0.291553  0.372949  0.000289  0.9729  0.0
H  H6  1  0.97556938  0.13032779  0.01557218  1  0.40272  6.6e-05  0.906181  0.0  0.375277  -5e-06  0.966113  0.0  0.387266  2.4e-05  0.948504  0.0  0.27373  0.366814  2.6e-05  0.978593  0.0
H  H7  1  0.02444831  0.86966287  0.98441269  1  0.402392  -6.6e-05  0.906593  0.0  0.374986  5e-06  0.966477  0.0  0.386976  -2.4e-05  0.948866  0.0  0.273585  0.36652  -2.6e-05  0.978962  0.0
H  H8  1  0.96425661  0.01858747  0.88722453  1  0.394749  3e-06  0.925995  0.0  0.366281  -6.2e-05  0.989785  0.0  0.377166  -2.2e-05  0.973893  0.0  0.271798  0.358769  7.1e-05  1.00081  0.0
H  H9  1  0.03576643  0.98140409  0.11275868  1  0.394477  -3e-06  0.926365  0.0  0.366003  6.2e-05  0.990153  0.0  0.376887  2.2e-05  0.974266  0.0  0.271716  0.358489  -7.1e-05  1.00118  0.0
H  H10  1  0.54642353  0.09759605  0.67362888  1  0.111785  0.000111  0.940489  0.0  0.12524  0.000191  1.001599  0.0  0.127556  0.000181  1.000138  0.0  0.10133  0.123892  -0.00016  1.00229  0.0
H  H11  1  0.45357844  0.90240892  0.32637246  1  0.111862  -0.000111  0.940472  0.0  0.125312  -0.000191  1.001586  0.0  0.12762  -0.00018  1.000122  0.0  0.101338  0.123967  0.00016  1.002275  0.0
H  H12  1  0.70240497  0.25604818  0.71414724  1  0.114729  0.000294  0.952313  0.0  0.128194  0.000312  1.010317  0.0  0.128297  0.000291  1.012318  0.0  0.101086  0.128584  -0.000258  1.008602  0.0
H  H13  1  0.29758991  0.74395485  0.28584924  1  0.114713  -0.000294  0.952288  0.0  0.128231  -0.000312  1.01024  0.0  0.128328  -0.00029  1.012235  0.0  0.101105  0.12862  0.000257  1.008525  0.0
H  H14  1  0.33674296  0.00244281  0.47733005  1  0.081029  1e-05  0.982861  0.0  0.092511  7e-06  1.048354  0.0  0.094841  7e-06  1.0484  0.0  0.093866  0.09092  -3e-06  1.048293  0.0
H  H15  1  0.66325754  0.99755621  0.52266919  1  0.081044  -1.1e-05  0.98283  0.0  0.092528  -7e-06  1.048318  0.0  0.094858  -7e-06  1.048364  0.0  0.093867  0.090937  3e-06  1.048257  0.0
H  H16  1  0.16020863  0.01742478  0.29284752  1  0.101643  -2.5e-05  0.981826  0.0  0.112722  -2.4e-05  1.043966  0.0  0.114886  -3.5e-05  1.042567  0.0  0.104094  0.111112  1.4e-05  1.044971  0.0
H  H17  1  0.83978870  0.98256730  0.70714826  1  0.10154  2.5e-05  0.982045  0.0  0.112692  2.4e-05  1.044104  0.0  0.114862  3.5e-05  1.042696  0.0  0.104097  0.111082  -1.4e-05  1.045108  0.0
H  H18  1  0.36203974  0.44118948  0.47639330  1  0.087448  -3e-06  0.982572  0.0  0.09517  -3e-06  1.053197  0.0  0.098351  -2e-06  1.050664  0.0  0.098215  0.093101  3e-06  1.054596  0.0
H  H19  1  0.63792688  0.55880591  0.52359488  1  0.087447  1e-06  0.98258  0.0  0.095206  3e-06  1.053156  0.0  0.098387  2e-06  1.050621  0.0  0.098261  0.093138  -3e-06  1.054555  0.0
H  H20  1  0.54940183  0.42787226  0.65827640  1  0.103063  -2e-06  0.965427  0.0  0.111797  -2e-06  1.030579  0.0  0.115536  -1e-06  1.028563  0.0  0.099887  0.109007  3e-06  1.032129  0.0
H  H21  1  0.45057002  0.57212104  0.34170915  1  0.103367  4e-06  0.965345  0.0  0.111948  2e-06  1.030575  0.0  0.115681  2e-06  1.028574  0.0  0.100005  0.10916  -3e-06  1.032124  0.0
H  H22  1  0.52923435  0.45796482  0.15059062  1  0.091172  -0.000366  0.962182  -0.001  0.093505  -0.000475  1.038034  -0.001  0.094128  -0.000513  1.036665  -0.001  0.121489  0.092625  0.000336  1.039896  0.001
H  H23  1  0.47076223  0.54203922  0.84940894  1  0.091108  0.000365  0.962349  0.001  0.093488  0.000475  1.038162  0.001  0.094102  0.000513  1.036806  0.001  0.121468  0.092614  -0.000336  1.040015  -0.001
H  H24  1  0.73174069  0.44263347  0.32281615  1  0.097918  -0.000111  0.981375  0.0  0.107591  -0.000121  1.043916  0.0  0.109115  -0.000107  1.045698  0.0  0.105748  0.106765  0.000101  1.042557  0.0
H  H25  1  0.26826214  0.55737343  0.67718164  1  0.097903  0.000111  0.981354  0.0  0.107544  0.000121  1.043919  0.0  0.109104  0.000107  1.045662  0.0  0.105734  0.106709  -0.000101  1.042567  0.0
H  H26  1  0.47659749  0.01702265  0.14824566  1  0.118644  -8.1e-05  0.936773  0.0  0.12918  -7.9e-05  0.994249  0.0  0.132468  -7.3e-05  0.993435  0.0  0.113298  0.12664  6e-05  0.995265  0.0
H  H27  1  0.52343493  0.98298391  0.85175886  1  0.118717  8.1e-05  0.936863  0.0  0.129265  7.9e-05  0.99432  0.0  0.132553  7.3e-05  0.993505  0.0  0.113358  0.126722  -6e-05  0.995334  0.0
H  H28  1  0.28138689  0.05070905  0.98367364  1  0.100108  -0.000393  0.9311  -0.001  0.106327  -0.000506  0.995629  -0.001  0.107524  -0.000542  0.993289  -0.001  0.12856  0.105243  0.000362  0.997894  0.0
H  H29  1  0.71863889  0.94928565  0.01632627  1  0.100099  0.000394  0.931251  0.001  0.106388  0.000506  0.995669  0.001  0.107586  0.000541  0.993328  0.001  0.128573  0.105301  -0.000362  0.997939  0.0
H  H30  1  0.73448125  0.11202130  0.33503197  1  0.10089  -2.3e-05  0.936654  0.0  0.113252  -1.2e-05  0.997704  0.0  0.116948  -1.2e-05  0.994994  0.0  0.10788  0.110287  9e-06  1.000226  0.0
H  H31  1  0.26552666  0.88798573  0.66498181  1  0.100978  2.3e-05  0.936599  0.0  0.113359  1.2e-05  0.997611  0.0  0.117065  1.2e-05  0.994897  0.0  0.107913  0.110391  -9e-06  1.000132  0.0
H  H32  1  0.80938165  0.41114279  0.48484940  1  0.095267  -1.7e-05  0.952253  0.0  0.107588  -1.5e-05  1.013262  0.0  0.110614  -1.4e-05  1.011745  0.0  0.105447  0.105301  1e-05  1.01464  0.0
H  H33  1  0.19064598  0.58886684  0.51515727  1  0.095262  1.7e-05  0.952303  0.0  0.107609  1.5e-05  1.013293  0.0  0.110634  1.4e-05  1.011781  0.0  0.10546  0.105322  -1e-05  1.014666  0.0
H  H34  1  0.93903074  0.10655254  0.47917421  1  0.105015  -5.5e-05  0.955927  0.0  0.116379  -5.8e-05  1.01602  0.0  0.11881  -5.1e-05  1.015906  0.0  0.109415  0.114699  4.6e-05  1.01616  0.0
H  H35  1  0.06095947  0.89345370  0.52083642  1  0.104978  5.7e-05  0.955946  0.0  0.116344  5.8e-05  1.01601  0.0  0.118774  5.1e-05  1.015897  0.0  0.109381  0.114664  -4.6e-05  1.016151  0.0
H  H36  1  0.10753415  0.10520755  0.67440650  1  0.089189  -0.000264  0.956164  0.0  0.097069  -0.000301  1.020996  0.0  0.099514  -0.000311  1.017751  0.0  0.121921  0.095178  0.000226  1.023654  0.0
H  H37  1  0.89245000  0.89479081  0.32560173  1  0.089171  0.000263  0.956206  0.0  0.097026  0.000301  1.021017  0.0  0.09947  0.000311  1.017773  0.0  0.121921  0.09512  -0.000226  1.023691  0.0
H  H38  1  0.11198751  0.48056167  0.89225138  1  0.104281  -0.00032  0.926536  0.0  0.113525  -0.000406  0.984114  0.0  0.115676  -0.000413  0.981564  -0.001  0.12871  0.111641  0.000308  0.98651  0.0
H  H39  1  0.88800955  0.51944053  0.10776129  1  0.104277  0.000318  0.92669  0.0  0.113584  0.000405  0.984176  0.0  0.115737  0.000413  0.981631  0.001  0.128726  0.111699  -0.000308  0.986566  0.0
H  H40  1  0.94566938  0.49971072  0.70524450  1  0.131036  -0.000132  0.983694  0.0  0.13739  -0.00015  1.045587  0.0  0.141404  -0.000143  1.043808  0.0  0.111091  0.134606  0.000112  1.046918  0.0
H  H41  1  0.05433357  0.50029633  0.29476616  1  0.131081  0.000132  0.983614  0.0  0.137378  0.00015  1.045558  0.0  0.141393  0.000143  1.043772  0.0  0.11111  0.134596  -0.000112  1.046881  0.0
C  C42  1  0.50196030  0.26149189  0.80890662  1  0.696084  0.000753  3.806404  0.0  0.658249  0.001104  4.106681  0.001  0.696099  0.001091  4.10193  0.001  0.218577  0.632409  -0.000847  4.108331  -0.001
C  C43  1  0.49803681  0.73850515  0.19108903  1  0.695849  -0.000757  3.806797  0.0  0.658111  -0.001104  4.106942  -0.001  0.69595  -0.001095  4.10219  -0.001  0.218444  0.632274  0.000847  4.108577  0.001
C  C44  1  0.56287204  0.20181532  0.69337993  1  -0.308026  -0.000126  3.682679  0.0  -0.35085  -0.000288  3.91774  -0.001  -0.356812  -0.000133  3.924168  0.0  -0.161043  -0.34636  0.000337  3.912259  0.001
C  C45  1  0.43712114  0.79818671  0.30661432  1  -0.308151  0.000127  3.682657  0.0  -0.350978  0.000288  3.917768  0.001  -0.356898  0.000132  3.924142  0.0  -0.161088  -0.346489  -0.000337  3.912291  -0.001
C  C46  1  0.45481697  0.21318472  0.58167185  1  0.124333  3.7e-05  3.741142  0.0  0.146025  4.3e-05  3.973184  0.0  0.148553  4e-05  3.997055  0.0  -0.007606  0.144313  -1.9e-05  3.956872  0.0
C  C47  1  0.54516493  0.78681154  0.41832350  1  0.124576  -9e-06  3.740977  0.0  0.146003  -4.3e-05  3.973336  0.0  0.148517  -3.9e-05  3.997205  0.0  -0.007619  0.144292  1.9e-05  3.957029  0.0
C  C48  1  0.34323145  0.09942195  0.47758493  1  -0.146287  -5.8e-05  3.767511  0.0  -0.164732  -3.6e-05  4.017975  0.0  -0.169505  -2.2e-05  4.040029  0.0  -0.10087  -0.161513  3.2e-05  4.002679  0.0
C  C49  1  0.65675980  0.90057312  0.52240599  1  -0.146379  3.5e-05  3.767604  0.0  -0.16475  3.6e-05  4.018151  0.0  -0.169524  2.2e-05  4.04021  0.0  -0.100859  -0.161533  -3.1e-05  4.002855  0.0
C  C50  1  0.24126218  0.10761064  0.37429158  1  -0.081639  2.6e-05  3.75962  0.0  -0.105127  4e-06  4.007747  0.0  -0.104612  3e-06  4.029474  0.0  -0.09176  -0.104923  -3e-06  3.992368  0.0
C  C51  1  0.75872794  0.89238743  0.62569933  1  -0.081557  0.0  3.759734  0.0  -0.105023  -3e-06  4.00786  0.0  -0.104506  -3e-06  4.029584  0.0  -0.09174  -0.104817  3e-06  3.99247  0.0
C  C52  1  0.24603891  0.23117572  0.37339635  1  -0.073763  -0.000161  3.758462  0.0  -0.053569  -0.000139  3.995458  0.0  -0.062553  -0.000116  4.02055  0.0  -0.024139  -0.047474  0.000135  3.977931  0.0
C  C53  1  0.75394297  0.76882051  0.62659728  1  -0.073216  0.000133  3.757794  0.0  -0.053256  0.000138  3.995005  0.0  -0.06224  0.000116  4.020099  0.0  -0.023958  -0.047163  -0.000135  3.977478  0.0
C  C54  1  0.35698174  0.34521529  0.47788610  1  -0.073069  9.8e-05  3.75604  0.0  -0.095676  7.9e-05  4.006245  0.0  -0.094925  6.7e-05  4.027361  0.0  -0.09056  -0.095836  -5.9e-05  3.99112  0.0
C  C55  1  0.64298788  0.65478117  0.52211216  1  -0.073178  -6.1e-05  3.755975  0.0  -0.095765  -8e-05  4.006217  0.0  -0.095012  -6.7e-05  4.027327  0.0  -0.090724  -0.095927  5.9e-05  3.991097  0.0
C  C56  1  0.46089566  0.33708764  0.58021370  1  -0.133278  -6e-05  3.717065  0.0  -0.151172  -4.5e-05  3.963977  0.0  -0.156502  -3.6e-05  3.986171  0.0  -0.097682  -0.14725  5.2e-05  3.948518  0.0
C  C57  1  0.53907749  0.66290574  0.41977971  1  -0.133839  2.3e-05  3.717251  0.0  -0.151473  4.5e-05  3.964201  0.0  -0.156808  3.3e-05  3.986409  0.0  -0.097786  -0.147546  -5.2e-05  3.948716  0.0
C  C58  1  0.14158874  0.24321943  0.26111797  1  0.649286  0.000102  3.912747  0.0  0.594018  0.000115  4.218524  0.0  0.627777  9.9e-05  4.211898  0.0  0.203226  0.571548  -5.7e-05  4.221537  0.0
C  C59  1  0.85839946  0.75677168  0.73886961  1  0.64901  -0.0001  3.912942  0.0  0.593918  -0.000116  4.21854  0.0  0.627678  -9.6e-05  4.211914  0.0  0.203263  0.571449  5.7e-05  4.221554  0.0
C  C60  1  0.52153519  0.36298580  0.15564992  1  0.12062  0.000633  3.685856  0.001  0.089047  -0.000557  3.943671  0.0  0.100136  -0.000194  3.96394  0.0  0.047245  0.081006  0.000589  3.931519  0.0
C  C61  1  0.47847568  0.63701700  0.84434663  1  0.120687  -0.000629  3.686156  -0.001  0.089021  0.000557  3.943977  0.0  0.100116  0.000194  3.964262  0.0  0.047315  0.080982  -0.000588  3.93181  0.0
C  C62  1  0.63383167  0.35248936  0.25079934  1  -0.149048  -0.002007  3.692169  -0.002  -0.16482  -0.001576  3.931051  -0.002  -0.173363  -0.001773  3.952151  -0.002  -0.077746  -0.159654  0.001107  3.917539  0.001
C  C63  1  0.36618014  0.64751546  0.74920138  1  -0.148936  0.002004  3.692087  0.002  -0.164684  0.001575  3.930965  0.002  -0.173258  0.001772  3.952043  0.002  -0.077698  -0.159508  -0.001106  3.917455  -0.001
C  C64  1  0.62155465  0.22764532  0.25251865  1  0.146247  0.001281  3.783199  0.001  0.161085  0.00056  4.012483  0.0  0.168468  0.000794  4.032139  0.001  0.01413  0.155893  -0.000363  4.000056  0.0
C  C65  1  0.37846636  0.77236339  0.74748524  1  0.146318  -0.001281  3.782946  -0.001  0.161181  -0.00056  4.01217  0.0  0.168565  -0.000794  4.031827  -0.001  0.014121  0.155988  0.000363  3.99973  0.0
C  C66  1  0.49355293  0.11686593  0.15306315  1  -0.149145  -0.001582  3.667441  -0.002  -0.167605  -0.001087  3.914221  -0.001  -0.176501  -0.001276  3.93342  -0.001  -0.072747  -0.161979  0.000752  3.90234  0.001
C  C67  1  0.50647331  0.88314068  0.84693811  1  -0.149277  0.001581  3.667477  0.002  -0.167787  0.001087  3.914294  0.001  -0.176688  0.001276  3.933501  0.001  -0.072757  -0.162155  -0.000752  3.902398  -0.001
C  C68  1  0.38345978  0.13422563  0.06090834  1  0.131441  0.001486  3.659178  0.001  0.0988  0.000297  3.91916  0.001  0.110924  0.000672  3.938505  0.001  0.054777  0.089995  -0.000123  3.907408  0.0
C  C69  1  0.61656151  0.86577012  0.93909054  1  0.131467  -0.001484  3.65935  -0.001  0.098785  -0.000296  3.919278  -0.001  0.110905  -0.000671  3.938627  -0.001  0.054736  0.089982  0.000123  3.907508  0.0
C  C70  1  0.73254955  0.21248111  0.35347644  1  -0.072743  0.000754  3.675037  0.001  -0.097357  -2.7e-05  3.929304  0.0  -0.097645  6.5e-05  3.94534  0.0  -0.07169  -0.098621  4.4e-05  3.920729  0.0
C  C71  1  0.26746075  0.78752580  0.64653076  1  -0.072974  -0.000742  3.6749  -0.001  -0.097597  2.6e-05  3.929171  0.0  -0.097895  -6.4e-05  3.945211  0.0  -0.071797  -0.098857  -4.4e-05  3.920582  0.0
C  C72  1  0.82170542  0.31340242  0.46674480  1  -0.09597  -3.5e-05  3.704213  0.0  -0.116129  0.000147  3.956084  0.0  -0.119657  0.000196  3.97466  0.0  -0.077471  -0.114419  -0.000101  3.945356  0.0
C  C73  1  0.17831104  0.68660441  0.53326308  1  -0.095852  2.6e-05  3.704122  0.0  -0.11603  -0.000146  3.956018  0.0  -0.119561  -0.000196  3.974603  0.0  -0.077424  -0.114322  0.000101  3.945281  0.0
C  C74  1  0.92553692  0.30396168  0.57435393  1  0.132745  0.001707  3.811854  0.001  0.14556  0.000353  4.045415  0.0  0.153955  0.000611  4.064254  0.0  0.005367  0.139237  -0.000191  4.03378  0.0
C  C75  1  0.07446714  0.69604236  0.42565503  1  0.13261  -0.001698  3.81172  -0.001  0.145375  -0.000354  4.045354  0.0  0.153765  -0.000611  4.064202  0.0  0.005303  0.139054  0.000191  4.033704  0.0
C  C76  1  0.97283647  0.19178719  0.56816647  1  -0.156274  -0.001736  3.714499  -0.002  -0.172005  -0.000727  3.958843  -0.001  -0.181137  -0.000891  3.980132  -0.001  -0.077681  -0.166301  0.000513  3.945541  0.001
C  C77  1  0.02714738  0.80821321  0.43184580  1  -0.156151  0.001714  3.714448  0.002  -0.171835  0.000727  3.958702  0.001  -0.180964  0.000891  3.979993  0.001  -0.077595  -0.166136  -0.000513  3.945391  -0.001
C  C78  1  0.06690087  0.18963425  0.67645187  1  0.117874  0.001537  3.687595  0.001  0.087336  -3.1e-05  3.940961  0.0  0.098207  0.000328  3.961451  0.0  0.043546  0.079116  0.00017  3.928891  0.0
C  C79  1  0.93307550  0.81036329  0.32356118  1  0.117865  -0.001517  3.688119  -0.001  0.087397  3.1e-05  3.941399  0.0  0.098271  -0.000328  3.961887  0.0  0.043537  0.079202  -0.000171  3.929288  0.0
C  C80  1  0.07243088  0.40051305  0.79895113  1  0.133431  0.001209  3.649925  0.001  0.103975  -0.000515  3.902674  0.0  0.116534  -0.000156  3.919689  0.0  0.05438  0.094573  0.000547  3.893276  0.0
C  C81  1  0.92756667  0.59949304  0.20105518  1  0.133182  -0.001197  3.649848  -0.001  0.103727  0.000515  3.902591  0.0  0.116278  0.000156  3.91961  0.0  0.054244  0.094323  -0.000547  3.893176  0.0
C  C82  1  0.97942354  0.41001744  0.69373721  1  -0.175572  -0.001909  3.679206  -0.002  -0.190349  -0.000968  3.922956  -0.001  -0.198284  -0.001134  3.938401  -0.001  -0.083033  -0.185493  0.000699  3.913836  0.001
C  C83  1  0.02058641  0.58999145  0.30626888  1  -0.175441  0.001898  3.678947  0.002  -0.19018  0.000969  3.922752  0.001  -0.198108  0.001134  3.938195  0.001  -0.082971  -0.185328  -0.000698  3.91362  -0.001
N  N84  1  0.39638671  0.25558094  0.06267219  1  -0.25101  -0.014131  3.394951  -0.014  -0.202469  -0.012484  3.685404  -0.011  -0.243904  -0.013365  3.70995  -0.011  -0.344217  -0.17603  0.008924  3.669848  0.008
N  N85  1  0.60362104  0.74441498  0.93732518  1  -0.251056  0.014118  3.395098  0.014  -0.202454  0.012479  3.685504  0.011  -0.243881  0.01336  3.710041  0.011  -0.344283  -0.176016  -0.00892  3.66991  -0.008
N  N86  1  0.11727829  0.29204643  0.79118039  1  -0.241699  -0.012497  3.330612  -0.011  -0.19252  -0.010328  3.620242  -0.008  -0.232298  -0.011194  3.642204  -0.008  -0.336022  -0.16752  0.00746  3.607485  0.006
N  N87  1  0.88272054  0.70795970  0.20883120  1  -0.241509  0.012474  3.330765  0.011  -0.192442  0.010323  3.620474  0.008  -0.232222  0.011191  3.642443  0.008  -0.335965  -0.167438  -0.007456  3.607667  -0.006
O  O88  1  0.36523678  0.18143581  0.81745896  1  -0.559796  0.01036  2.06098  0.01  -0.537232  0.010927  2.345338  0.01  -0.593114  0.011578  2.340468  0.01  -0.294805  -0.496372  -0.008117  2.345837  -0.008
O  O89  1  0.63475662  0.81856127  0.18253542  1  -0.559728  -0.010326  2.061187  -0.01  -0.537186  -0.010916  2.345488  -0.01  -0.593066  -0.011557  2.340619  -0.01  -0.294768  -0.496323  0.008107  2.34595  0.008
O  O90  1  0.57267744  0.38071974  0.88341731  1  -0.617737  -0.00194  1.985492  -0.002  -0.578465  -0.001962  2.224932  -0.002  -0.606429  -0.00174  2.210046  -0.002  -0.301816  -0.5598  0.001765  2.236166  0.002
O  O91  1  0.42732464  0.61927728  0.11658317  1  -0.617558  0.001938  1.985604  0.002  -0.578312  0.001961  2.224997  0.002  -0.606278  0.001739  2.210122  0.002  -0.3017  -0.559643  -0.001763  2.236218  -0.002
O  O92  1  0.02563128  0.13997346  0.17492131  1  -0.651893  -6.6e-05  1.996712  0.0  -0.589682  -0.000108  2.216645  0.0  -0.616776  -8.4e-05  2.206648  0.0  -0.321529  -0.570733  9.3e-05  2.22287  0.0
O  O93  1  0.97436370  0.86001355  0.82506317  1  -0.651847  6.5e-05  1.996994  0.0  -0.589708  0.000108  2.216881  0.0  -0.616803  8.4e-05  2.206879  0.0  -0.321553  -0.570751  -9.3e-05  2.223093  0.0
O  O94  1  0.17914984  0.35828342  0.25926627  1  -0.649094  -5.5e-05  2.004969  0.0  -0.591672  -0.000118  2.234311  0.0  -0.616343  -0.000123  2.224003  0.0  -0.327942  -0.574263  2.7e-05  2.240578  0.0
O  O95  1  0.82083152  0.64170889  0.74073030  1  -0.649129  5.2e-05  2.004873  0.0  -0.591717  0.000118  2.234141  0.0  -0.61639  0.000121  2.223835  0.0  -0.32804  -0.574307  -2.6e-05  2.240409  0.0
O  O96  1  0.16525783  0.39818175  0.05366692  1  -0.748095  0.017068  1.973609  0.017  -0.715895  0.014231  2.191555  0.013  -0.762014  0.014928  2.156014  0.014  -0.549893  -0.681785  -0.010764  2.214464  -0.01
O  O97  1  0.83474331  0.60182132  0.94634053  1  -0.748079  -0.017073  1.973588  -0.017  -0.71587  -0.014229  2.191597  -0.013  -0.761983  -0.014933  2.156071  -0.014  -0.549902  -0.681755  0.010755  2.214482  0.01
O  O98  1  0.96018799  0.10997294  0.92435390  1  -0.842892  -0.007408  1.788169  -0.008  -0.802253  -0.007405  1.949173  -0.008  -0.822163  -0.006859  1.911449  -0.007  -0.614484  -0.789226  0.006426  1.976055  0.007
O  O99  1  0.03984582  0.89002049  0.07563202  1  -0.842402  0.0074  1.78865  0.008  -0.801745  0.0074  1.949554  0.008  -0.821625  0.006856  1.911792  0.007  -0.614303  -0.788715  -0.006419  1.976429  -0.007
