# generated using pymatgen
data_H15PbC5S2NO4
_symmetry_space_group_name_H-M   'P 1'
_cell_length_a   7.57111950
_cell_length_b   10.49394065
_cell_length_c   14.81117185
_cell_angle_alpha   89.99900645
_cell_angle_beta   101.56820448
_cell_angle_gamma   89.99948742
_symmetry_Int_Tables_number   1
_chemical_formula_structural   H15PbC5S2NO4
_chemical_formula_sum   'H60 Pb4 C20 S8 N4 O16'
_cell_volume   1152.85670674
_cell_formula_units_Z   4
loop_
 _symmetry_equiv_pos_site_id
 _symmetry_equiv_pos_as_xyz
  1  'x, y, z'
loop_
 _atom_site_type_symbol
 _atom_site_label
 _atom_site_symmetry_multiplicity
 _atom_site_fract_x
 _atom_site_fract_y
 _atom_site_fract_z
 _atom_site_occupancy
 _atom_site_hle17_bader_spin_density
 _atom_site_hle17_ddec_charge
 _atom_site_hle17_ddec_spin_density
 _atom_site_hle17_ddec_sum_bond_order
 _atom_site_hle17_magmom
 _atom_site_hse06_10hf_bader_spin_density
 _atom_site_hse06_10hf_ddec_charge
 _atom_site_hse06_10hf_ddec_spin_density
 _atom_site_hse06_10hf_ddec_sum_bond_order
 _atom_site_hse06_10hf_magmom
 _atom_site_hse06_bader_spin_density
 _atom_site_hse06_ddec_charge
 _atom_site_hse06_ddec_spin_density
 _atom_site_hse06_ddec_sum_bond_order
 _atom_site_hse06_magmom
 _atom_site_pbe_bader_spin_density
 _atom_site_pbe_cm5_charge
 _atom_site_pbe_ddec_charge
 _atom_site_pbe_ddec_spin_density
 _atom_site_pbe_ddec_sum_bond_order
 _atom_site_pbe_magmom
H  H0  1  0.27402003  0.47988829  0.48034909  1  0  0.162182  0  0.943627  0  0  0.180176  0  0.999889  0  0  0.182874  0  0.998867  0  0  0.109463  0.177782  0  1.001366  0
H  H1  1  0.72596394  0.97988865  0.01963689  1  0  0.16205  0  0.943717  0  0  0.180055  0  0.999985  0  0  0.182751  0  0.998968  0  0  0.109389  0.177661  0  1.00146  0
H  H2  1  0.72597768  0.52010864  0.51964956  1  0  0.162203  0  0.94361  0  0  0.180183  0  0.999882  0  0  0.182881  0  0.998861  0  0  0.10946  0.177789  0  1.001357  0
H  H3  1  0.27403369  0.02010160  0.98035567  1  0  0.162158  0  0.943614  0  0  0.180115  0  0.999957  0  0  0.18281  0  0.99894  0  0  0.109436  0.177722  0  1.001431  0
H  H4  1  0.17295099  0.32378802  0.48274374  1  0  0.16652  0  0.949897  0  0  0.182507  0  1.007997  0  0  0.185216  0  1.007462  0  0  0.110183  0.18041  0  1.008631  0
H  H5  1  0.82705083  0.82379257  0.01725877  1  0  0.166504  0  0.949898  0  0  0.182501  0  1.007995  0  0  0.18521  0  1.007458  0  0  0.110219  0.180405  0  1.008626  0
H  H6  1  0.82704817  0.67621367  0.51726181  1  0  0.166563  0  0.949869  0  0  0.182551  0  1.007961  0  0  0.185262  0  1.007422  0  0  0.110223  0.180456  0  1.008591  0
H  H7  1  0.17295495  0.17619673  0.98273865  1  0  0.166408  0  0.949936  0  0  0.182434  0  1.008004  0  0  0.185144  0  1.007466  0  0  0.110156  0.180336  0  1.008639  0
H  H8  1  0.41010735  0.34661703  0.52826396  1  0  0.164525  0  0.931327  0  0  0.18363  0  0.98525  0  0  0.186294  0  0.984568  0  0  0.111613  0.181515  0  0.986237  0
H  H9  1  0.58988582  0.84661767  0.97172598  1  0  0.164568  0  0.931169  0  0  0.183638  0  0.985187  0  0  0.186311  0  0.984474  0  0  0.111607  0.181524  0  0.986174  0
H  H10  1  0.58989174  0.65338180  0.47173685  1  0  0.164548  0  0.931322  0  0  0.183652  0  0.985241  0  0  0.186315  0  0.984559  0  0  0.111619  0.181536  0  0.986228  0
H  H11  1  0.41011721  0.15336782  0.02826712  1  0  0.164561  0  0.931308  0  0  0.183636  0  0.985295  0  0  0.18631  0  0.984583  0  0  0.111587  0.181522  0  0.986281  0
H  H12  1  0.05017823  0.01253600  0.20447334  1  0  0.181811  0  0.944997  0  0  0.197005  0  1.001526  0  0  0.200939  0  0.999184  0  0  0.111784  0.194177  0  1.003256  0
H  H13  1  0.94981297  0.51253106  0.29552454  1  0  0.181832  0  0.945087  0  0  0.19701  0  1.001627  0  0  0.200942  0  0.999287  0  0  0.111772  0.194182  0  1.003356  0
H  H14  1  0.94981266  0.98747236  0.79551856  1  0  0.181912  0  0.944962  0  0  0.197019  0  1.001578  0  0  0.200955  0  0.999233  0  0  0.111799  0.19419  0  1.003308  0
H  H15  1  0.05018489  0.48747063  0.70448493  1  0  0.181935  0  0.944913  0  0  0.197002  0  1.001576  0  0  0.200935  0  0.999236  0  0  0.111815  0.194175  0  1.003303  0
H  H16  1  0.12695970  0.17507730  0.19438503  1  0  0.167402  0  0.938634  0  0  0.182687  0  0.99693  0  0  0.185788  0  0.995697  0  0  0.109726  0.180478  0  0.997763  0
H  H17  1  0.87303273  0.67506497  0.30562177  1  0  0.167391  0  0.938659  0  0  0.182706  0  0.996897  0  0  0.185797  0  0.995675  0  0  0.10976  0.180498  0  0.997729  0
H  H18  1  0.87303394  0.82493677  0.80561120  1  0  0.167445  0  0.938657  0  0  0.182759  0  0.996872  0  0  0.185855  0  0.995651  0  0  0.109784  0.180552  0  0.997705  0
H  H19  1  0.12696915  0.32493386  0.69438607  1  0  0.16743  0  0.938667  0  0  0.182756  0  0.996878  0  0  0.18585  0  0.995656  0  0  0.109774  0.180547  0  0.99771  0
H  H20  1  0.28110943  0.04286908  0.19542957  1  0  0.177462  0  0.937127  0  0  0.194629  0  0.991941  0  0  0.197788  0  0.99074  0  0  0.112857  0.19232  0  0.992912  0
H  H21  1  0.71887709  0.54286633  0.30456139  1  0  0.177426  0  0.937156  0  0  0.19463  0  0.99193  0  0  0.197791  0  0.990725  0  0  0.112842  0.192319  0  0.992902  0
H  H22  1  0.71888279  0.95714119  0.80456178  1  0  0.177392  0  0.937156  0  0  0.194605  0  0.991928  0  0  0.197765  0  0.990724  0  0  0.11285  0.192296  0  0.992893  0
H  H23  1  0.28111927  0.45713631  0.69543645  1  0  0.177433  0  0.93717  0  0  0.194642  0  0.991926  0  0  0.197803  0  0.990722  0  0  0.112847  0.192331  0  0.992898  0
H  H24  1  0.84729113  0.89979626  0.41491047  1  0  0.146828  0  1.006443  0  0  0.163693  0  1.06394  0  0  0.166368  0  1.063987  0  0  0.084369  0.161764  0  1.063974  0
H  H25  1  0.15270792  0.39980158  0.08508813  1  0  0.146805  0  1.006452  0  0  0.163648  0  1.063982  0  0  0.166323  0  1.06403  0  0  0.084348  0.161743  0  1.063989  0
H  H26  1  0.15270788  0.10020447  0.58508426  1  0  0.146773  0  1.006394  0  0  0.163631  0  1.0639  0  0  0.166307  0  1.063947  0  0  0.084346  0.161725  0  1.063906  0
H  H27  1  0.84728987  0.60020392  0.91491661  1  0  0.146799  0  1.00637  0  0  0.163651  0  1.063883  0  0  0.166327  0  1.063927  0  0  0.084374  0.161745  0  1.063894  0
H  H28  1  0.64122719  0.91620871  0.45854079  1  0  0.157191  0  1.009806  0  0  0.168146  0  1.075685  0  0  0.171214  0  1.075748  0  0  0.084526  0.165711  0  1.076249  0
H  H29  1  0.35876881  0.41622046  0.04145325  1  0  0.157132  0  1.009755  0  0  0.168085  0  1.075647  0  0  0.171152  0  1.075714  0  0  0.084487  0.165652  0  1.07621  0
H  H30  1  0.35877453  0.08377392  0.54145556  1  0  0.157167  0  1.00976  0  0  0.168094  0  1.075662  0  0  0.171161  0  1.075724  0  0  0.0845  0.165665  0  1.076224  0
H  H31  1  0.64123433  0.58378314  0.95854796  1  0  0.157241  0  1.009699  0  0  0.16814  0  1.075662  0  0  0.171207  0  1.075728  0  0  0.084523  0.165708  0  1.076224  0
H  H32  1  0.63150264  0.88310350  0.33762450  1  0  0.152043  0  1.014868  0  0  0.164518  0  1.078867  0  0  0.167202  0  1.079439  0  0  0.083362  0.162584  0  1.078631  0
H  H33  1  0.36850610  0.38310269  0.16237189  1  0  0.152021  0  1.014811  0  0  0.164489  0  1.078826  0  0  0.167174  0  1.079397  0  0  0.083327  0.162554  0  1.078593  0
H  H34  1  0.36850580  0.11689343  0.66237117  1  0  0.152039  0  1.014805  0  0  0.164507  0  1.078814  0  0  0.167192  0  1.079383  0  0  0.083315  0.162571  0  1.078577  0
H  H35  1  0.63149978  0.61690471  0.83763365  1  0  0.152007  0  1.014819  0  0  0.164517  0  1.078792  0  0  0.167203  0  1.079358  0  0  0.083338  0.162583  0  1.078559  0
H  H36  1  0.93504740  0.21393019  0.53156835  1  0  0.147099  0  1.012111  0  0  0.165682  0  1.068427  0  0  0.168308  0  1.068549  0  0  0.085884  0.163842  0  1.068364  0
H  H37  1  0.06496030  0.71392280  0.96842332  1  0  0.147099  0  1.012129  0  0  0.165696  0  1.06842  0  0  0.168324  0  1.068538  0  0  0.085908  0.163868  0  1.068345  0
H  H38  1  0.06495305  0.78607341  0.46843327  1  0  0.147149  0  1.012115  0  0  0.16575  0  1.068406  0  0  0.16838  0  1.068521  0  0  0.085902  0.163897  0  1.068358  0
H  H39  1  0.93504818  0.28607508  0.03157505  1  0  0.147159  0  1.012069  0  0  0.165744  0  1.068365  0  0  0.168373  0  1.068479  0  0  0.085892  0.163903  0  1.068306  0
H  H40  1  0.84073595  0.35416838  0.46826659  1  0  0.1438  0  1.001743  0  0  0.162915  0  1.056236  0  0  0.164947  0  1.057236  0  0  0.083497  0.161411  0  1.05594  0
H  H41  1  0.15924084  0.85417013  0.03171822  1  0  0.143865  0  1.001594  0  0  0.162924  0  1.056161  0  0  0.164955  0  1.057163  0  0  0.083469  0.161423  0  1.055864  0
H  H42  1  0.15925905  0.64582950  0.53173045  1  0  0.143857  0  1.00173  0  0  0.162979  0  1.056201  0  0  0.165011  0  1.057201  0  0  0.083515  0.161477  0  1.055904  0
H  H43  1  0.84075279  0.14583156  0.96827733  1  0  0.143845  0  1.001664  0  0  0.162912  0  1.056209  0  0  0.164943  0  1.057211  0  0  0.083459  0.16141  0  1.055912  0
H  H44  1  0.71001572  0.26223873  0.53548830  1  0  0.157997  0  0.99556  0  0  0.176949  0  1.051328  0  0  0.179091  0  1.05268  0  0  0.0886  0.175395  0  1.050579  0
H  H45  1  0.28999125  0.76223954  0.96451351  1  0  0.157991  0  0.995553  0  0  0.176957  0  1.051308  0  0  0.179101  0  1.052656  0  0  0.088607  0.175405  0  1.05056  0
H  H46  1  0.28998476  0.73776296  0.46451603  1  0  0.158049  0  0.995534  0  0  0.177  0  1.051301  0  0  0.179142  0  1.052655  0  0  0.088629  0.175447  0  1.050549  0
H  H47  1  0.71001726  0.23776405  0.03548689  1  0  0.157971  0  0.995553  0  0  0.176904  0  1.051361  0  0  0.179046  0  1.052712  0  0  0.088592  0.175351  0  1.050613  0
H  H48  1  0.82322195  0.19852938  0.21111673  1  0  0.156583  0  0.995886  0  0  0.175075  0  1.051096  0  0  0.17727  0  1.052292  0  0  0.088339  0.17347  0  1.050455  0
H  H49  1  0.17678204  0.69854474  0.28888011  1  0  0.15667  0  0.995716  0  0  0.17516  0  1.05093  0  0  0.177358  0  1.052123  0  0  0.088385  0.173552  0  1.0503  0
H  H50  1  0.17677714  0.80146849  0.78888408  1  0  0.156578  0  0.995841  0  0  0.175069  0  1.051058  0  0  0.177265  0  1.052251  0  0  0.088331  0.173463  0  1.050422  0
H  H51  1  0.82321706  0.30146457  0.71112205  1  0  0.156606  0  0.995788  0  0  0.175077  0  1.051038  0  0  0.177274  0  1.052233  0  0  0.088352  0.173471  0  1.050396  0
H  H52  1  0.59855181  0.13265145  0.18424172  1  0  0.146994  0  1.017064  0  0  0.15916  0  1.084052  0  0  0.161763  0  1.084612  0  0  0.080817  0.157084  0  1.08416  0
H  H53  1  0.40144534  0.63265044  0.31575863  1  0  0.147022  0  1.017167  0  0  0.159208  0  1.084132  0  0  0.161814  0  1.084686  0  0  0.080829  0.157129  0  1.084242  0
H  H54  1  0.40144189  0.86735500  0.81575856  1  0  0.146957  0  1.017202  0  0  0.159138  0  1.084168  0  0  0.161744  0  1.084728  0  0  0.080816  0.157061  0  1.084274  0
H  H55  1  0.59854707  0.36735125  0.68424624  1  0  0.146958  0  1.017166  0  0  0.159155  0  1.084129  0  0  0.161761  0  1.084686  0  0  0.080811  0.157077  0  1.084234  0
H  H56  1  0.63489164  0.29758893  0.22101305  1  0  0.16576  0  1.01021  0  0  0.179381  0  1.069668  0  0  0.18258  0  1.069627  0  0  0.087452  0.176993  0  1.070101  0
H  H57  1  0.36512137  0.79759095  0.27898549  1  0  0.165793  0  1.010215  0  0  0.179429  0  1.069644  0  0  0.182629  0  1.069603  0  0  0.087482  0.177055  0  1.070061  0
H  H58  1  0.36511160  0.70241371  0.77899560  1  0  0.165773  0  1.010224  0  0  0.179403  0  1.069671  0  0  0.182601  0  1.069631  0  0  0.087462  0.177029  0  1.07009  0
H  H59  1  0.63488590  0.20241170  0.72102289  1  0  0.165725  0  1.010224  0  0  0.179386  0  1.069625  0  0  0.182586  0  1.069586  0  0  0.087456  0.17699  0  1.070065  0
Pb  Pb60  1  0.71289469  0.13684741  0.37135415  1  0  1.273583  0  2.512398  0  0  1.154294  0  2.996217  0  0  1.181522  0  2.986856  0  0  0.553739  1.136098  0  3.002189  0
Pb  Pb61  1  0.28711190  0.63685932  0.12865249  1  0  1.273621  0  2.512242  0  0  1.154355  0  2.996025  0  0  1.181581  0  2.986652  0  0  0.5538  1.13616  0  3.002007  0
Pb  Pb62  1  0.28711122  0.86314189  0.62865274  1  0  1.273579  0  2.512414  0  0  1.154312  0  2.996212  0  0  1.181542  0  2.986841  0  0  0.553744  1.136128  0  3.002183  0
Pb  Pb63  1  0.71288459  0.36315475  0.87135482  1  0  1.273518  0  2.512426  0  0  1.154269  0  2.9962  0  0  1.18148  0  2.986846  0  0  0.553761  1.136076  0  3.002168  0
C  C64  1  0.29405984  0.37686978  0.47606463  1  0  -0.485302  0  3.543933  0  0  -0.559987  0  3.785301  0  0  -0.565846  0  3.785806  0  0  -0.2298  -0.55549  0  3.785706  0
C  C65  1  0.70593147  0.87687112  0.02392876  1  0  -0.485215  0  3.54377  0  0  -0.559906  0  3.78509  0  0  -0.56576  0  3.785603  0  0  -0.229812  -0.555408  0  3.785494  0
C  C66  1  0.70593789  0.62312810  0.52393538  1  0  -0.485368  0  3.543935  0  0  -0.560042  0  3.78529  0  0  -0.565902  0  3.785794  0  0  -0.229826  -0.555545  0  3.785698  0
C  C67  1  0.29407291  0.12312009  0.97606515  1  0  -0.485223  0  3.543978  0  0  -0.559915  0  3.785349  0  0  -0.565773  0  3.785865  0  0  -0.229769  -0.555416  0  3.785755  0
C  C68  1  0.16415361  0.07911672  0.22069627  1  0  -0.503338  0  3.524026  0  0  -0.574689  0  3.76263  0  0  -0.581517  0  3.761948  0  0  -0.230211  -0.569799  0  3.763144  0
C  C69  1  0.83584044  0.57911194  0.27930241  1  0  -0.50344  0  3.524229  0  0  -0.57482  0  3.76272  0  0  -0.581636  0  3.762043  0  0  -0.230233  -0.569931  0  3.763238  0
C  C70  1  0.83583865  0.92089354  0.77929711  1  0  -0.503398  0  3.524112  0  0  -0.574703  0  3.76259  0  0  -0.581527  0  3.761917  0  0  -0.230251  -0.569812  0  3.763106  0
C  C71  1  0.16416137  0.42088974  0.72070070  1  0  -0.503479  0  3.524023  0  0  -0.574778  0  3.762581  0  0  -0.581599  0  3.761907  0  0  -0.230262  -0.56989  0  3.763096  0
C  C72  1  0.70582266  0.92906045  0.39970080  1  0  -0.63993  0  3.453706  0  0  -0.681422  0  3.692557  0  0  -0.691361  0  3.699685  0  0  -0.325566  -0.674351  0  3.688186  0
C  C73  1  0.29417449  0.42906545  0.10029657  1  0  -0.639854  0  3.453433  0  0  -0.681325  0  3.692325  0  0  -0.691264  0  3.699452  0  0  -0.3255  -0.674274  0  3.687908  0
C  C74  1  0.29417772  0.07093361  0.60029609  1  0  -0.639894  0  3.453366  0  0  -0.681329  0  3.692281  0  0  -0.691265  0  3.699403  0  0  -0.325503  -0.674289  0  3.68788  0
C  C75  1  0.70582328  0.57093624  0.89970681  1  0  -0.639933  0  3.453487  0  0  -0.681413  0  3.692399  0  0  -0.691351  0  3.699519  0  0  -0.32556  -0.674372  0  3.688  0
C  C76  1  0.81311143  0.25985468  0.49341182  1  0  -0.644354  0  3.463663  0  0  -0.687078  0  3.693493  0  0  -0.696995  0  3.701693  0  0  -0.324256  -0.680096  0  3.688227  0
C  C77  1  0.18688201  0.75985592  0.00658322  1  0  -0.644426  0  3.463511  0  0  -0.687132  0  3.693347  0  0  -0.697047  0  3.701538  0  0  -0.324279  -0.680163  0  3.688071  0
C  C78  1  0.18688362  0.74014510  0.50658927  1  0  -0.644518  0  3.463657  0  0  -0.68727  0  3.693448  0  0  -0.697191  0  3.701639  0  0  -0.324311  -0.680274  0  3.688206  0
C  C79  1  0.81312379  0.24014767  0.99341556  1  0  -0.644425  0  3.463502  0  0  -0.687088  0  3.693309  0  0  -0.697003  0  3.701501  0  0  -0.324226  -0.680107  0  3.688049  0
C  C80  1  0.68821471  0.20080141  0.22666740  1  0  -0.643949  0  3.442093  0  0  -0.685723  0  3.675706  0  0  -0.695945  0  3.68327  0  0  -0.324942  -0.678801  0  3.671384  0
C  C81  1  0.31179200  0.70080771  0.27333441  1  0  -0.644101  0  3.442163  0  0  -0.685942  0  3.675772  0  0  -0.696154  0  3.683311  0  0  -0.325016  -0.679033  0  3.671432  0
C  C82  1  0.31178576  0.79919933  0.77333625  1  0  -0.643955  0  3.442287  0  0  -0.685734  0  3.675868  0  0  -0.695964  0  3.683434  0  0  -0.324936  -0.678826  0  3.671527  0
C  C83  1  0.68820848  0.29919874  0.72666992  1  0  -0.643896  0  3.442114  0  0  -0.685748  0  3.67573  0  0  -0.695954  0  3.683255  0  0  -0.324946  -0.678813  0  3.671416  0
S  S84  1  0.33925133  0.34543381  0.36505425  1  0  1.325683  0  5.416658  0  0  1.241001  0  5.931276  0  0  1.284528  0  5.915819  0  0  0.549184  1.210972  0  5.940917  0
S  S85  1  0.66073929  0.84544224  0.13494554  1  0  1.325635  0  5.416975  0  0  1.240994  0  5.931589  0  0  1.28452  0  5.916133  0  0  0.549172  1.210964  0  5.94123  0
S  S86  1  0.66074642  0.65456312  0.63494711  1  0  1.325724  0  5.416803  0  0  1.241073  0  5.931389  0  0  1.284604  0  5.915929  0  0  0.549242  1.211041  0  5.941032  0
S  S87  1  0.33926918  0.15455563  0.86505216  1  0  1.325416  0  5.417115  0  0  1.240895  0  5.931594  0  0  1.284416  0  5.916142  0  0  0.549224  1.210874  0  5.941232  0
S  S88  1  0.22523720  0.08831368  0.34267099  1  0  1.345456  0  5.391271  0  0  1.256481  0  5.907202  0  0  1.300735  0  5.890619  0  0  0.559216  1.225854  0  5.917884  0
S  S89  1  0.77476212  0.58832275  0.15733148  1  0  1.345712  0  5.39116  0  0  1.256755  0  5.907131  0  0  1.301019  0  5.890531  0  0  0.559306  1.226113  0  5.917822  0
S  S90  1  0.77475643  0.91168801  0.65732388  1  0  1.34537  0  5.391309  0  0  1.256395  0  5.907261  0  0  1.300656  0  5.890671  0  0  0.559177  1.225766  0  5.91794  0
S  S91  1  0.22524644  0.41167893  0.84267297  1  0  1.345448  0  5.391165  0  0  1.256527  0  5.907086  0  0  1.300789  0  5.89049  0  0  0.559217  1.22589  0  5.917773  0
N  N92  1  0.38722485  0.19351932  0.36507644  1  0  -0.84191  0  2.898501  0  0  -0.762794  0  3.207399  0  0  -0.787453  0  3.203438  0  0  -0.41048  -0.745678  0  3.209607  0
N  N93  1  0.61276985  0.69352616  0.13492360  1  0  -0.841939  0  2.89844  0  0  -0.762897  0  3.207398  0  0  -0.787558  0  3.203438  0  0  -0.410547  -0.745782  0  3.209614  0
N  N94  1  0.61276612  0.80648046  0.63492155  1  0  -0.841839  0  2.898404  0  0  -0.762797  0  3.207383  0  0  -0.787447  0  3.203397  0  0  -0.410479  -0.745684  0  3.209597  0
N  N95  1  0.38724003  0.30647363  0.86507828  1  0  -0.84184  0  2.898389  0  0  -0.762779  0  3.207276  0  0  -0.787422  0  3.203292  0  0  -0.410526  -0.745664  0  3.209487  0
O  O96  1  0.50554375  0.41165347  0.35907925  1  0  -0.65279  0  1.943594  0  0  -0.596692  0  2.187709  0  0  -0.618805  0  2.178879  0  0  -0.318  -0.581042  0  2.193396  0
O  O97  1  0.49444963  0.91167044  0.14091459  1  0  -0.652682  0  1.943814  0  0  -0.596593  0  2.187909  0  0  -0.618706  0  2.179084  0  0  -0.317921  -0.580955  0  2.193626  0
O  O98  1  0.49444854  0.58833297  0.64091684  1  0  -0.652831  0  1.943422  0  0  -0.596753  0  2.187543  0  0  -0.618865  0  2.178711  0  0  -0.318028  -0.581103  0  2.193239  0
O  O99  1  0.50555745  0.08833030  0.85908026  1  0  -0.652454  0  1.943755  0  0  -0.596513  0  2.187955  0  0  -0.618596  0  2.179108  0  0  -0.317925  -0.580877  0  2.193634  0
O  O100  1  0.17838024  0.37776332  0.29730875  1  0  -0.635214  0  1.922137  0  0  -0.576613  0  2.152959  0  0  -0.598133  0  2.143639  0  0  -0.317571  -0.561518  0  2.158952  0
O  O101  1  0.82161377  0.87777385  0.20268624  1  0  -0.635293  0  1.9222  0  0  -0.576699  0  2.153006  0  0  -0.598223  0  2.143689  0  0  -0.317579  -0.561607  0  2.159014  0
O  O102  1  0.82160941  0.62223646  0.70269045  1  0  -0.635265  0  1.922397  0  0  -0.576638  0  2.153192  0  0  -0.598165  0  2.143876  0  0  -0.317617  -0.561551  0  2.159208  0
O  O103  1  0.17840535  0.12222784  0.79730305  1  0  -0.635203  0  1.922205  0  0  -0.576632  0  2.152998  0  0  -0.598176  0  2.143686  0  0  -0.317613  -0.561546  0  2.159016  0
O  O104  1  0.06803113  0.13193130  0.37759216  1  0  -0.681671  0  2.004234  0  0  -0.613139  0  2.261183  0  0  -0.635869  0  2.251097  0  0  -0.313516  -0.597363  0  2.267727  0
O  O105  1  0.93196337  0.63194595  0.12241065  1  0  -0.68175  0  2.00424  0  0  -0.613137  0  2.260976  0  0  -0.635885  0  2.250897  0  0  -0.313443  -0.597322  0  2.267505  0
O  O106  1  0.93196522  0.86806181  0.62240501  1  0  -0.681621  0  2.004141  0  0  -0.61309  0  2.261054  0  0  -0.635839  0  2.250982  0  0  -0.313448  -0.597304  0  2.267589  0
O  O107  1  0.06804656  0.36805192  0.87759597  1  0  -0.681667  0  2.004205  0  0  -0.613141  0  2.26104  0  0  -0.635898  0  2.250973  0  0  -0.31347  -0.597339  0  2.267572  0
O  O108  1  0.30224629  0.96740794  0.37693999  1  0  -0.610428  0  1.94265  0  0  -0.549763  0  2.178343  0  0  -0.572482  0  2.170691  0  0  -0.300273  -0.533696  0  2.183401  0
O  O109  1  0.69775290  0.46742794  0.12305913  1  0  -0.610474  0  1.942738  0  0  -0.5498  0  2.178402  0  0  -0.57252  0  2.170749  0  0  -0.300372  -0.533741  0  2.183476  0
O  O110  1  0.69774456  0.03258517  0.62304853  1  0  -0.610442  0  1.942897  0  0  -0.54976  0  2.178578  0  0  -0.572485  0  2.170934  0  0  -0.300315  -0.533697  0  2.183636  0
O  O111  1  0.30224626  0.53257756  0.87694641  1  0  -0.610432  0  1.942709  0  0  -0.549773  0  2.178384  0  0  -0.572492  0  2.170733  0  0  -0.300323  -0.533713  0  2.183454  0
