# generated using pymatgen
data_KH16C15NO3
_symmetry_space_group_name_H-M   'P 1'
_cell_length_a   6.97724849
_cell_length_b   7.01839874
_cell_length_c   16.03659058
_cell_angle_alpha   94.99249711
_cell_angle_beta   96.01932164
_cell_angle_gamma   114.17506134
_symmetry_Int_Tables_number   1
_chemical_formula_structural   KH16C15NO3
_chemical_formula_sum   'K2 H32 C30 N2 O6'
_cell_volume   705.12734131
_cell_formula_units_Z   2
loop_
 _symmetry_equiv_pos_site_id
 _symmetry_equiv_pos_as_xyz
  1  'x, y, z'
loop_
 _atom_site_type_symbol
 _atom_site_label
 _atom_site_symmetry_multiplicity
 _atom_site_fract_x
 _atom_site_fract_y
 _atom_site_fract_z
 _atom_site_occupancy
 _atom_site_hle17_bader_spin_density
 _atom_site_hle17_ddec_charge
 _atom_site_hle17_ddec_spin_density
 _atom_site_hle17_ddec_sum_bond_order
 _atom_site_hle17_magmom
 _atom_site_hse06_10hf_bader_spin_density
 _atom_site_hse06_10hf_ddec_charge
 _atom_site_hse06_10hf_ddec_spin_density
 _atom_site_hse06_10hf_ddec_sum_bond_order
 _atom_site_hse06_10hf_magmom
 _atom_site_hse06_bader_spin_density
 _atom_site_hse06_ddec_charge
 _atom_site_hse06_ddec_spin_density
 _atom_site_hse06_ddec_sum_bond_order
 _atom_site_hse06_magmom
 _atom_site_pbe_bader_spin_density
 _atom_site_pbe_cm5_charge
 _atom_site_pbe_ddec_charge
 _atom_site_pbe_ddec_spin_density
 _atom_site_pbe_ddec_sum_bond_order
 _atom_site_pbe_magmom
K  K0  1  0.17634692  0.38113964  0.46123213  1  0  0.910951  0  0.442687  0  0  0.862999  0  0.616554  0  0  0.876105  0  0.59685  0  0  0.738322  0.85309  0  0.630635  0
K  K1  1  0.82365396  0.61886978  0.53876768  1  0  0.910964  0  0.442669  0  0  0.863005  0  0.616548  0  0  0.87611  0  0.596845  0  0  0.738336  0.853107  0  0.630628  0
H  H2  1  0.60679432  0.85494309  0.42933933  1  0  0.428412  0  0.879481  0  0  0.399177  0  0.94113  0  0  0.410003  0  0.925363  0  0  0.283833  0.391527  0  0.952248  0
H  H3  1  0.39319898  0.14505530  0.57066037  1  0  0.428409  0  0.879491  0  0  0.399216  0  0.941074  0  0  0.410041  0  0.925307  0  0  0.283827  0.391566  0  0.952191  0
H  H4  1  0.57380325  0.64667191  0.37127546  1  0  0.386444  0  0.92482  0  0  0.353834  0  0.999292  0  0  0.363161  0  0.985746  0  0  0.283053  0.347318  0  1.008735  0
H  H5  1  0.42619216  0.35332806  0.62872438  1  0  0.386434  0  0.924834  0  0  0.353829  0  0.999302  0  0  0.363155  0  0.985756  0  0  0.283042  0.347312  0  1.008747  0
H  H6  1  0.17893955  0.30666199  0.19009398  1  0  0.099572  0  0.980388  0  0  0.111505  0  1.041615  0  0  0.114425  0  1.041376  0  0  0.099805  0.109445  0  1.041912  0
H  H7  1  0.82105310  0.69333483  0.80990626  1  0  0.099592  0  0.9804  0  0  0.111533  0  1.0416  0  0  0.114451  0  1.041365  0  0  0.099813  0.109474  0  1.041899  0
H  H8  1  0.88818947  0.99049707  0.22425457  1  0  0.082755  0  0.987295  0  0  0.092685  0  1.050968  0  0  0.094149  0  1.051683  0  0  0.096745  0.091611  0  1.05047  0
H  H9  1  0.11180170  0.00950612  0.77575022  1  0  0.082813  0  0.987234  0  0  0.092727  0  1.05092  0  0  0.094164  0  1.051663  0  0  0.096758  0.091654  0  1.050417  0
H  H10  1  0.96448409  0.79021740  0.33618794  1  0  0.098304  0  0.978645  0  0  0.108983  0  1.039532  0  0  0.112974  0  1.037209  0  0  0.105962  0.106069  0  1.041438  0
H  H11  1  0.03551272  0.20979211  0.66381919  1  0  0.098277  0  0.978635  0  0  0.108951  0  1.039541  0  0  0.112941  0  1.037222  0  0  0.105954  0.106036  0  1.041445  0
H  H12  1  0.33279298  0.90727281  0.40830171  1  0  0.103601  0  0.975022  0  0  0.113877  0  1.03702  0  0  0.117764  0  1.033278  0  0  0.113487  0.111015  0  1.03974  0
H  H13  1  0.66720592  0.09273509  0.59170232  1  0  0.103525  0  0.975066  0  0  0.113842  0  1.037019  0  0  0.117709  0  1.0333  0  0  0.113493  0.110978  0  1.039742  0
H  H14  1  0.72909072  0.48883903  0.29506421  1  0  0.28863  0  0.963525  0  0  0.27295  0  1.024316  0  0  0.281464  0  1.017364  0  0  0.299047  0.266918  0  1.029265  0
H  H15  1  0.27090542  0.51115934  0.70493436  1  0  0.288561  0  0.963705  0  0  0.272989  0  1.02432  0  0  0.281502  0  1.017373  0  0  0.299073  0.266959  0  1.029261  0
H  H16  1  0.60873999  0.94167119  0.02212355  1  0  0.082516  0  0.978024  0  0  0.095767  0  1.039442  0  0  0.09829  0  1.038542  0  0  0.09469  0.094005  0  1.040086  0
H  H17  1  0.39126839  0.05832557  0.97787420  1  0  0.082532  0  0.978  0  0  0.095759  0  1.039438  0  0  0.098288  0  1.038532  0  0  0.094697  0.093997  0  1.040078  0
H  H18  1  0.38704664  0.93845908  0.13562225  1  0  0.086901  0  0.954507  0  0  0.098248  0  1.015819  0  0  0.100452  0  1.015682  0  0  0.096337  0.096626  0  1.0161  0
H  H19  1  0.61295803  0.06153924  0.86437353  1  0  0.086942  0  0.954517  0  0  0.098293  0  1.015817  0  0  0.100494  0  1.015684  0  0  0.096359  0.096668  0  1.016099  0
H  H20  1  0.37293632  0.71469699  0.24872500  1  0  0.105272  0  0.960031  0  0  0.116576  0  1.021249  0  0  0.119241  0  1.020526  0  0  0.105115  0.114637  0  1.021912  0
H  H21  1  0.62706126  0.28529820  0.75127100  1  0  0.10531  0  0.959891  0  0  0.116578  0  1.02116  0  0  0.119242  0  1.020439  0  0  0.105127  0.114642  0  1.02182  0
H  H22  1  0.98948272  0.54562049  0.15087132  1  0  0.104978  0  0.950178  0  0  0.12768  0  1.013341  0  0  0.128206  0  1.014285  0  0  0.091412  0.127134  0  1.012894  0
H  H23  1  0.01052059  0.45438105  0.84912952  1  0  0.105006  0  0.950109  0  0  0.127685  0  1.013296  0  0  0.128211  0  1.014239  0  0  0.091391  0.127135  0  1.012853  0
H  H24  1  0.79799784  0.36721786  0.06701620  1  0  0.099749  0  0.967415  0  0  0.122738  0  1.03057  0  0  0.123406  0  1.031419  0  0  0.089267  0.122222  0  1.029976  0
H  H25  1  0.20201198  0.63278209  0.93298422  1  0  0.099748  0  0.967429  0  0  0.122727  0  1.030597  0  0  0.12338  0  1.03146  0  0  0.089259  0.122205  0  1.03001  0
H  H26  1  0.76605065  0.32934393  0.17362287  1  0  0.112935  0  0.953863  0  0  0.132919  0  1.013891  0  0  0.134479  0  1.013832  0  0  0.093927  0.131773  0  1.013885  0
H  H27  1  0.23395626  0.67065601  0.82637681  1  0  0.112957  0  0.953827  0  0  0.132934  0  1.013863  0  0  0.134497  0  1.013801  0  0  0.093939  0.131788  0  1.013858  0
H  H28  1  0.83881968  0.83134695  0.95801191  1  0  0.10451  0  0.957794  0  0  0.126618  0  1.018372  0  0  0.12779  0  1.018562  0  0  0.089359  0.125735  0  1.018251  0
H  H29  1  0.16118508  0.16865141  0.04198638  1  0  0.104542  0  0.957841  0  0  0.126659  0  1.018406  0  0  0.127834  0  1.01859  0  0  0.089372  0.125774  0  1.018287  0
H  H30  1  0.78353992  0.56202059  0.96227317  1  0  0.102283  0  0.978808  0  0  0.120824  0  1.048318  0  0  0.121023  0  1.050736  0  0  0.088159  0.120631  0  1.046712  0
H  H31  1  0.21646628  0.43797776  0.03772518  1  0  0.102292  0  0.978845  0  0  0.120827  0  1.048347  0  0  0.121025  0  1.050768  0  0  0.088186  0.120629  0  1.046747  0
H  H32  1  0.00748566  0.76205325  0.02802678  1  0  0.099  0  0.9531  0  0  0.121707  0  1.015631  0  0  0.122754  0  1.015496  0  0  0.088506  0.120817  0  1.015897  0
H  H33  1  0.99251844  0.23794354  0.97197204  1  0  0.099002  0  0.953123  0  0  0.121699  0  1.015649  0  0  0.122761  0  1.015499  0  0  0.088511  0.120804  0  1.015928  0
C  C34  1  0.68845606  0.23501948  0.38794535  1  0  0.639578  0  3.951271  0  0  0.592564  0  4.249895  0  0  0.626751  0  4.241765  0  0  0.171149  0.569429  0  4.254621  0
C  C35  1  0.31153786  0.76498366  0.61205581  1  0  0.639679  0  3.951221  0  0  0.592632  0  4.249844  0  0  0.626819  0  4.241713  0  0  0.171183  0.569489  0  4.254583  0
C  C36  1  0.46824365  0.17132586  0.34124330  1  0  -0.204732  0  3.72724  0  0  -0.184037  0  3.967101  0  0  -0.197616  0  3.99104  0  0  -0.037334  -0.175344  0  3.951081  0
C  C37  1  0.53175246  0.82867569  0.65875726  1  0  -0.204844  0  3.727398  0  0  -0.184008  0  3.967105  0  0  -0.197585  0  3.991039  0  0  -0.037317  -0.175314  0  3.951087  0
C  C38  1  0.42251955  0.28976085  0.28007447  1  0  0.2456  0  3.80597  0  0  0.231067  0  4.053299  0  0  0.243608  0  4.073561  0  0  0.104117  0.222821  0  4.039319  0
C  C39  1  0.57747515  0.71023752  0.71992404  1  0  0.245589  0  3.805953  0  0  0.231014  0  4.053272  0  0  0.243555  0  4.073536  0  0  0.104084  0.222764  0  4.039299  0
C  C40  1  0.21260296  0.21804608  0.23753088  1  0  -0.214486  0  3.762213  0  0  -0.229435  0  4.01322  0  0  -0.237732  0  4.032928  0  0  -0.113238  -0.224067  0  3.999845  0
C  C41  1  0.78739182  0.78195232  0.76247013  1  0  -0.21452  0  3.762135  0  0  -0.229464  0  4.013138  0  0  -0.23776  0  4.032838  0  0  -0.113212  -0.224101  0  3.999772  0
C  C42  1  0.04945207  0.03995726  0.25699561  1  0  -0.035648  0  3.807669  0  0  -0.05201  0  4.059555  0  0  -0.047308  0  4.078461  0  0  -0.090622  -0.054727  0  4.046437  0
C  C43  1  0.95054117  0.96004748  0.74300807  1  0  -0.035692  0  3.80754  0  0  -0.052034  0  4.059416  0  0  -0.047309  0  4.078331  0  0  -0.090658  -0.05475  0  4.046291  0
C  C44  1  0.09144165  0.92661301  0.31875292  1  0  -0.135822  0  3.800814  0  0  -0.151512  0  4.058724  0  0  -0.158129  0  4.079004  0  0  -0.112088  -0.147294  0  4.045034  0
C  C45  1  0.90855302  0.07339174  0.68125082  1  0  -0.135847  0  3.800781  0  0  -0.151532  0  4.058691  0  0  -0.158148  0  4.078959  0  0  -0.112088  -0.147315  0  4.044997  0
C  C46  1  0.29914755  0.99244506  0.35941507  1  0  -0.066021  0  3.790395  0  0  -0.087763  0  4.036326  0  0  -0.083094  0  4.054016  0  0  -0.086409  -0.090441  0  4.024191  0
C  C47  1  0.70084924  0.00756126  0.64058881  1  0  -0.065845  0  3.790486  0  0  -0.087665  0  4.036385  0  0  -0.08298  0  4.054084  0  0  -0.086401  -0.090347  0  4.024263  0
C  C48  1  0.57525885  0.58600626  0.19659029  1  0  0.17951  0  3.784195  0  0  0.171358  0  4.031413  0  0  0.176834  0  4.054042  0  0  0.087694  0.167547  0  4.016031  0
C  C49  1  0.42473948  0.41399052  0.80340768  1  0  0.179545  0  3.784336  0  0  0.171436  0  4.031402  0  0  0.176913  0  4.05403  0  0  0.087702  0.167616  0  4.01603  0
C  C50  1  0.69641372  0.58273857  0.13193234  1  0  0.009006  0  3.674208  0  0  0.029357  0  3.905508  0  0  0.026973  0  3.930025  0  0  -0.009396  0.030927  0  3.888852  0
C  C51  1  0.30358895  0.41725822  0.86806642  1  0  0.008899  0  3.674276  0  0  0.029416  0  3.905372  0  0  0.027034  0  3.929881  0  0  -0.009385  0.030981  0  3.888722  0
C  C52  1  0.70754488  0.71326673  0.06870622  1  0  0.098522  0  3.740372  0  0  0.122797  0  3.970417  0  0  0.122941  0  3.995709  0  0  -0.008943  0.122722  0  3.953203  0
C  C53  1  0.29245853  0.28672847  0.93129189  1  0  0.098644  0  3.740209  0  0  0.12276  0  3.970377  0  0  0.122902  0  3.995675  0  0  -0.008974  0.122692  0  3.953152  0
C  C54  1  0.59533714  0.83899792  0.07057353  1  0  -0.147118  0  3.776162  0  0  -0.169281  0  4.026565  0  0  -0.172539  0  4.047698  0  0  -0.102752  -0.167097  0  4.012221  0
C  C55  1  0.40466692  0.16099885  0.92942405  1  0  -0.147122  0  3.776265  0  0  -0.16923  0  4.026705  0  0  -0.172492  0  4.047836  0  0  -0.102736  -0.167045  0  4.012353  0
C  C56  1  0.47138543  0.83739233  0.13377589  1  0  -0.074425  0  3.829345  0  0  -0.092044  0  4.095552  0  0  -0.092506  0  4.115528  0  0  -0.10143  -0.091661  0  4.082145  0
C  C57  1  0.52861715  0.16260443  0.86622038  1  0  -0.074554  0  3.829569  0  0  -0.092175  0  4.095759  0  0  -0.092634  0  4.115733  0  0  -0.101507  -0.091792  0  4.082355  0
C  C58  1  0.46182167  0.71112812  0.19705121  1  0  -0.166254  0  3.766166  0  0  -0.190706  0  4.027226  0  0  -0.193901  0  4.046486  0  0  -0.099676  -0.188565  0  4.014404  0
C  C59  1  0.53817589  0.28886706  0.80294417  1  0  -0.166278  0  3.766089  0  0  -0.190715  0  4.02713  0  0  -0.193909  0  4.046387  0  0  -0.099661  -0.188575  0  4.01432  0
C  C60  1  0.81775400  0.44862700  0.13111698  1  0  -0.311597  0  3.720766  0  0  -0.392553  0  3.953397  0  0  -0.394062  0  3.963636  0  0  -0.240357  -0.391142  0  3.94629  0
C  C61  1  0.18225084  0.55137138  0.86888381  1  0  -0.311614  0  3.720676  0  0  -0.392595  0  3.953276  0  0  -0.394093  0  3.963524  0  0  -0.240347  -0.391181  0  3.946179  0
C  C62  1  0.84103143  0.71816325  0.00063303  1  0  -0.330403  0  3.735968  0  0  -0.411545  0  3.969468  0  0  -0.413752  0  3.980283  0  0  -0.241387  -0.409649  0  3.961908  0
C  C63  1  0.15897346  0.28183196  0.99936639  1  0  -0.330487  0  3.736027  0  0  -0.411576  0  3.969551  0  0  -0.413795  0  3.980361  0  0  -0.241426  -0.409684  0  3.961988  0
N  N64  1  0.58320859  0.47550732  0.26591474  1  0  -0.471056  0  3.410597  0  0  -0.403363  0  3.634108  0  0  -0.424096  0  3.644256  0  0  -0.431482  -0.388805  0  3.626518  0
N  N65  1  0.41678830  0.52448947  0.73408317  1  0  -0.471001  0  3.410592  0  0  -0.403464  0  3.634179  0  0  -0.424191  0  3.64431  0  0  -0.431522  -0.388884  0  3.626548  0
O  O66  1  0.83532170  0.41547424  0.37989814  1  0  -0.724341  0  1.968219  0  0  -0.674091  0  2.197565  0  0  -0.697677  0  2.186774  0  0  -0.459357  -0.65742  0  2.204419  0
O  O67  1  0.16467439  0.58452730  0.62010179  1  0  -0.724305  0  1.968137  0  0  -0.674093  0  2.197485  0  0  -0.697679  0  2.186698  0  0  -0.459372  -0.657419  0  2.204337  0
O  O68  1  0.72531660  0.11410363  0.43560334  1  0  -0.675066  0  1.965726  0  0  -0.620169  0  2.187311  0  0  -0.644371  0  2.17674  0  0  -0.36451  -0.603207  0  2.194018  0
O  O69  1  0.27468162  0.88589949  0.56439736  1  0  -0.675089  0  1.96581  0  0  -0.620215  0  2.187411  0  0  -0.644416  0  2.176839  0  0  -0.364524  -0.603249  0  2.194124  0
O  O70  1  0.55152665  0.69738710  0.42696609  1  0  -0.912067  0  1.788575  0  0  -0.867724  0  1.967632  0  0  -0.886017  0  1.938413  0  0  -0.721005  -0.854599  0  1.987873  0
O  O71  1  0.44846877  0.30261286  0.57303376  1  0  -0.91206  0  1.788592  0  0  -0.867744  0  1.967594  0  0  -0.886033  0  1.938368  0  0  -0.720975  -0.854618  0  1.987831  0
