# generated using pymatgen
data_ZnPH6C5NCl2O3
_symmetry_space_group_name_H-M   'P 1'
_cell_length_a   8.49280527
_cell_length_b   9.35120687
_cell_length_c   12.37874483
_cell_angle_alpha   89.99993440
_cell_angle_beta   91.26544544
_cell_angle_gamma   90.00003995
_symmetry_Int_Tables_number   1
_chemical_formula_structural   ZnPH6C5NCl2O3
_chemical_formula_sum   'Zn4 P4 H24 C20 N4 Cl8 O12'
_cell_volume   982.85512877
_cell_formula_units_Z   4
loop_
 _symmetry_equiv_pos_site_id
 _symmetry_equiv_pos_as_xyz
  1  'x, y, z'
loop_
 _atom_site_type_symbol
 _atom_site_label
 _atom_site_symmetry_multiplicity
 _atom_site_fract_x
 _atom_site_fract_y
 _atom_site_fract_z
 _atom_site_occupancy
 _atom_site_pbe_bader_spin_density
 _atom_site_pbe_cm5_charge
 _atom_site_pbe_ddec_charge
 _atom_site_pbe_ddec_spin_density
 _atom_site_pbe_ddec_sum_bond_order
 _atom_site_pbe_magmom
Zn  Zn0  1  0.13691667  0.29456163  0.52800016  1  0  0.558156  0.852485  0  2.565712  0
Zn  Zn1  1  0.36308479  0.79456314  0.97200014  1  0  0.558185  0.852542  0  2.565621  0
Zn  Zn2  1  0.86308567  0.70543720  0.47200055  1  0  0.558179  0.852504  0  2.565649  0
Zn  Zn3  1  0.63691401  0.20543783  0.02799891  1  0  0.558195  0.852535  0  2.565625  0
P  P4  1  0.86238203  0.40237373  0.35399842  1  0  0.376848  1.270937  0  5.304472  0
P  P5  1  0.63761897  0.90237666  0.14600170  1  0  0.376877  1.270983  0  5.304461  0
P  P6  1  0.13761794  0.59762402  0.64600146  1  0  0.376886  1.270987  0  5.304511  0
P  P7  1  0.36238100  0.09762538  0.85399818  1  0  0.376797  1.270879  0  5.304566  0
H  H8  1  0.64967146  0.34923942  0.26034129  1  0  0.276016  0.366605  0  0.980866  0
H  H9  1  0.85032715  0.84923806  0.23965803  1  0  0.276049  0.366629  0  0.98083  0
H  H10  1  0.35032852  0.65076048  0.73965940  1  0  0.276051  0.366673  0  0.98077  0
H  H11  1  0.14967165  0.15076291  0.76034183  1  0  0.276025  0.366614  0  0.980856  0
H  H12  1  0.95743337  0.12661799  0.25880853  1  0  0.107878  0.132362  0  1.016143  0
H  H13  1  0.54256507  0.62661857  0.24119099  1  0  0.10789  0.132392  0  1.016103  0
H  H14  1  0.04256426  0.87338191  0.74119132  1  0  0.107897  0.132417  0  1.016084  0
H  H15  1  0.45743490  0.37338240  0.75880889  1  0  0.107879  0.132381  0  1.016103  0
H  H16  1  0.27985024  0.25733690  0.02842282  1  0  0.31731  0.286608  0  0.966772  0
H  H17  1  0.22015113  0.75733726  0.47157813  1  0  0.3173  0.286589  0  0.966837  0
H  H18  1  0.72015092  0.74266406  0.97157708  1  0  0.317311  0.286611  0  0.966809  0
H  H19  1  0.77984886  0.24266371  0.52842337  1  0  0.317315  0.286628  0  0.966786  0
H  H20  1  0.14851869  0.07105924  0.11135750  1  0  0.115166  0.104626  0  1.034978  0
H  H21  1  0.35148017  0.57106194  0.38864196  1  0  0.115181  0.104642  0  1.035005  0
H  H22  1  0.85148129  0.92894066  0.88864238  1  0  0.115169  0.104623  0  1.034977  0
H  H23  1  0.64851981  0.42894117  0.61135792  1  0  0.115172  0.104647  0  1.034958  0
H  H24  1  0.04507222  0.57687620  0.20159340  1  0  0.11223  0.137573  0  1.000179  0
H  H25  1  0.45492664  0.07687663  0.29840444  1  0  0.112266  0.13764  0  1.000137  0
H  H26  1  0.95492540  0.42312262  0.79840564  1  0  0.112232  0.137565  0  1.000208  0
H  H27  1  0.54507098  0.92312327  0.70159460  1  0  0.11224  0.137558  0  1.000189  0
H  H28  1  0.23666718  0.50253730  0.05851859  1  0  0.113426  0.091369  0  1.052593  0
H  H29  1  0.26333517  0.00253846  0.44148259  1  0  0.113404  0.09133  0  1.052587  0
H  H30  1  0.76333162  0.49746260  0.94148208  1  0  0.113422  0.091359  0  1.052591  0
H  H31  1  0.73666716  0.99746037  0.55851651  1  0  0.113407  0.091339  0  1.052613  0
C  C32  1  0.01655420  0.21285365  0.21678721  1  0  -0.060316  -0.091444  0  3.920008  0
C  C33  1  0.48344712  0.71285445  0.28321215  1  0  -0.060319  -0.091419  0  3.919915  0
C  C34  1  0.98344341  0.78714625  0.78321102  1  0  -0.060357  -0.091559  0  3.920038  0
C  C35  1  0.51655758  0.28714759  0.71679021  1  0  -0.060263  -0.091407  0  3.919911  0
C  C36  1  0.99031491  0.35640653  0.24321872  1  0  0.008272  -0.134229  0  3.948386  0
C  C37  1  0.50968605  0.85640707  0.25677982  1  0  0.008262  -0.134284  0  3.948423  0
C  C38  1  0.00968388  0.64359337  0.75678034  1  0  0.008287  -0.134232  0  3.948354  0
C  C39  1  0.49031510  0.14359390  0.74322007  1  0  0.008244  -0.1343  0  3.948336  0
C  C40  1  0.12116802  0.18026972  0.13616797  1  0  0.07546  0.114376  0  3.812472  0
C  C41  1  0.37883328  0.68027033  0.36383143  1  0  0.075393  0.114281  0  3.812424  0
C  C42  1  0.87883077  0.81973018  0.86383109  1  0  0.075474  0.114463  0  3.812418  0
C  C43  1  0.62116907  0.31972957  0.63617091  1  0  0.075408  0.114333  0  3.812364  0
C  C44  1  0.06613472  0.46414318  0.18535407  1  0  -0.061326  -0.095713  0  3.918771  0
C  C45  1  0.43386443  0.96414497  0.31464343  1  0  -0.061381  -0.095831  0  3.918809  0
C  C46  1  0.93386289  0.53585565  0.81464416  1  0  -0.061343  -0.095719  0  3.918812  0
C  C47  1  0.56613672  0.03585600  0.68535404  1  0  -0.061346  -0.095711  0  3.918817  0
C  C48  1  0.17080933  0.42601771  0.10601846  1  0  0.072746  0.110696  0  3.833756  0
C  C49  1  0.32918980  0.92601718  0.39398150  1  0  0.072785  0.110783  0  3.833722  0
C  C50  1  0.82918828  0.57398219  0.89398058  1  0  0.072725  0.110705  0  3.833753  0
C  C51  1  0.67081018  0.07398165  0.60601999  1  0  0.072739  0.110728  0  3.833774  0
N  N52  1  0.19622072  0.28673411  0.08516194  1  0  -0.330113  -0.112943  0  3.664178  0
N  N53  1  0.30377830  0.78673674  0.41483733  1  0  -0.330064  -0.112866  0  3.664145  0
N  N54  1  0.80377807  0.71326579  0.91483712  1  0  -0.330112  -0.112979  0  3.664203  0
N  N55  1  0.69622285  0.21326423  0.58516256  1  0  -0.330072  -0.112936  0  3.664037  0
Cl  Cl56  1  0.33165016  0.30904760  0.41326314  1  0  -0.308869  -0.501706  0  1.227969  0
Cl  Cl57  1  0.16835124  0.80904850  0.08673776  1  0  -0.308879  -0.501716  0  1.227922  0
Cl  Cl58  1  0.66834981  0.69095336  0.58673674  1  0  -0.308872  -0.501698  0  1.22793  0
Cl  Cl59  1  0.83164874  0.19095247  0.91326212  1  0  -0.308872  -0.501707  0  1.227939  0
Cl  Cl60  1  0.09424173  0.08342944  0.61216577  1  0  -0.261814  -0.476557  0  1.29607  0
Cl  Cl61  1  0.40575839  0.58343218  0.88783551  1  0  -0.261802  -0.476567  0  1.296088  0
Cl  Cl62  1  0.90575825  0.91656832  0.38783492  1  0  -0.261816  -0.476542  0  1.296062  0
Cl  Cl63  1  0.59424159  0.41656879  0.11216437  1  0  -0.26181  -0.476555  0  1.296084  0
O  O64  1  0.92394731  0.33363602  0.45893616  1  0  -0.363287  -0.722004  0  2.386755  0
O  O65  1  0.57605129  0.83364228  0.04106318  1  0  -0.363267  -0.722025  0  2.386774  0
O  O66  1  0.07605384  0.66635853  0.54106292  1  0  -0.363248  -0.722005  0  2.386818  0
O  O67  1  0.42394751  0.16635869  0.95893669  1  0  -0.363254  -0.721995  0  2.386791  0
O  O68  1  0.84819341  0.56379354  0.35351806  1  0  -0.368885  -0.715573  0  2.375094  0
O  O69  1  0.65180853  0.06379614  0.14648317  1  0  -0.368923  -0.715598  0  2.375096  0
O  O70  1  0.15180658  0.43620422  0.64648424  1  0  -0.368914  -0.71557  0  2.3751  0
O  O71  1  0.34819026  0.93620483  0.85351508  1  0  -0.3689  -0.715566  0  2.375119  0
O  O72  1  0.70126195  0.32228244  0.33147235  1  0  -0.378905  -0.617496  0  2.281863  0
O  O73  1  0.79873664  0.82228222  0.16852780  1  0  -0.378955  -0.617518  0  2.281859  0
O  O74  1  0.29873685  0.67771639  0.66852751  1  0  -0.378966  -0.617565  0  2.281839  0
O  O75  1  0.20126217  0.17771875  0.83147287  1  0  -0.378901  -0.617466  0  2.281847  0
