# generated using pymatgen
data_CuH22C19S2BrO2
_symmetry_space_group_name_H-M   'P 1'
_cell_length_a   8.94756247
_cell_length_b   11.16780614
_cell_length_c   11.01003176
_cell_angle_alpha   104.44731234
_cell_angle_beta   96.87514223
_cell_angle_gamma   95.02359424
_symmetry_Int_Tables_number   1
_chemical_formula_structural   CuH22C19S2BrO2
_chemical_formula_sum   'Cu2 H44 C38 S4 Br2 O4'
_cell_volume   1049.80258046
_cell_formula_units_Z   2
loop_
 _symmetry_equiv_pos_site_id
 _symmetry_equiv_pos_as_xyz
  1  'x, y, z'
loop_
 _atom_site_type_symbol
 _atom_site_label
 _atom_site_symmetry_multiplicity
 _atom_site_fract_x
 _atom_site_fract_y
 _atom_site_fract_z
 _atom_site_occupancy
 _atom_site_hle17_bader_spin_density
 _atom_site_hle17_ddec_charge
 _atom_site_hle17_ddec_spin_density
 _atom_site_hle17_ddec_sum_bond_order
 _atom_site_hle17_magmom
 _atom_site_hse06_10hf_bader_spin_density
 _atom_site_hse06_10hf_ddec_charge
 _atom_site_hse06_10hf_ddec_spin_density
 _atom_site_hse06_10hf_ddec_sum_bond_order
 _atom_site_hse06_10hf_magmom
 _atom_site_hse06_bader_spin_density
 _atom_site_hse06_ddec_charge
 _atom_site_hse06_ddec_spin_density
 _atom_site_hse06_ddec_sum_bond_order
 _atom_site_hse06_magmom
 _atom_site_pbe_bader_spin_density
 _atom_site_pbe_cm5_charge
 _atom_site_pbe_ddec_charge
 _atom_site_pbe_ddec_spin_density
 _atom_site_pbe_ddec_sum_bond_order
 _atom_site_pbe_magmom
Cu  Cu0  1  0.37837412  0.96902180  0.05814627  1  0  0.172347  0  2.320242  0  0  0.09225  0  2.831873  0  0  0.098675  0  2.781904  0  0  0.262208  0.089326  0  2.864122  0
Cu  Cu1  1  0.62160020  0.03096970  0.94187235  1  0  0.172513  0  2.319477  0  0  0.092368  0  2.831106  0  0  0.098757  0  2.781212  0  0  0.262196  0.089433  0  2.863363  0
H  H2  1  0.11667331  0.64787778  0.36842599  1  0  0.055787  0  0.910431  0  0  0.072137  0  0.968907  0  0  0.072163  0  0.968171  0  0  0.103727  0.072003  0  0.969668  0
H  H3  1  0.88333886  0.35212075  0.63156700  1  0  0.055755  0  0.910318  0  0  0.072095  0  0.968831  0  0  0.072124  0  0.968093  0  0  0.103703  0.071963  0  0.969599  0
H  H4  1  0.23368352  0.55945887  0.26853218  1  0  0.068001  0  0.945338  0  0  0.079473  0  1.015211  0  0  0.079048  0  1.016536  0  0  0.105006  0.079891  0  1.014095  0
H  H5  1  0.76631712  0.44053685  0.73145421  1  0  0.067978  0  0.945429  0  0  0.079483  0  1.015277  0  0  0.079058  0  1.016604  0  0  0.105022  0.079906  0  1.014153  0
H  H6  1  0.30195431  0.59053106  0.50639354  1  0  0.057008  0  0.94854  0  0  0.07082  0  1.014101  0  0  0.069867  0  1.015889  0  0  0.101856  0.071526  0  1.012836  0
H  H7  1  0.69805542  0.40946562  0.49359596  1  0  0.057001  0  0.948538  0  0  0.070814  0  1.014064  0  0  0.06986  0  1.015854  0  0  0.10185  0.07152  0  1.0128  0
H  H8  1  0.12957158  0.49383676  0.50243335  1  0  0.057066  0  0.929866  0  0  0.068429  0  0.997929  0  0  0.069569  0  0.995797  0  0  0.101405  0.067714  0  0.999349  0
H  H9  1  0.87043825  0.50616084  0.49755731  1  0  0.057001  0  0.929957  0  0  0.068374  0  0.99801  0  0  0.069516  0  0.995877  0  0  0.101363  0.06766  0  0.999421  0
H  H10  1  0.29888219  0.48900103  0.65990232  1  0  0.097338  0  0.995525  0  0  0.106253  0  1.062777  0  0  0.108782  0  1.062342  0  0  0.097137  0.104443  0  1.063184  0
H  H11  1  0.70112273  0.51099375  0.34008795  1  0  0.097333  0  0.995404  0  0  0.106216  0  1.062701  0  0  0.108745  0  1.062266  0  0  0.097137  0.104405  0  1.063117  0
H  H12  1  0.42455804  0.39673074  0.81741199  1  0  0.088198  0  0.977532  0  0  0.09919  0  1.039539  0  0  0.100891  0  1.040021  0  0  0.095876  0.098056  0  1.038883  0
H  H13  1  0.57544203  0.60327048  0.18258395  1  0  0.088238  0  0.977515  0  0  0.099193  0  1.039549  0  0  0.1009  0  1.040026  0  0  0.095892  0.098054  0  1.038918  0
H  H14  1  0.56774229  0.21467226  0.75065950  1  0  0.082156  0  0.993186  0  0  0.085489  0  1.069993  0  0  0.088792  0  1.067877  0  0  0.083401  0.08339  0  1.070984  0
H  H15  1  0.43226198  0.78532799  0.24934302  1  0  0.082118  0  0.993133  0  0  0.08544  0  1.069939  0  0  0.088739  0  1.06783  0  0  0.083386  0.083344  0  1.070934  0
H  H16  1  0.57872958  0.12669084  0.52133775  1  0  0.085014  0  0.962728  0  0  0.092372  0  1.029073  0  0  0.095171  0  1.027926  0  0  0.091195  0.090385  0  1.03002  0
H  H17  1  0.42127806  0.87330854  0.47866040  1  0  0.084984  0  0.962816  0  0  0.092331  0  1.029153  0  0  0.095126  0  1.028015  0  0  0.091194  0.090347  0  1.0301  0
H  H18  1  0.57164841  0.19237409  0.30501977  1  0  0.098224  0  0.928729  0  0  0.118683  0  0.984903  0  0  0.119435  0  0.984345  0  0  0.100999  0.118033  0  0.985552  0
H  H19  1  0.42834515  0.80760564  0.69497438  1  0  0.098234  0  0.928626  0  0  0.118705  0  0.984826  0  0  0.119464  0  0.984239  0  0  0.100985  0.118057  0  0.985481  0
H  H20  1  0.40360932  0.25299610  0.25887014  1  0  0.113048  0  0.94275  0  0  0.123173  0  1.00904  0  0  0.125981  0  1.006979  0  0  0.100613  0.121486  0  1.010053  0
H  H21  1  0.59639147  0.74698738  0.74112763  1  0  0.112999  0  0.942715  0  0  0.123166  0  1.008983  0  0  0.125971  0  1.006918  0  0  0.100634  0.121478  0  1.009998  0
H  H22  1  0.11459673  0.95908827  0.25648658  1  0  0.090136  0  0.924166  0  0  0.112066  0  0.975989  0  0  0.112676  0  0.976543  0  0  0.099263  0.111352  0  0.976207  0
H  H23  1  0.88538705  0.04092016  0.74352480  1  0  0.090167  0  0.924129  0  0  0.112106  0  0.975915  0  0  0.112714  0  0.976471  0  0  0.099276  0.111395  0  0.976133  0
H  H24  1  0.16166033  0.09633365  0.38333616  1  0  0.089987  0  0.923998  0  0  0.108635  0  0.976034  0  0  0.109926  0  0.976468  0  0  0.096787  0.107729  0  0.975709  0
H  H25  1  0.83832228  0.90367475  0.61667690  1  0  0.089859  0  0.923927  0  0  0.10856  0  0.975911  0  0  0.109854  0  0.976341  0  0  0.096755  0.107654  0  0.975589  0
H  H26  1  0.14888724  0.11801322  0.11141184  1  0  0.066169  0  0.976194  0  0  0.078719  0  1.051436  0  0  0.08056  0  1.050115  0  0  0.077252  0.07736  0  1.052357  0
H  H27  1  0.85111989  0.88199257  0.88859881  1  0  0.066163  0  0.975953  0  0  0.078638  0  1.051307  0  0  0.080479  0  1.049978  0  0  0.077233  0.077276  0  1.052228  0
H  H28  1  0.11035609  0.22977689  0.24449998  1  0  0.09001  0  0.937683  0  0  0.103843  0  0.999321  0  0  0.106213  0  0.998461  0  0  0.091952  0.102009  0  1.000147  0
H  H29  1  0.88964115  0.77022982  0.75550524  1  0  0.089965  0  0.937642  0  0  0.103798  0  0.99929  0  0  0.106168  0  0.998426  0  0  0.091961  0.101966  0  1.000106  0
H  H30  1  0.86124865  0.09141206  0.23760781  1  0  0.088961  0  0.92342  0  0  0.110404  0  0.973723  0  0  0.111767  0  0.973588  0  0  0.097018  0.109455  0  0.973767  0
H  H31  1  0.13874557  0.90858728  0.76238515  1  0  0.088991  0  0.923423  0  0  0.110421  0  0.973726  0  0  0.111777  0  0.973603  0  0  0.097033  0.109485  0  0.973758  0
H  H32  1  0.90818839  0.98257995  0.10690886  1  0  0.090434  0  0.954547  0  0  0.105652  0  1.018951  0  0  0.106699  0  1.01944  0  0  0.089321  0.104146  0  1.020067  0
H  H33  1  0.09181788  0.01742505  0.89308695  1  0  0.090372  0  0.954581  0  0  0.105546  0  1.019026  0  0  0.106591  0  1.019516  0  0  0.0893  0.104047  0  1.020136  0
H  H34  1  0.64760243  0.27052249  0.15137087  1  0  0.091052  0  0.981884  0  0  0.102142  0  1.053876  0  0  0.103909  0  1.05274  0  0  0.087569  0.100774  0  1.054963  0
H  H35  1  0.35240005  0.72948058  0.84862946  1  0  0.091065  0  0.981826  0  0  0.102216  0  1.053779  0  0  0.103957  0  1.052655  0  0  0.087602  0.100844  0  1.054876  0
H  H36  1  0.83047425  0.30084691  0.24950648  1  0  0.1027  0  0.94031  0  0  0.116741  0  1.001576  0  0  0.119045  0  0.999732  0  0  0.102103  0.114988  0  1.002966  0
H  H37  1  0.16953370  0.69916183  0.75048958  1  0  0.102685  0  0.940255  0  0  0.116728  0  1.001541  0  0  0.119027  0  0.999696  0  0  0.102125  0.114977  0  1.002924  0
H  H38  1  0.60286070  0.37028340  0.97587741  1  0  0.091826  0  0.980784  0  0  0.101487  0  1.04741  0  0  0.104057  0  1.046441  0  0  0.090018  0.099818  0  1.047785  0
H  H39  1  0.39713958  0.62971878  0.02411608  1  0  0.091911  0  0.980721  0  0  0.101546  0  1.047381  0  0  0.104117  0  1.046411  0  0  0.090058  0.099873  0  1.047764  0
H  H40  1  0.65159407  0.56621850  0.90709308  1  0  0.08926  0  0.955977  0  0  0.098932  0  1.019904  0  0  0.102088  0  1.018328  0  0  0.093283  0.096964  0  1.020502  0
H  H41  1  0.34840421  0.43378553  0.09290065  1  0  0.089173  0  0.955972  0  0  0.098901  0  1.019838  0  0  0.102046  0  1.018275  0  0  0.093288  0.096933  0  1.020442  0
H  H42  1  0.88260215  0.71485436  0.00941383  1  0  0.077853  0  0.979676  0  0  0.083395  0  1.051835  0  0  0.085883  0  1.050724  0  0  0.085844  0.08107  0  1.0539  0
H  H43  1  0.11739912  0.28514690  0.99057952  1  0  0.077934  0  0.979643  0  0  0.083452  0  1.051821  0  0  0.085939  0  1.05071  0  0  0.085853  0.081125  0  1.053887  0
H  H44  1  0.05958942  0.67253216  0.17753828  1  0  0.095347  0  0.971488  0  0  0.106348  0  1.034508  0  0  0.10923  0  1.033527  0  0  0.097822  0.104347  0  1.035304  0
H  H45  1  0.94040863  0.32747001  0.82245404  1  0  0.095391  0  0.971496  0  0  0.106389  0  1.034518  0  0  0.109271  0  1.033536  0  0  0.097841  0.104386  0  1.035315  0
C  C46  1  0.15049820  0.55408985  0.33352216  1  0  0.068398  0  3.643503  0  0  0.004073  0  3.918485  0  0  0.012021  0  3.922818  0  0  -0.067034  -0.001274  0  3.915195  0
C  C47  1  0.84950747  0.44591051  0.66647056  1  0  0.068475  0  3.64323  0  0  0.004115  0  3.918292  0  0  0.012056  0  3.922633  0  0  -0.06706  -0.001251  0  3.915026  0
C  C48  1  0.21858049  0.51373171  0.44648094  1  0  0.067457  0  3.637401  0  0  0.004092  0  3.913283  0  0  0.0119  0  3.917393  0  0  -0.067393  -0.00125  0  3.910276  0
C  C49  1  0.78142722  0.48626681  0.55350972  1  0  0.067347  0  3.637486  0  0  0.004055  0  3.913308  0  0  0.011841  0  3.91742  0  0  -0.067396  -0.001278  0  3.910295  0
C  C50  1  0.36496887  0.35974307  0.49839524  1  0  0.220741  0  3.776327  0  0  0.206461  0  4.036906  0  0  0.216732  0  4.05396  0  0  0.078751  0.199718  0  4.024844  0
C  C51  1  0.63503937  0.64025171  0.50159723  1  0  0.220619  0  3.77617  0  0  0.206306  0  4.036835  0  0  0.216552  0  4.053895  0  0  0.0787  0.19957  0  4.024754  0
C  C52  1  0.36057592  0.41021172  0.62788529  1  0  -0.203847  0  3.77576  0  0  -0.225742  0  4.031189  0  0  -0.231004  0  4.051165  0  0  -0.116689  -0.222362  0  4.017769  0
C  C53  1  0.63942936  0.58978584  0.37210665  1  0  -0.20376  0  3.775523  0  0  -0.225612  0  4.030973  0  0  -0.230876  0  4.050955  0  0  -0.116632  -0.222234  0  4.01755  0
C  C54  1  0.43355299  0.35823940  0.71782749  1  0  -0.034655  0  3.776232  0  0  -0.048911  0  4.023279  0  0  -0.04779  0  4.043689  0  0  -0.094112  -0.049255  0  4.009294  0
C  C55  1  0.56645009  0.64175905  0.28216717  1  0  -0.034518  0  3.776513  0  0  -0.048735  0  4.023524  0  0  -0.047611  0  4.043922  0  0  -0.094049  -0.049083  0  4.009546  0
C  C56  1  0.51353280  0.25680449  0.68045620  1  0  -0.102872  0  3.825676  0  0  -0.117417  0  4.078771  0  0  -0.121204  0  4.101068  0  0  -0.112089  -0.115308  0  4.063868  0
C  C57  1  0.48647442  0.74319209  0.31954207  1  0  -0.102959  0  3.825925  0  0  -0.117499  0  4.07902  0  0  -0.121287  0  4.101317  0  0  -0.112181  -0.115392  0  4.064122  0
C  C58  1  0.51901534  0.20774158  0.55190760  1  0  -0.11863  0  3.802589  0  0  -0.137507  0  4.050819  0  0  -0.138671  0  4.073195  0  0  -0.102091  -0.13698  0  4.036147  0
C  C59  1  0.48099058  0.79225405  0.44809210  1  0  -0.118593  0  3.802593  0  0  -0.13745  0  4.05082  0  0  -0.138611  0  4.073192  0  0  -0.102043  -0.136925  0  4.036148  0
C  C60  1  0.44597141  0.25729206  0.45901847  1  0  -0.023668  0  3.775671  0  0  -0.004551  0  4.014256  0  0  -0.008895  0  4.039354  0  0  -0.035387  -0.001547  0  3.997106  0
C  C61  1  0.55403443  0.74270265  0.54097916  1  0  -0.023624  0  3.775519  0  0  -0.004467  0  4.014105  0  0  -0.008821  0  4.039207  0  0  -0.035373  -0.001459  0  3.996945  0
C  C62  1  0.45377928  0.20032773  0.32165437  1  0  -0.166217  0  3.654773  0  0  -0.211042  0  3.914091  0  0  -0.209727  0  3.923221  0  0  -0.146973  -0.212152  0  3.907926  0
C  C63  1  0.54622001  0.79966132  0.67834558  1  0  -0.166118  0  3.654395  0  0  -0.21101  0  3.913716  0  0  -0.209667  0  3.922809  0  0  -0.14693  -0.212132  0  3.907568  0
C  C64  1  0.16878471  0.05615940  0.28254063  1  0  -0.13323  0  3.632533  0  0  -0.169514  0  3.898654  0  0  -0.169891  0  3.910549  0  0  -0.149553  -0.169364  0  3.890527  0
C  C65  1  0.83120019  0.94384903  0.71747089  1  0  -0.133204  0  3.632381  0  0  -0.169466  0  3.8984  0  0  -0.169846  0  3.910288  0  0  -0.149487  -0.169318  0  3.890281  0
C  C66  1  0.09336133  0.12958198  0.19703720  1  0  -0.113566  0  3.697394  0  0  -0.152597  0  3.955927  0  0  -0.154643  0  3.970727  0  0  -0.177792  -0.150821  0  3.94547  0
C  C67  1  0.90663589  0.87042473  0.80296892  1  0  -0.113448  0  3.697002  0  0  -0.15245  0  3.955565  0  0  -0.154466  0  3.970312  0  0  -0.177789  -0.150677  0  3.945106  0
C  C68  1  0.92523909  0.08222273  0.15716173  1  0  -0.139312  0  3.645822  0  0  -0.177311  0  3.911075  0  0  -0.177715  0  3.923615  0  0  -0.152603  -0.176917  0  3.902742  0
C  C69  1  0.07476137  0.91778128  0.84283497  1  0  -0.139259  0  3.645573  0  0  -0.1772  0  3.910795  0  0  -0.177608  0  3.923351  0  0  -0.152559  -0.176822  0  3.902478  0
C  C70  1  0.76996773  0.29412419  0.15496419  1  0  -0.169771  0  3.649115  0  0  -0.213726  0  3.903224  0  0  -0.21233  0  3.912313  0  0  -0.14998  -0.214826  0  3.897184  0
C  C71  1  0.23003611  0.70587985  0.84503291  1  0  -0.169732  0  3.648965  0  0  -0.213809  0  3.903228  0  0  -0.21237  0  3.912298  0  0  -0.150044  -0.214911  0  3.897183  0
C  C72  1  0.80134911  0.41143299  0.11565544  1  0  -0.016933  0  3.771269  0  0  0.002821  0  4.005872  0  0  -0.002176  0  4.031392  0  0  -0.032988  0.006754  0  3.987909  0
C  C73  1  0.19865117  0.58856919  0.88433805  1  0  -0.017023  0  3.771194  0  0  0.002783  0  4.005791  0  0  -0.002223  0  4.031302  0  0  -0.032982  0.006732  0  3.987787  0
C  C74  1  0.70290765  0.43735938  0.01938640  1  0  -0.105148  0  3.752179  0  0  -0.123559  0  3.999395  0  0  -0.124143  0  4.020412  0  0  -0.096354  -0.122126  0  3.983817  0
C  C75  1  0.29709152  0.56264280  0.98060605  1  0  -0.105256  0  3.752032  0  0  -0.123661  0  3.999295  0  0  -0.124241  0  4.020305  0  0  -0.096364  -0.122231  0  3.983715  0
C  C76  1  0.73034376  0.54609252  0.98081477  1  0  -0.098651  0  3.796633  0  0  -0.116424  0  4.056609  0  0  -0.119688  0  4.076807  0  0  -0.11017  -0.113967  0  4.041344  0
C  C77  1  0.26965612  0.45390686  0.01917794  1  0  -0.098486  0  3.796488  0  0  -0.116298  0  4.05646  0  0  -0.119551  0  4.076665  0  0  -0.110183  -0.113844  0  4.041203  0
C  C78  1  0.85857921  0.63010260  0.03917163  1  0  -0.0253  0  3.784799  0  0  -0.043232  0  4.041073  0  0  -0.04163  0  4.06108  0  0  -0.094935  -0.044362  0  4.02793  0
C  C79  1  0.14142306  0.36989773  0.96082160  1  0  -0.025589  0  3.784775  0  0  -0.043499  0  4.041062  0  0  -0.041903  0  4.061073  0  0  -0.095063  -0.044626  0  4.027916  0
C  C80  1  0.95851801  0.60682822  0.13564138  1  0  -0.207513  0  3.79029  0  0  -0.227081  0  4.042616  0  0  -0.233731  0  4.064984  0  0  -0.113464  -0.222646  0  4.02818  0
C  C81  1  0.04148446  0.39317306  0.86434940  1  0  -0.207478  0  3.790337  0  0  -0.227029  0  4.042648  0  0  -0.233682  0  4.065022  0  0  -0.113422  -0.222596  0  4.028204  0
C  C82  1  0.93010716  0.49774245  0.17414170  1  0  0.225683  0  3.784009  0  0  0.213786  0  4.040719  0  0  0.223923  0  4.058445  0  0  0.0815  0.206223  0  4.029142  0
C  C83  1  0.06989396  0.50225787  0.82585230  1  0  0.225826  0  3.784222  0  0  0.213918  0  4.040972  0  0  0.224059  0  4.058703  0  0  0.081497  0.206359  0  4.029373  0
S  S84  1  0.36616175  0.03814090  0.26773215  1  0  0.040196  0  2.742327  0  0  0.062025  0  3.164498  0  0  0.062855  0  3.149854  0  0  -0.032998  0.06182  0  3.173897  0
S  S85  1  0.63382132  0.96184878  0.73228700  1  0  0.040085  0  2.74227  0  0  0.061883  0  3.164523  0  0  0.062705  0  3.149861  0  0  -0.033072  0.061683  0  3.173929  0
S  S86  1  0.83306483  0.15934670  0.04649714  1  0  0.045486  0  2.675694  0  0  0.0738  0  3.09771  0  0  0.073562  0  3.084133  0  0  -0.031387  0.073583  0  3.106762  0
S  S87  1  0.16693055  0.84065354  0.95349982  1  0  0.04545  0  2.675743  0  0  0.073771  0  3.097805  0  0  0.073528  0  3.084206  0  0  -0.031429  0.073544  0  3.106875  0
Br  Br88  1  0.59824043  0.85092935  0.03724231  1  0  -0.471539  0  1.338487  0  0  -0.403453  0  1.700713  0  0  -0.420634  0  1.669996  0  0  -0.259061  -0.392928  0  1.721147  0
Br  Br89  1  0.40174077  0.14910416  0.96287705  1  0  -0.471546  0  1.3385  0  0  -0.403439  0  1.700691  0  0  -0.420558  0  1.669867  0  0  -0.259018  -0.392939  0  1.721166  0
O  O90  1  0.02026408  0.46757491  0.26957853  1  0  -0.294276  0  2.328484  0  0  -0.223527  0  2.570515  0  0  -0.241405  0  2.572686  0  0  -0.185954  -0.210946  0  2.568559  0
O  O91  1  0.97973392  0.53242725  0.73041559  1  0  -0.294298  0  2.328451  0  0  -0.223595  0  2.570545  0  0  -0.241474  0  2.572719  0  0  -0.18594  -0.211012  0  2.568591  0
O  O92  1  0.29303281  0.40535455  0.40506805  1  0  -0.280817  0  2.312179  0  0  -0.208128  0  2.548574  0  0  -0.226204  0  2.551633  0  0  -0.182896  -0.195338  0  2.545933  0
O  O93  1  0.70697653  0.59464023  0.59492546  1  0  -0.280678  0  2.312196  0  0  -0.208065  0  2.548664  0  0  -0.226086  0  2.551698  0  0  -0.182868  -0.195279  0  2.546013  0
