# generated using pymatgen
data_ZnH12C16S(N3O2)2
_symmetry_space_group_name_H-M   'P 1'
_cell_length_a   4.85901300
_cell_length_b   6.04414764
_cell_length_c   27.52548588
_cell_angle_alpha   89.99963706
_cell_angle_beta   90.00023191
_cell_angle_gamma   97.15310555
_symmetry_Int_Tables_number   1
_chemical_formula_structural   ZnH12C16S(N3O2)2
_chemical_formula_sum   'Zn2 H24 C32 S2 N12 O8'
_cell_volume   802.09306334
_cell_formula_units_Z   2
loop_
 _symmetry_equiv_pos_site_id
 _symmetry_equiv_pos_as_xyz
  1  'x, y, z'
loop_
 _atom_site_type_symbol
 _atom_site_label
 _atom_site_symmetry_multiplicity
 _atom_site_fract_x
 _atom_site_fract_y
 _atom_site_fract_z
 _atom_site_occupancy
 _atom_site_hle17_bader_spin_density
 _atom_site_hle17_ddec_charge
 _atom_site_hle17_ddec_spin_density
 _atom_site_hle17_ddec_sum_bond_order
 _atom_site_hle17_magmom
 _atom_site_hse06_10hf_bader_spin_density
 _atom_site_hse06_10hf_ddec_charge
 _atom_site_hse06_10hf_ddec_spin_density
 _atom_site_hse06_10hf_ddec_sum_bond_order
 _atom_site_hse06_10hf_magmom
 _atom_site_hse06_bader_spin_density
 _atom_site_hse06_ddec_charge
 _atom_site_hse06_ddec_spin_density
 _atom_site_hse06_ddec_sum_bond_order
 _atom_site_hse06_magmom
 _atom_site_pbe_bader_spin_density
 _atom_site_pbe_cm5_charge
 _atom_site_pbe_ddec_charge
 _atom_site_pbe_ddec_spin_density
 _atom_site_pbe_ddec_sum_bond_order
 _atom_site_pbe_magmom
Zn  Zn0  1  0.89359638  0.92235935  0.25000296  1  0  1.06889  0  1.855493  0  0  0.890161  0  2.329188  0  0  0.931053  0  2.275929  0  0  0.733266  0.861572  0  2.366004  0
Zn  Zn1  1  0.10642317  0.07761463  0.74999709  1  0  1.068782  0  1.855571  0  0  0.890015  0  2.329311  0  0  0.930906  0  2.276046  0  0  0.733243  0.861431  0  2.366121  0
H  H2  1  0.47122026  0.94699232  0.16054720  1  0  0.101985  0  0.935056  0  0  0.111035  0  0.995763  0  0  0.113135  0  0.993505  0  0  0.139075  0.109407  0  0.997526  0
H  H3  1  0.52884951  0.05303940  0.66054083  1  0  0.101886  0  0.935194  0  0  0.111031  0  0.995802  0  0  0.113133  0  0.99354  0  0  0.139009  0.109398  0  0.997571  0
H  H4  1  0.52879535  0.05304157  0.83945393  1  0  0.101945  0  0.935219  0  0  0.111026  0  0.99591  0  0  0.113123  0  0.993657  0  0  0.139036  0.109398  0  0.997676  0
H  H5  1  0.47115421  0.94692444  0.33945122  1  0  0.101874  0  0.935183  0  0  0.110989  0  0.995845  0  0  0.113086  0  0.993593  0  0  0.139003  0.109358  0  0.997612  0
H  H6  1  0.06588351  0.50632892  0.18456698  1  0  0.137311  0  0.967198  0  0  0.14327  0  1.031054  0  0  0.146692  0  1.027028  0  0  0.146819  0.140681  0  1.033965  0
H  H7  1  0.93417700  0.49366867  0.68456780  1  0  0.137164  0  0.967419  0  0  0.143202  0  1.031079  0  0  0.146622  0  1.027059  0  0  0.146792  0.140607  0  1.034006  0
H  H8  1  0.93410836  0.49365313  0.81543125  1  0  0.137537  0  0.967269  0  0  0.14331  0  1.031318  0  0  0.146729  0  1.027289  0  0  0.146856  0.140723  0  1.034225  0
H  H9  1  0.06586002  0.50632712  0.31544023  1  0  0.137321  0  0.967284  0  0  0.143165  0  1.03122  0  0  0.146608  0  1.027117  0  0  0.146788  0.140575  0  1.03414  0
H  H10  1  0.13717129  0.23996659  0.13569528  1  0  0.121017  0  0.970261  0  0  0.129327  0  1.034084  0  0  0.132417  0  1.03247  0  0  0.107388  0.127039  0  1.035372  0
H  H11  1  0.86296708  0.76009825  0.63570826  1  0  0.121074  0  0.970137  0  0  0.129285  0  1.034096  0  0  0.132314  0  1.032562  0  0  0.107273  0.126992  0  1.035392  0
H  H12  1  0.86284914  0.76007234  0.86430186  1  0  0.120887  0  0.970383  0  0  0.129273  0  1.034115  0  0  0.132369  0  1.032494  0  0  0.107357  0.126987  0  1.035404  0
H  H13  1  0.13703092  0.23986886  0.36429833  1  0  0.120859  0  0.970221  0  0  0.129156  0  1.034081  0  0  0.132246  0  1.032472  0  0  0.107254  0.126866  0  1.035373  0
H  H14  1  0.24319338  0.97393978  0.07375311  1  0  0.091023  0  0.969711  0  0  0.102403  0  1.031594  0  0  0.104841  0  1.030665  0  0  0.100595  0.100646  0  1.032326  0
H  H15  1  0.75689120  0.02612743  0.57377177  1  0  0.091171  0  0.969672  0  0  0.102497  0  1.031596  0  0  0.104933  0  1.030671  0  0  0.10066  0.100743  0  1.03233  0
H  H16  1  0.75686794  0.02614117  0.92623894  1  0  0.091033  0  0.969757  0  0  0.102404  0  1.031634  0  0  0.104841  0  1.030709  0  0  0.100637  0.10064  0  1.032379  0
H  H17  1  0.24304633  0.97383411  0.42623627  1  0  0.091144  0  0.969555  0  0  0.102451  0  1.031517  0  0  0.104888  0  1.030586  0  0  0.100635  0.100699  0  1.032243  0
H  H18  1  0.66177198  0.22655450  0.97562940  1  0  0.090135  0  0.979729  0  0  0.097787  0  1.048449  0  0  0.101157  0  1.045765  0  0  0.100252  0.095325  0  1.050537  0
H  H19  1  0.33824951  0.77348345  0.47562916  1  0  0.089992  0  0.979891  0  0  0.097734  0  1.048523  0  0  0.101103  0  1.045841  0  0  0.100224  0.09527  0  1.050614  0
H  H20  1  0.33828003  0.77347474  0.02436846  1  0  0.089842  0  0.979737  0  0  0.097587  0  1.048417  0  0  0.100957  0  1.045734  0  0  0.100147  0.09512  0  1.050512  0
H  H21  1  0.66175692  0.22654369  0.52437851  1  0  0.090213  0  0.979646  0  0  0.097808  0  1.048402  0  0  0.101178  0  1.045719  0  0  0.10027  0.095346  0  1.050493  0
H  H22  1  0.55460056  0.49129487  0.03871080  1  0  0.105974  0  0.979855  0  0  0.11391  0  1.0467  0  0  0.11697  0  1.044876  0  0  0.107606  0.111705  0  1.04812  0
H  H23  1  0.44546383  0.50876235  0.53871106  1  0  0.105987  0  0.97986  0  0  0.11393  0  1.046703  0  0  0.117006  0  1.044829  0  0  0.107555  0.111724  0  1.048123  0
H  H24  1  0.44541636  0.50871905  0.96128198  1  0  0.106088  0  0.97986  0  0  0.114053  0  1.04665  0  0  0.117113  0  1.044829  0  0  0.107601  0.111845  0  1.048069  0
H  H25  1  0.55455585  0.49125659  0.46129371  1  0  0.106062  0  0.97968  0  0  0.113992  0  1.04654  0  0  0.117055  0  1.044701  0  0  0.107632  0.111788  0  1.047962  0
C  C26  1  0.59953963  0.81471163  0.15489839  1  0  0.214412  0  3.708242  0  0  0.159707  0  4.001836  0  0  0.171282  0  4.014628  0  0  0.154135  0.152103  0  3.993134  0
C  C27  1  0.40053390  0.18532735  0.65489684  1  0  0.214559  0  3.707918  0  0  0.159733  0  4.001547  0  0  0.171306  0  4.014343  0  0  0.154254  0.152128  0  3.992857  0
C  C28  1  0.40050071  0.18532249  0.84510057  1  0  0.214545  0  3.707874  0  0  0.159806  0  4.001498  0  0  0.171382  0  4.014292  0  0  0.154221  0.1522  0  3.992804  0
C  C29  1  0.59947857  0.81465489  0.34510139  1  0  0.214774  0  3.708259  0  0  0.159992  0  4.001849  0  0  0.171563  0  4.014657  0  0  0.154339  0.152386  0  3.99316  0
C  C30  1  0.90586381  0.59457063  0.16826617  1  0  0.205478  0  3.556149  0  0  0.125858  0  3.817792  0  0  0.141516  0  3.826645  0  0  0.177792  0.115975  0  3.811444  0
C  C31  1  0.09419578  0.40544857  0.66826900  1  0  0.205379  0  3.556823  0  0  0.125953  0  3.818085  0  0  0.141607  0  3.826935  0  0  0.17779  0.116063  0  3.811749  0
C  C32  1  0.09409058  0.40543770  0.83172988  1  0  0.205252  0  3.555884  0  0  0.125765  0  3.817498  0  0  0.141431  0  3.826339  0  0  0.177655  0.115878  0  3.811157  0
C  C33  1  0.90582813  0.59452712  0.33173504  1  0  0.205263  0  3.556357  0  0  0.126001  0  3.817887  0  0  0.141667  0  3.826754  0  0  0.177798  0.116108  0  3.811553  0
C  C34  1  0.84024081  0.38457732  0.09036443  1  0  0.168165  0  3.772267  0  0  0.14626  0  4.018525  0  0  0.150204  0  4.041611  0  0  0.098109  0.143868  0  4.002758  0
C  C35  1  0.15980599  0.61544124  0.59036350  1  0  0.167838  0  3.772686  0  0  0.146051  0  4.018829  0  0  0.149984  0  4.041922  0  0  0.098088  0.143662  0  4.003063  0
C  C36  1  0.15976118  0.61541814  0.90963126  1  0  0.168137  0  3.772133  0  0  0.146275  0  4.018351  0  0  0.150212  0  4.04145  0  0  0.098167  0.143882  0  4.002586  0
C  C37  1  0.84013998  0.38450707  0.40963400  1  0  0.167615  0  3.772173  0  0  0.146167  0  4.018132  0  0  0.150087  0  4.04125  0  0  0.098102  0.143779  0  4.002365  0
C  C38  1  0.03201598  0.23670457  0.10064880  1  0  -0.149746  0  3.733703  0  0  -0.172357  0  3.994266  0  0  -0.177229  0  4.016799  0  0  -0.092867  -0.169094  0  3.979071  0
C  C39  1  0.96799518  0.76332094  0.60065279  1  0  -0.149402  0  3.733257  0  0  -0.172009  0  3.993819  0  0  -0.176837  0  4.016398  0  0  -0.092701  -0.168749  0  3.978635  0
C  C40  1  0.96793912  0.76330876  0.89935269  1  0  -0.149557  0  3.733503  0  0  -0.172243  0  3.994017  0  0  -0.177119  0  4.016552  0  0  -0.092792  -0.168982  0  3.978827  0
C  C41  1  0.03197004  0.23663254  0.39935416  1  0  -0.149124  0  3.733536  0  0  -0.17182  0  3.993961  0  0  -0.1767  0  4.016526  0  0  -0.092654  -0.168559  0  3.978769  0
C  C42  1  0.09162581  0.08634857  0.06509734  1  0  -0.08704  0  3.731279  0  0  -0.107159  0  3.979295  0  0  -0.109124  0  4.001607  0  0  -0.08714  -0.105636  0  3.963965  0
C  C43  1  0.90837075  0.91366372  0.56510142  1  0  -0.087289  0  3.731775  0  0  -0.107325  0  3.979734  0  0  -0.109292  0  4.00204  0  0  -0.087154  -0.105802  0  3.964399  0
C  C44  1  0.90836249  0.91366674  0.93490198  1  0  -0.086944  0  3.731491  0  0  -0.107058  0  3.979462  0  0  -0.109024  0  4.001779  0  0  -0.087133  -0.105528  0  3.964132  0
C  C45  1  0.09155076  0.08630100  0.43490262  1  0  -0.08747  0  3.731814  0  0  -0.107522  0  3.979891  0  0  -0.109498  0  4.00223  0  0  -0.087312  -0.105996  0  3.964554  0
C  C46  1  0.96495538  0.07848255  0.01895339  1  0  0.046305  0  3.762705  0  0  0.060263  0  3.993437  0  0  0.059851  0  4.017704  0  0  -0.008815  0.060515  0  3.976972  0
C  C47  1  0.03503148  0.92151096  0.51896144  1  0  0.045953  0  3.762888  0  0  0.059934  0  3.993676  0  0  0.059522  0  4.017947  0  0  -0.00889  0.060191  0  3.977213  0
C  C48  1  0.03508201  0.92155987  0.98104375  1  0  0.045496  0  3.76318  0  0  0.059587  0  3.993821  0  0  0.059176  0  4.018084  0  0  -0.009056  0.059842  0  3.977356  0
C  C49  1  0.96489528  0.07844715  0.48104587  1  0  0.0464  0  3.762432  0  0  0.060381  0  3.993197  0  0  0.059971  0  4.017461  0  0  -0.008712  0.060631  0  3.97674  0
C  C50  1  0.76881952  0.22680084  0.01039234  1  0  -0.090908  0  3.731713  0  0  -0.109157  0  3.978422  0  0  -0.111403  0  3.999687  0  0  -0.085038  -0.107508  0  3.963948  0
C  C51  1  0.23121657  0.77323563  0.51039509  1  0  -0.090579  0  3.731545  0  0  -0.108857  0  3.978205  0  0  -0.111106  0  3.999476  0  0  -0.084986  -0.10721  0  3.963734  0
C  C52  1  0.23122747  0.77323667  0.98960116  1  0  -0.090297  0  3.731515  0  0  -0.108619  0  3.978137  0  0  -0.110866  0  3.999404  0  0  -0.084831  -0.10697  0  3.963657  0
C  C53  1  0.76878185  0.22679310  0.48961149  1  0  -0.091083  0  3.732216  0  0  -0.109236  0  3.978951  0  0  -0.111486  0  4.000222  0  0  -0.085091  -0.107588  0  3.96448  0
C  C54  1  0.70651855  0.37773574  0.04546789  1  0  -0.135315  0  3.757604  0  0  -0.156925  0  4.012137  0  0  -0.160266  0  4.033286  0  0  -0.08961  -0.154611  0  3.997593  0
C  C55  1  0.29353339  0.62230902  0.54547743  1  0  -0.135362  0  3.758097  0  0  -0.157037  0  4.012662  0  0  -0.160372  0  4.033831  0  0  -0.089626  -0.154722  0  3.998119  0
C  C56  1  0.29351331  0.62229663  0.95452416  1  0  -0.135495  0  3.758034  0  0  -0.15718  0  4.01262  0  0  -0.160525  0  4.033777  0  0  -0.089662  -0.154859  0  3.998068  0
C  C57  1  0.70647656  0.37766987  0.45453352  1  0  -0.13534  0  3.758616  0  0  -0.157083  0  4.013135  0  0  -0.160426  0  4.034311  0  0  -0.089663  -0.154771  0  3.998588  0
S  S58  1  0.43832845  0.22436615  0.25000039  1  0  1.550734  0  5.847714  0  0  1.436727  0  6.376775  0  0  1.491547  0  6.342564  0  0  0.549432  1.398661  0  6.399423  0
S  S59  1  0.56165887  0.77562751  0.74999893  1  0  1.550716  0  5.847814  0  0  1.436697  0  6.37688  0  0  1.491517  0  6.34267  0  0  0.549351  1.398633  0  6.399531  0
N  N60  1  0.78246344  0.54637359  0.12500366  1  0  0.023232  0  3.563512  0  0  0.143469  0  3.73797  0  0  0.134508  0  3.757398  0  0  -0.10906  0.148601  0  3.725762  0
N  N61  1  0.21760921  0.45366672  0.62500661  1  0  0.023599  0  3.563396  0  0  0.143691  0  3.737842  0  0  0.134754  0  3.757227  0  0  -0.108879  0.148823  0  3.72564  0
N  N62  1  0.21751798  0.45363666  0.87499457  1  0  0.023235  0  3.563387  0  0  0.143528  0  3.737724  0  0  0.134582  0  3.757123  0  0  -0.109029  0.148662  0  3.725518  0
N  N63  1  0.78237783  0.54631028  0.37499416  1  0  0.024081  0  3.562577  0  0  0.143726  0  3.737458  0  0  0.134824  0  3.756778  0  0  -0.10883  0.148855  0  3.725257  0
N  N64  1  0.58533035  0.68550755  0.11611563  1  0  -0.264578  0  2.849016  0  0  -0.26659  0  3.123858  0  0  -0.274425  0  3.136755  0  0  -0.215446  -0.261204  0  3.115208  0
N  N65  1  0.41476209  0.31455715  0.61611766  1  0  -0.264885  0  2.848996  0  0  -0.266879  0  3.123917  0  0  -0.27472  0  3.136814  0  0  -0.215695  -0.261497  0  3.115275  0
N  N66  1  0.41467200  0.31453454  0.88388333  1  0  -0.264598  0  2.848931  0  0  -0.266663  0  3.123819  0  0  -0.2745  0  3.136716  0  0  -0.215498  -0.261275  0  3.115167  0
N  N67  1  0.58522429  0.68542983  0.38387875  1  0  -0.265136  0  2.849027  0  0  -0.267002  0  3.124005  0  0  -0.274852  0  3.136901  0  0  -0.215796  -0.261622  0  3.115366  0
N  N68  1  0.79442729  0.76545060  0.18776289  1  0  -0.413972  0  3.266413  0  0  -0.332076  0  3.579148  0  0  -0.354817  0  3.587716  0  0  -0.351027  -0.316856  0  3.573111  0
N  N69  1  0.20562280  0.23456987  0.68776342  1  0  -0.413781  0  3.266407  0  0  -0.331988  0  3.579191  0  0  -0.354728  0  3.587758  0  0  -0.350955  -0.316772  0  3.573163  0
N  N70  1  0.20556396  0.23455641  0.81223134  1  0  -0.413906  0  3.265791  0  0  -0.332032  0  3.578523  0  0  -0.354774  0  3.587083  0  0  -0.350934  -0.316812  0  3.572494  0
N  N71  1  0.79441811  0.76542429  0.31223989  1  0  -0.414131  0  3.266656  0  0  -0.332309  0  3.579392  0  0  -0.355058  0  3.587962  0  0  -0.351024  -0.31709  0  3.573368  0
O  O72  1  0.36300307  0.33410083  0.20523682  1  0  -0.708403  0  1.958516  0  0  -0.660507  0  2.207623  0  0  -0.681347  0  2.192742  0  0  -0.357355  -0.645661  0  2.217365  0
O  O73  1  0.63701046  0.66590755  0.70523492  1  0  -0.708427  0  1.958471  0  0  -0.66054  0  2.207582  0  0  -0.681374  0  2.192698  0  0  -0.357344  -0.645633  0  2.217206  0
O  O74  1  0.63700163  0.66588466  0.79476032  1  0  -0.708463  0  1.958501  0  0  -0.660518  0  2.207618  0  0  -0.681357  0  2.192738  0  0  -0.35744  -0.645679  0  2.217359  0
O  O75  1  0.36298768  0.33410452  0.29476185  1  0  -0.708484  0  1.958517  0  0  -0.660509  0  2.207578  0  0  -0.681363  0  2.192708  0  0  -0.357393  -0.645612  0  2.217212  0
O  O76  1  0.30510413  0.98093330  0.24999941  1  0  -0.778672  0  2.002463  0  0  -0.705621  0  2.299814  0  0  -0.728398  0  2.275304  0  0  -0.380289  -0.689456  0  2.316248  0
O  O77  1  0.69488389  0.01906535  0.75000281  1  0  -0.778653  0  2.002431  0  0  -0.705585  0  2.299764  0  0  -0.728358  0  2.275257  0  0  -0.380254  -0.689419  0  2.316196  0
O  O78  1  0.74833219  0.21206421  0.25000341  1  0  -0.750669  0  2.028772  0  0  -0.678016  0  2.326715  0  0  -0.701841  0  2.303495  0  0  -0.373169  -0.661108  0  2.341984  0
O  O79  1  0.25164750  0.78790439  0.74999627  1  0  -0.750657  0  2.028793  0  0  -0.677957  0  2.326696  0  0  -0.701781  0  2.303483  0  0  -0.373055  -0.661051  0  2.341969  0
