# generated using pymatgen
data_CoH28C32(SN7)2
_symmetry_space_group_name_H-M   'P 1'
_cell_length_a   9.12775624
_cell_length_b   9.16812285
_cell_length_c   11.45022397
_cell_angle_alpha   89.60098122
_cell_angle_beta   65.06390466
_cell_angle_gamma   79.54579280
_symmetry_Int_Tables_number   1
_chemical_formula_structural   CoH28C32(SN7)2
_chemical_formula_sum   'Co1 H28 C32 S2 N14'
_cell_volume   851.85474890
_cell_formula_units_Z   1
loop_
 _symmetry_equiv_pos_site_id
 _symmetry_equiv_pos_as_xyz
  1  'x, y, z'
loop_
 _atom_site_type_symbol
 _atom_site_label
 _atom_site_symmetry_multiplicity
 _atom_site_fract_x
 _atom_site_fract_y
 _atom_site_fract_z
 _atom_site_occupancy
 _atom_site_hle17_ddec_charge
 _atom_site_hle17_ddec_spin_density
 _atom_site_hle17_ddec_sum_bond_order
 _atom_site_hle17_magmom
 _atom_site_hse06_10hf_ddec_charge
 _atom_site_hse06_10hf_ddec_spin_density
 _atom_site_hse06_10hf_ddec_sum_bond_order
 _atom_site_hse06_10hf_magmom
 _atom_site_hse06_ddec_charge
 _atom_site_hse06_ddec_spin_density
 _atom_site_hse06_ddec_sum_bond_order
 _atom_site_hse06_magmom
 _atom_site_pbe_cm5_charge
 _atom_site_pbe_ddec_charge
 _atom_site_pbe_ddec_spin_density
 _atom_site_pbe_ddec_sum_bond_order
 _atom_site_pbe_magmom
Co  Co0  1  0.99999496  0.00000082  0.00000352  1  0.634639  -1.172322  2.854365  -1.038  0.613115  -1.02189  3.304753  -0.938  0.662517  -1.023226  3.243374  -0.948  0.750782  0.586925  -1.011106  3.339687  -0.917
H  H1  1  0.76663394  0.40638247  0.94329008  1  0.118393  1.7e-05  0.942858  0.0  0.127744  4.5e-05  1.004244  0.0  0.130408  3.6e-05  1.003488  0.0  0.10981  0.125761  4.6e-05  1.004886  0.0
H  H2  1  0.23336866  0.59361793  0.05670501  1  0.118418  1.7e-05  0.94294  0.0  0.127782  4.5e-05  1.004293  0.0  0.130448  3.6e-05  1.003536  0.0  0.109791  0.125799  4.6e-05  1.004934  0.0
H  H3  1  0.95701313  0.37709522  0.70715690  1  0.079426  0.000106  1.006746  0.0  0.089232  1e-06  1.071311  0.0  0.090526  3e-06  1.073186  0.0  0.094348  0.088145  1e-06  1.070232  0.0
H  H4  1  0.04298342  0.62291063  0.29283660  1  0.079411  0.000106  1.006742  0.0  0.089208  1e-06  1.071325  0.0  0.090502  3e-06  1.073203  0.0  0.09434  0.088121  1e-06  1.070245  0.0
H  H5  1  0.13908793  0.55197227  0.60759960  1  0.085988  0.0  0.94663  0.0  0.100403  3.6e-05  0.999506  0.0  0.103339  2.2e-05  0.998353  0.0  0.100076  0.098095  3.8e-05  1.000804  0.0
H  H6  1  0.86090618  0.44803804  0.39239990  1  0.086004  0.0  0.946563  0.0  0.100409  3.6e-05  0.999453  0.0  0.103345  2.2e-05  0.998302  0.0  0.100081  0.098105  3.8e-05  1.000749  0.0
H  H7  1  0.14071376  0.77097261  0.73807223  1  0.115416  0.000243  0.958244  0.0  0.124751  7.8e-05  1.017995  0.0  0.127007  7.7e-05  1.017284  0.0  0.109822  0.123084  5.5e-05  1.018616  0.0
H  H8  1  0.85928503  0.22903332  0.26192580  1  0.115408  0.000242  0.958169  0.0  0.124695  7.8e-05  1.018004  0.0  0.126949  7.7e-05  1.017286  0.0  0.109794  0.123029  5.5e-05  1.018628  0.0
H  H9  1  0.65639707  0.48238104  0.18274554  1  0.083824  1.9e-05  0.954463  0.0  0.095539  2.9e-05  1.024379  0.0  0.096055  2.1e-05  1.024745  0.0  0.108219  0.09489  3.3e-05  1.025302  0.0
H  H10  1  0.34360487  0.51762161  0.81725325  1  0.083806  1.8e-05  0.954439  0.0  0.09553  2.9e-05  1.02438  0.0  0.096045  2.1e-05  1.024748  0.0  0.10822  0.094881  3.3e-05  1.025297  0.0
H  H11  1  0.63495297  0.63316220  0.28947529  1  0.082391  0.000106  0.90844  0.0  0.100693  4.5e-05  0.964115  0.0  0.101184  2.8e-05  0.964079  0.0  0.117959  0.100178  6.2e-05  0.965061  0.0
H  H12  1  0.36504986  0.36683709  0.71052060  1  0.082343  0.000105  0.908476  0.0  0.100675  4.5e-05  0.964139  0.0  0.101161  2.8e-05  0.964118  0.0  0.117947  0.100161  6.2e-05  0.965082  0.0
H  H13  1  0.72210656  0.96025958  0.32607771  1  0.113998  -4.8e-05  0.960452  0.0  0.119964  -5.9e-05  1.026083  0.0  0.122823  -3.4e-05  1.024225  0.0  0.107159  0.11798  -8.4e-05  1.027324  0.0
H  H14  1  0.27788983  0.03974074  0.67392549  1  0.114014  -4.8e-05  0.960462  0.0  0.119968  -5.9e-05  1.026097  0.0  0.122826  -3.3e-05  1.024235  0.0  0.107154  0.117984  -8.4e-05  1.027338  0.0
H  H15  1  0.63618776  0.86535290  0.54914332  1  0.086461  6.1e-05  0.963324  0.0  0.095879  2.6e-05  1.024764  0.0  0.098787  2.2e-05  1.023958  0.0  0.092247  0.093916  3.8e-05  1.025168  0.0
H  H16  1  0.36381924  0.13464318  0.45085913  1  0.086451  6e-05  0.96338  0.0  0.095883  2.6e-05  1.024805  0.0  0.098792  2.3e-05  1.023998  0.0  0.092249  0.093919  3.8e-05  1.025212  0.0
H  H17  1  0.83890186  0.77554813  0.63287804  1  0.091915  0.000145  0.977518  0.0  0.099848  7.7e-05  1.045151  0.0  0.102427  6.2e-05  1.04448  0.0  0.091258  0.097873  8.6e-05  1.045918  0.0
H  H18  1  0.16110686  0.22444126  0.36712039  1  0.091999  0.000144  0.977517  0.0  0.099883  7.7e-05  1.045156  0.0  0.102456  6.2e-05  1.044506  0.0  0.091268  0.097907  8.5e-05  1.045924  0.0
H  H19  1  0.13859158  0.77620385  0.50395273  1  0.10173  -0.000143  0.956515  0.0  0.113634  -0.000133  1.015515  0.0  0.11619  -9.3e-05  1.015006  0.0  0.104166  0.111788  -0.000198  1.015985  0.0
H  H20  1  0.86141274  0.22378986  0.49603836  1  0.101766  -0.000143  0.956501  0.0  0.113672  -0.000133  1.015495  0.0  0.11623  -9.3e-05  1.014981  0.0  0.104164  0.111827  -0.000198  1.015964  0.0
H  H21  1  0.40354919  0.86224893  0.33237973  1  0.074497  3.3e-05  0.91559  0.0  0.093093  -8e-06  0.974322  0.0  0.093346  7e-06  0.974572  0.0  0.110865  0.09292  -1.1e-05  0.975174  0.0
H  H22  1  0.59645068  0.13775255  0.66761798  1  0.074496  3.3e-05  0.915634  0.0  0.093073  -8e-06  0.974356  0.0  0.093326  7e-06  0.974602  0.0  0.110842  0.0929  -1.1e-05  0.975213  0.0
H  H23  1  0.48639306  0.90021114  0.16715233  1  0.103819  7.7e-05  0.911793  0.0  0.113595  2.4e-05  0.978695  0.0  0.11467  1.6e-05  0.977912  0.0  0.123075  0.112677  2.4e-05  0.980463  0.0
H  H24  1  0.51360401  0.09978693  0.83284630  1  0.103843  7.7e-05  0.911805  0.0  0.113629  2.4e-05  0.978663  0.0  0.114685  1.6e-05  0.977902  0.0  0.123089  0.112714  2.4e-05  0.980431  0.0
H  H25  1  0.37443431  0.60566700  0.26667564  1  0.081987  7.4e-05  0.936355  0.0  0.101226  6.6e-05  0.994644  0.0  0.102207  4.9e-05  0.994808  0.0  0.093845  0.100467  7.6e-05  0.994764  0.0
H  H26  1  0.62556880  0.39433118  0.73332017  1  0.081951  7.4e-05  0.936342  0.0  0.101226  6.6e-05  0.994611  0.0  0.102206  4.9e-05  0.994776  0.0  0.093832  0.100468  7.6e-05  0.99473  0.0
H  H27  1  0.46879613  0.64508888  0.10322072  1  0.085834  0.000199  0.940037  0.0  0.096849  9.1e-05  1.013923  0.0  0.098148  6.7e-05  1.014068  0.0  0.094129  0.095831  0.000102  1.014139  0.0
H  H28  1  0.53120734  0.35491267  0.89677583  1  0.085829  0.000198  0.940016  0.0  0.096849  9e-05  1.013921  0.0  0.098149  6.7e-05  1.014065  0.0  0.094126  0.09583  0.000102  1.014134  0.0
C  C29  1  0.84886288  0.60791193  0.96917851  1  0.095094  -0.001791  3.793094  -0.003  0.07684  -0.000215  4.042952  -0.001  0.081387  -0.000319  4.063998  -0.001  0.106745  0.065323  -0.000137  4.026021  -0.001
C  C30  1  0.15113763  0.39209181  0.03081986  1  0.095184  -0.001789  3.792952  -0.003  0.076737  -0.000215  4.043056  -0.001  0.081297  -0.000321  4.064116  -0.001  0.106789  0.065252  -0.000137  4.026126  -0.001
C  C31  1  0.84666697  0.48501963  0.89826418  1  -0.124178  0.005583  3.708358  0.004  -0.14408  0.001446  3.96905  0.001  -0.146824  0.001348  3.987471  0.001  -0.088621  -0.142636  0.001672  3.958479  0.001
C  C32  1  0.15332979  0.51498961  0.10173535  1  -0.12432  0.005575  3.708507  0.004  -0.144183  0.001444  3.96926  0.001  -0.146925  0.001346  3.98768  0.001  -0.088629  -0.142739  0.001672  3.958681  0.001
C  C33  1  0.95290179  0.46973409  0.76787072  1  -0.045816  -0.002589  3.74552  -0.003  -0.066075  -0.0005  4.001428  -0.001  -0.066419  -0.000582  4.022693  -0.001  -0.090747  -0.065721  -0.000423  3.987125  -0.001
C  C34  1  0.04709606  0.53027071  0.23212761  1  -0.045741  -0.002588  3.745398  -0.003  -0.065979  -0.000499  4.001289  -0.001  -0.066324  -0.000581  4.022551  -0.001  -0.090741  -0.065627  -0.000422  3.986987  -0.001
C  C35  1  0.05786517  0.57132876  0.71057252  1  -0.082127  0.004985  3.772981  0.003  -0.09473  0.001616  4.025884  0.001  -0.097732  0.001369  4.046875  0.001  -0.095277  -0.092849  0.001862  4.01206  0.001
C  C36  1  0.94212943  0.42867483  0.28942424  1  -0.0822  0.004981  3.772999  0.003  -0.094796  0.001618  4.025888  0.001  -0.097799  0.001371  4.046874  0.001  -0.095282  -0.092918  0.001861  4.01207  0.001
C  C37  1  0.05989500  0.69286298  0.78101516  1  -0.112089  -0.002362  3.715892  -0.003  -0.134036  -0.00044  3.966376  -0.001  -0.134563  -0.000548  3.985675  -0.001  -0.082211  -0.133957  -0.000306  3.95387  -0.001
C  C38  1  0.94010535  0.30714184  0.21897976  1  -0.112028  -0.002357  3.715954  -0.003  -0.133954  -0.00044  3.966414  -0.001  -0.134456  -0.000549  3.985726  -0.001  -0.082132  -0.133875  -0.000306  3.953911  -0.001
C  C39  1  0.95199048  0.71102358  0.91300117  1  0.113772  0.005191  3.777034  0.004  0.110195  0.001838  4.031859  0.001  0.111137  0.00187  4.05404  0.001  0.100703  0.108747  0.001675  4.020469  0.001
C  C40  1  0.04801072  0.28898240  0.08699609  1  0.1138  0.005188  3.776886  0.004  0.110334  0.001838  4.031658  0.001  0.111217  0.00187  4.053913  0.001  0.100687  0.108888  0.001675  4.020261  0.001
C  C41  1  0.63074321  0.60408063  0.19822298  1  -0.009702  -3e-05  3.649677  -0.001  -0.074029  3.3e-05  3.909167  0.0  -0.069509  1.8e-05  3.919393  0.0  -0.046435  -0.085173  3.6e-05  3.899237  0.0
C  C42  1  0.36925163  0.39592185  0.80177459  1  -0.009511  -2.9e-05  3.64935  -0.001  -0.073912  3.3e-05  3.908986  0.0  -0.069394  1.8e-05  3.919205  0.0  -0.046401  -0.085027  3.6e-05  3.899062  0.0
C  C43  1  0.97876404  0.91812637  0.29209057  1  0.103574  0.000498  3.811956  -0.001  0.102558  -0.000913  4.069799  -0.002  0.10206  -0.000246  4.092581  -0.001  0.092758  0.102261  -0.00152  4.057493  -0.003
C  C44  1  0.02124048  0.08186518  0.70791095  1  0.103636  0.00049  3.811917  -0.001  0.102574  -0.000914  4.069771  -0.002  0.102074  -0.000245  4.092553  -0.001  0.09272  0.102278  -0.00152  4.057468  -0.003
C  C45  1  0.81005053  0.92094941  0.36591395  1  -0.122544  -0.001298  3.743432  -0.002  -0.144665  -0.000198  3.998971  0.0  -0.145019  -0.000348  4.01816  -0.001  -0.085886  -0.144198  -9.5e-05  3.985872  0.0
C  C46  1  0.18995123  0.07904321  0.63409106  1  -0.122539  -0.00129  3.74335  -0.002  -0.144657  -0.000198  3.998899  0.0  -0.14501  -0.000348  4.018083  -0.001  -0.085829  -0.144189  -9.5e-05  3.985797  0.0
C  C47  1  0.76498809  0.86797544  0.48771221  1  -0.093499  0.003098  3.790613  0.002  -0.106767  0.000826  4.044715  0.0  -0.110737  0.000929  4.067154  0.001  -0.102193  -0.10407  0.000632  4.029021  0.0
C  C48  1  0.23501819  0.13201840  0.51229223  1  -0.093495  0.003086  3.790526  0.002  -0.106777  0.000825  4.044603  0.0  -0.110745  0.000929  4.067038  0.001  -0.102215  -0.104081  0.000632  4.028907  0.0
C  C49  1  0.88252463  0.81462664  0.53622124  1  -0.055492  -0.001198  3.768657  -0.002  -0.076036  -0.000123  4.025673  0.0  -0.075885  -0.0003  4.046562  0.0  -0.092624  -0.075921  -3.9e-05  4.01121  0.0
C  C50  1  0.11748257  0.18535935  0.46377508  1  -0.055553  -0.001191  3.768637  -0.002  -0.076037  -0.000123  4.025668  0.0  -0.075888  -0.0003  4.046555  0.0  -0.09263  -0.07592  -3.9e-05  4.011199  0.0
C  C51  1  0.04900467  0.81409455  0.46534904  1  -0.151235  0.002601  3.773772  0.002  -0.169141  0.00039  4.031265  0.0  -0.173238  0.000616  4.051544  0.0  -0.095764  -0.165998  0.000238  4.018746  0.0
C  C52  1  0.95100109  0.18589252  0.53464687  1  -0.151336  0.002586  3.773891  0.002  -0.169258  0.000389  4.031346  0.0  -0.173354  0.000616  4.051623  0.0  -0.095753  -0.166112  0.000238  4.018834  0.0
C  C53  1  0.09451731  0.86780688  0.34267456  1  0.083088  -0.00216  3.821836  -0.003  0.070173  -0.00115  4.064541  -0.002  0.074654  -0.001026  4.086542  -0.001  0.100333  0.058317  -0.001368  4.04744  -0.002
C  C54  1  0.90549104  0.13217913  0.65732314  1  0.083047  -0.002156  3.821771  -0.003  0.070181  -0.00115  4.064431  -0.002  0.074662  -0.001026  4.086433  -0.001  0.100263  0.0583  -0.001368  4.047334  -0.002
C  C55  1  0.40681390  0.83443390  0.23790038  1  -0.010157  -0.000397  3.630892  -0.001  -0.077195  -0.000327  3.900602  -0.001  -0.072576  -0.000245  3.910792  0.0  -0.046703  -0.089007  -0.000439  3.891657  -0.001
C  C56  1  0.59318586  0.16556310  0.76209652  1  -0.010219  -0.000397  3.630911  -0.001  -0.077177  -0.000326  3.900521  -0.001  -0.072541  -0.000245  3.910709  0.0  -0.046688  -0.089027  -0.000439  3.89162  -0.001
C  C57  1  0.46382777  0.66725655  0.19932896  1  -0.156275  0.000794  3.684728  0.001  -0.200958  0.000315  3.94776  0.0  -0.203454  0.00026  3.960511  0.0  -0.162653  -0.200075  0.000358  3.943653  0.0
C  C58  1  0.53617090  0.33274491  0.80066913  1  -0.156292  0.000795  3.684488  0.001  -0.201044  0.000314  3.947618  0.0  -0.20354  0.000257  3.960362  0.0  -0.162653  -0.200161  0.000358  3.943503  0.0
C  C59  1  0.65093400  0.17359742  0.13833020  1  0.26638  0.021653  4.053865  0.015  0.256296  0.008781  4.37434  0.006  0.281585  0.008237  4.384357  0.005  0.132574  0.239254  0.008565  4.366582  0.005
C  C60  1  0.34906531  0.82639860  0.86168956  1  0.266214  0.021668  4.054028  0.015  0.256135  0.008784  4.374543  0.006  0.28143  0.00824  4.384565  0.005  0.132535  0.239089  0.008569  4.366783  0.005
S  S61  1  0.46697293  0.27171210  0.18168514  1  -0.379341  0.027998  1.9891  0.015  -0.379487  0.006442  2.282938  0.003  -0.394033  0.005361  2.276027  0.002  -0.195971  -0.368051  0.006941  2.28695  0.003
S  S62  1  0.53301364  0.72829257  0.81833166  1  -0.379192  0.028017  1.98954  0.015  -0.379351  0.006447  2.283398  0.003  -0.393897  0.005365  2.276487  0.002  -0.195917  -0.367917  0.006947  2.287409  0.003
N  N63  1  0.91875788  0.81774415  0.01062400  1  -0.158368  0.006284  3.302656  0.0  -0.135923  0.004244  3.617392  0.002  -0.153147  0.004052  3.629993  0.002  -0.206226  -0.126589  0.003445  3.612674  0.001
N  N64  1  0.08124129  0.18225958  0.98937916  1  -0.158326  0.006285  3.302366  0.0  -0.135881  0.004245  3.617066  0.002  -0.153085  0.004055  3.629679  0.002  -0.206195  -0.126548  0.003445  3.612343  0.001
N  N65  1  0.80574939  0.78554003  0.11920987  1  -0.044373  0.025342  2.849279  0.02  -0.047464  0.009576  3.134125  0.007  -0.036917  0.006892  3.143025  0.005  -0.059435  -0.06375  0.011574  3.123895  0.008
N  N66  1  0.19424738  0.21445916  0.88078972  1  -0.044383  0.025334  2.849026  0.02  -0.047471  0.009572  3.133866  0.007  -0.036925  0.00689  3.142758  0.005  -0.059457  -0.063726  0.011571  3.12365  0.008
N  N67  1  0.76381065  0.65921613  0.09637574  1  0.004023  0.008198  3.529301  0.006  0.08868  0.003587  3.754663  0.003  0.076192  0.002647  3.778918  0.002  -0.124932  0.124158  0.004192  3.703157  0.003
N  N68  1  0.23618735  0.34078307  0.90362258  1  0.003885  0.008197  3.529359  0.006  0.088584  0.003586  3.754844  0.003  0.076101  0.002646  3.779092  0.002  -0.124978  0.123979  0.004191  3.703417  0.003
N  N69  1  0.06511983  0.95752540  0.16857275  1  -0.205414  -0.033842  3.129817  -0.058  -0.185351  -0.029397  3.434497  -0.049  -0.196867  -0.024231  3.445616  -0.041  -0.18087  -0.177208  -0.034745  3.429626  -0.056
N  N70  1  0.93487656  0.04247492  0.83143045  1  -0.205525  -0.033841  3.130057  -0.058  -0.185416  -0.029397  3.434702  -0.049  -0.196931  -0.024232  3.445822  -0.041  -0.18089  -0.177271  -0.034744  3.429835  -0.056
N  N71  1  0.22145809  0.93766014  0.14297456  1  -0.033961  0.011548  2.844341  0.009  -0.042365  0.002989  3.131839  0.002  -0.034215  0.003456  3.140975  0.002  -0.061196  -0.0566  0.002358  3.120789  0.001
N  N72  1  0.77854142  0.06234247  0.85702588  1  -0.0339  0.011546  2.844445  0.009  -0.042317  0.002988  3.131936  0.002  -0.034168  0.003454  3.141072  0.002  -0.061168  -0.056572  0.002359  3.120879  0.001
N  N73  1  0.24202089  0.88441578  0.24651075  1  -0.004829  0.002435  3.528831  0.001  0.080352  -6.4e-05  3.755389  -0.001  0.067081  0.000407  3.780333  -0.001  -0.13  0.116296  -0.000514  3.704463  -0.002
N  N74  1  0.75798066  0.11558351  0.75348818  1  -0.0048  0.002433  3.528746  0.001  0.080342  -6.6e-05  3.755273  -0.001  0.067071  0.000407  3.780215  -0.001  -0.12997  0.116347  -0.000514  3.704282  -0.002
N  N75  1  0.78612090  0.10338599  0.10711411  1  -0.49951  0.004729  3.230565  -0.005  -0.485792  0.001872  3.552903  -0.001  -0.511323  0.001711  3.556467  -0.001  -0.417744  -0.469611  0.00132  3.549158  -0.001
N  N76  1  0.21386554  0.89661976  0.89289835  1  -0.499486  0.004736  3.230325  -0.005  -0.485725  0.001872  3.552532  -0.001  -0.511264  0.001711  3.556104  -0.001  -0.417748  -0.469539  0.00132  3.548784  -0.001
