# generated using pymatgen
data_Zn3H25C42N5O13
_symmetry_space_group_name_H-M   'P 1'
_cell_length_a   10.14998756
_cell_length_b   22.98997095
_cell_length_c   26.80527435
_cell_angle_alpha   89.99993533
_cell_angle_beta   95.25079566
_cell_angle_gamma   90.00037215
_symmetry_Int_Tables_number   1
_chemical_formula_structural   Zn3H25C42N5O13
_chemical_formula_sum   'Zn12 H100 C168 N20 O52'
_cell_volume   6228.70705270
_cell_formula_units_Z   4
loop_
 _symmetry_equiv_pos_site_id
 _symmetry_equiv_pos_as_xyz
  1  'x, y, z'
loop_
 _atom_site_type_symbol
 _atom_site_label
 _atom_site_symmetry_multiplicity
 _atom_site_fract_x
 _atom_site_fract_y
 _atom_site_fract_z
 _atom_site_occupancy
 _atom_site_pbe_bader_charge
 _atom_site_pbe_bader_spin_density
 _atom_site_pbe_cm5_charge
 _atom_site_pbe_ddec_charge
 _atom_site_pbe_ddec_spin_density
 _atom_site_pbe_ddec_sum_bond_order
 _atom_site_pbe_magmom
Zn  Zn0  1  0.34216530  0.19027111  0.27183995  1  1.332483  0  0.687093  0.842049  0  2.349088  0
Zn  Zn1  1  0.15783326  0.69027281  0.22816048  1  1.332523  0  0.687047  0.841986  0  2.34911  0
Zn  Zn2  1  0.65783617  0.80972920  0.72816031  1  1.332375  0  0.687114  0.842077  0  2.34902  0
Zn  Zn3  1  0.84217019  0.30972880  0.77184022  1  1.332457  0  0.687046  0.841965  0  2.349189  0
Zn  Zn4  1  0.03802384  0.24801852  0.18383866  1  1.300792  0  0.690849  0.86361  0  2.340042  0
Zn  Zn5  1  0.46197063  0.74801967  0.31616269  1  1.300586  0  0.690861  0.863655  0  2.339954  0
Zn  Zn6  1  0.96197664  0.75198092  0.81616045  1  1.300772  0  0.690831  0.863611  0  2.339982  0
Zn  Zn7  1  0.53803084  0.25198281  0.68383757  1  1.300865  0  0.690819  0.863548  0  2.340076  0
Zn  Zn8  1  0.37000239  0.50979412  0.00728100  1  1.311859  0  0.659983  0.909997  0  2.343408  0
Zn  Zn9  1  0.12999651  0.00979370  0.49271999  1  1.311634  0  0.659965  0.909974  0  2.343459  0
Zn  Zn10  1  0.62999710  0.49020444  0.99271994  1  1.311603  0  0.659956  0.90995  0  2.343431  0
Zn  Zn11  1  0.87000397  0.99020617  0.50728061  1  1.311753  0  0.660008  0.909988  0  2.3433  0
H  H12  1  0.13384390  0.47432223  0.00272564  1  0.636369  0  0.343612  0.420344  0  0.848726  0
H  H13  1  0.36615782  0.97432331  0.49727426  1  0.636399  0  0.343611  0.420276  0  0.84886  0
H  H14  1  0.86615955  0.52567720  0.99727469  1  0.636385  0  0.343615  0.4203  0  0.848801  0
H  H15  1  0.63384464  0.02567656  0.50272566  1  0.636396  0  0.343634  0.420364  0  0.848712  0
H  H16  1  0.15840604  0.50268199  0.05540489  1  0.639206  0  0.353825  0.429801  0  0.824935  0
H  H17  1  0.34159473  0.00268398  0.44459543  1  0.639215  0  0.353886  0.429948  0  0.824728  0
H  H18  1  0.84159444  0.49731570  0.94459572  1  0.639229  0  0.353827  0.429813  0  0.82499  0
H  H19  1  0.65840476  0.99731676  0.55540439  1  0.639217  0  0.353869  0.429861  0  0.824901  0
H  H20  1  0.30919296  0.36796560  0.11026199  1  0.130364  0  0.105894  0.117879  0  1.007061  0
H  H21  1  0.19080424  0.86796675  0.38973785  1  0.130389  0  0.105906  0.117882  0  1.007065  0
H  H22  1  0.69081444  0.63203339  0.88973661  1  0.130304  0  0.105876  0.117828  0  1.00706  0
H  H23  1  0.80919030  0.13203442  0.61026143  1  0.130338  0  0.105903  0.117847  0  1.00705  0
H  H24  1  0.72911593  0.35459125  0.10018010  1  0.116883  0  0.111097  0.123688  0  0.994303  0
H  H25  1  0.77088236  0.85459087  0.39981969  1  0.11687  0  0.111114  0.12368  0  0.994267  0
H  H26  1  0.27089049  0.64540731  0.89982220  1  0.116792  0  0.111126  0.123723  0  0.994287  0
H  H27  1  0.22911119  0.14540856  0.60017956  1  0.116876  0  0.111061  0.123606  0  0.994265  0
H  H28  1  0.53932660  0.24143027  0.19912233  1  0.122699  0  0.106847  0.120848  0  1.059854  0
H  H29  1  0.96066609  0.74143013  0.30087850  1  0.122719  0  0.106845  0.120909  0  1.059882  0
H  H30  1  0.46067190  0.75856699  0.80087708  1  0.122674  0  0.106833  0.120816  0  1.059858  0
H  H31  1  0.03933044  0.25856843  0.69912421  1  0.122607  0  0.1068  0.120791  0  1.059905  0
H  H32  1  0.78721571  0.21092901  0.26994510  1  0.148704  0  0.107082  0.12488  0  1.020475  0
H  H33  1  0.71277555  0.71093130  0.23005534  1  0.148788  0  0.107098  0.12494  0  1.020391  0
H  H34  1  0.21277983  0.78906998  0.73005533  1  0.148796  0  0.107093  0.124891  0  1.02045  0
H  H35  1  0.28722789  0.28906856  0.76994462  1  0.148788  0  0.107124  0.124929  0  1.020445  0
H  H36  1  0.67284325  0.10882555  0.39336535  1  0.123645  0  0.104307  0.113007  0  1.008856  0
H  H37  1  0.82714454  0.60882790  0.10663469  1  0.123666  0  0.104294  0.112958  0  1.008821  0
H  H38  1  0.32716119  0.89117171  0.60663501  1  0.12349  0  0.104284  0.113019  0  1.008748  0
H  H39  1  0.17285000  0.39117023  0.89336459  1  0.123647  0  0.104294  0.113006  0  1.008782  0
H  H40  1  0.08284101  0.11849198  0.36449858  1  0.113167  0  0.106533  0.117214  0  1.00756  0
H  H41  1  0.41714760  0.61849672  0.13549934  1  0.112983  0  0.106501  0.117158  0  1.007577  0
H  H42  1  0.91716243  0.88150875  0.63549951  1  0.113156  0  0.106541  0.117219  0  1.00757  0
H  H43  1  0.58284990  0.38150923  0.86449780  1  0.113091  0  0.10652  0.117199  0  1.007625  0
H  H44  1  0.47799707  0.84249404  0.81441609  1  0.173421  0  0.139944  0.107371  0  1.039011  0
H  H45  1  0.02199758  0.34249371  0.68558113  1  0.173409  0  0.139955  0.107342  0  1.039014  0
H  H46  1  0.52200242  0.15750539  0.18558336  1  0.173427  0  0.139948  0.107324  0  1.039052  0
H  H47  1  0.97800091  0.65750659  0.31441604  1  0.173421  0  0.139937  0.107369  0  1.039013  0
H  H48  1  0.73383417  0.95627189  0.74725575  1  0.130616  0  0.129227  0.127458  0  0.972811  0
H  H49  1  0.76616937  0.45627086  0.75274418  1  0.130631  0  0.129229  0.127428  0  0.972896  0
H  H50  1  0.26616730  0.04372798  0.25274489  1  0.130627  0  0.129239  0.127477  0  0.972771  0
H  H51  1  0.23383110  0.54372944  0.24725456  1  0.130637  0  0.129229  0.127419  0  0.972766  0
H  H52  1  0.61454321  0.01732485  0.82017107  1  0.113251  0  0.123119  0.123578  0  1.017131  0
H  H53  1  0.88545493  0.51732466  0.67983021  1  0.113244  0  0.123133  0.12358  0  1.01719  0
H  H54  1  0.38546024  0.98267501  0.17982926  1  0.113222  0  0.123118  0.12357  0  1.017167  0
H  H55  1  0.11454457  0.48267520  0.32017110  1  0.113235  0  0.123117  0.123561  0  1.017168  0
H  H56  1  0.33033505  0.86219891  0.85942090  1  0.191937  0  0.110235  0.135611  0  1.051126  0
H  H57  1  0.16965791  0.36219863  0.64057773  1  0.191806  0  0.110236  0.135677  0  1.051081  0
H  H58  1  0.66967335  0.13779922  0.14058034  1  0.191848  0  0.110224  0.135593  0  1.051159  0
H  H59  1  0.83033563  0.63779993  0.35941965  1  0.191902  0  0.110225  0.13561  0  1.051128  0
H  H60  1  0.21781689  0.87328484  0.93497702  1  0.075604  0  0.105754  0.107822  0  0.994321  0
H  H61  1  0.28218119  0.37328411  0.56502290  1  0.075631  0  0.10576  0.107836  0  0.99431  0
H  H62  1  0.78218458  0.12671416  0.06502324  1  0.075629  0  0.105734  0.107824  0  0.994327  0
H  H63  1  0.71781830  0.62671489  0.43497543  1  0.075637  0  0.105766  0.107829  0  0.994343  0
H  H64  1  0.41698974  0.03661462  0.96743163  1  0.058437  0  0.101938  0.102087  0  1.008127  0
H  H65  1  0.08301926  0.53661637  0.53257011  1  0.058804  0  0.101917  0.102024  0  1.00828  0
H  H66  1  0.58301173  0.96338655  0.03256864  1  0.058475  0  0.101939  0.102086  0  1.008234  0
H  H67  1  0.91698320  0.46338393  0.46743019  1  0.058798  0  0.101915  0.102033  0  1.008269  0
H  H68  1  0.53696694  0.02512288  0.89262408  1  0.061937  0  0.104875  0.112938  0  1.014963  0
H  H69  1  0.96303625  0.52512431  0.60737587  1  0.061734  0  0.10488  0.112907  0  1.014975  0
H  H70  1  0.46303156  0.97487699  0.10737608  1  0.061861  0  0.10484  0.112863  0  1.014999  0
H  H71  1  0.03696720  0.47487686  0.39262446  1  0.061757  0  0.104844  0.112853  0  1.015001  0
H  H72  1  0.21010581  0.05131963  0.00261058  1  0.086254  0  0.108692  0.119126  0  1.005731  0
H  H73  1  0.28988875  0.55131962  0.49738911  1  0.08641  0  0.108664  0.119063  0  1.005774  0
H  H74  1  0.78988676  0.94868110  0.99738938  1  0.086384  0  0.108675  0.119078  0  1.005758  0
H  H75  1  0.71010877  0.44868242  0.50261214  1  0.086377  0  0.10868  0.119133  0  1.005694  0
H  H76  1  0.27544036  0.86775180  0.02227315  1  0.088485  0  0.109031  0.11773  0  1.015463  0
H  H77  1  0.22455882  0.36775167  0.47772825  1  0.088725  0  0.109047  0.117727  0  1.01542  0
H  H78  1  0.72456111  0.13224937  0.97772674  1  0.088471  0  0.109037  0.117731  0  1.015437  0
H  H79  1  0.77544066  0.63224907  0.52227119  1  0.088687  0  0.109039  0.117702  0  1.015381  0
H  H80  1  0.17420960  0.21495783  0.09490622  1  0.098433  0  0.126754  0.099403  0  0.976653  0
H  H81  1  0.32579130  0.71495935  0.40509241  1  0.098441  0  0.12676  0.099405  0  0.976703  0
H  H82  1  0.82579287  0.78504116  0.90509632  1  0.098402  0  0.12679  0.099443  0  0.976701  0
H  H83  1  0.67420621  0.28504400  0.59490623  1  0.098519  0  0.126782  0.099452  0  0.976693  0
H  H84  1  0.23291746  0.12560551  0.05005549  1  0.079249  0  0.111881  0.118367  0  0.996621  0
H  H85  1  0.26707719  0.62560679  0.44994264  1  0.079294  0  0.111908  0.118423  0  0.996671  0
H  H86  1  0.76708104  0.87439480  0.94994355  1  0.07928  0  0.111893  0.118388  0  0.996584  0
H  H87  1  0.73291340  0.37439829  0.55005614  1  0.079397  0  0.111879  0.118426  0  0.996645  0
H  H88  1  0.00465839  0.02751190  0.14927903  1  0.136453  0  0.115616  0.125182  0  0.99251  0
H  H89  1  0.49534473  0.52751224  0.35072209  1  0.136508  0  0.115621  0.125186  0  0.992462  0
H  H90  1  0.99534308  0.97248927  0.85072273  1  0.13645  0  0.115628  0.125221  0  0.992364  0
H  H91  1  0.50465774  0.47248937  0.64928081  1  0.136409  0  0.115575  0.125087  0  0.99257  0
H  H92  1  0.95077077  0.12254685  0.18941482  1  0.138012  0  0.129314  0.106397  0  0.96882  0
H  H93  1  0.54923305  0.62254856  0.31058613  1  0.138079  0  0.129334  0.106442  0  0.968698  0
H  H94  1  0.04923566  0.87745389  0.81058785  1  0.138012  0  0.129345  0.106483  0  0.968718  0
H  H95  1  0.45076644  0.37745391  0.68941556  1  0.138016  0  0.129324  0.106445  0  0.968728  0
H  H96  1  0.13718597  0.82575272  0.23613206  1  0.076384  0  0.12217  0.094256  0  0.990067  0
H  H97  1  0.36281754  0.32575152  0.26386804  1  0.076313  0  0.122212  0.094345  0  0.989967  0
H  H98  1  0.86282342  0.17424802  0.76386922  1  0.076407  0  0.122158  0.094316  0  0.99004  0
H  H99  1  0.63717898  0.67424835  0.73613018  1  0.076351  0  0.122128  0.094261  0  0.990146  0
H  H100  1  0.14079030  0.91291381  0.18010187  1  0.117243  0  0.111143  0.118822  0  1.009098  0
H  H101  1  0.35921647  0.41291340  0.31989975  1  0.117251  0  0.111179  0.118848  0  1.009139  0
H  H102  1  0.85921513  0.08708562  0.81989778  1  0.117207  0  0.11116  0.118836  0  1.009162  0
H  H103  1  0.64078402  0.58708473  0.68010160  1  0.1172  0  0.111166  0.118841  0  1.009157  0
H  H104  1  0.21851562  0.79527966  0.06043336  1  0.080221  0  0.111028  0.117018  0  0.997907  0
H  H105  1  0.28147458  0.29528017  0.43956669  1  0.080176  0  0.111041  0.117026  0  0.997911  0
H  H106  1  0.78148288  0.20471934  0.93956717  1  0.080213  0  0.11103  0.117005  0  0.9979  0
H  H107  1  0.71852391  0.70471969  0.56043273  1  0.080172  0  0.111043  0.117016  0  0.997909  0
H  H108  1  0.21363417  0.71422905  0.12124861  1  0.129481  0  0.128568  0.105076  0  0.967372  0
H  H109  1  0.28636178  0.21422836  0.37875283  1  0.129434  0  0.128512  0.105025  0  0.967373  0
H  H110  1  0.78636928  0.28577212  0.87875209  1  0.129457  0  0.128528  0.10502  0  0.967382  0
H  H111  1  0.71363475  0.78577238  0.62124838  1  0.129455  0  0.128531  0.105037  0  0.967348  0
C  C112  1  0.28851465  0.27828773  0.17546173  1  1.52468  0  0.202572  0.562279  0  4.229175  0
C  C113  1  0.21148026  0.77828728  0.32453962  1  1.525168  0  0.202502  0.562193  0  4.22934  0
C  C114  1  0.71148483  0.72170865  0.82453548  1  1.524735  0  0.202637  0.562415  0  4.229022  0
C  C115  1  0.78851628  0.22170997  0.67546309  1  1.524635  0  0.202612  0.562292  0  4.229177  0
C  C116  1  0.51170391  0.41542836  0.06473573  1  1.575861  0  0.215453  0.60114  0  4.17093  0
C  C117  1  0.98829231  0.91542813  0.43526356  1  1.576085  0  0.215438  0.601147  0  4.171102  0
C  C118  1  0.48830249  0.58456716  0.93526097  1  1.570081  0  0.215563  0.601399  0  4.170876  0
C  C119  1  0.01169630  0.08457174  0.56473627  1  1.576063  0  0.215426  0.601069  0  4.171217  0
C  C120  1  0.77384493  0.26167685  0.16300183  1  1.567899  0  0.199548  0.570216  0  4.227352  0
C  C121  1  0.72615200  0.76167599  0.33699726  1  1.567957  0  0.199549  0.570209  0  4.227534  0
C  C122  1  0.22616149  0.73832563  0.83700047  1  1.567924  0  0.199461  0.570256  0  4.227372  0
C  C123  1  0.27384154  0.23832692  0.66300049  1  1.568054  0  0.199426  0.570127  0  4.227442  0
C  C124  1  0.41080393  0.30194084  0.15643764  1  -0.052931  0  -0.029446  -0.058461  0  4.034929  0
C  C125  1  0.08919231  0.80193958  0.34356335  1  -0.053234  0  -0.029504  -0.058492  0  4.034927  0
C  C126  1  0.58920150  0.69805641  0.84356126  1  -0.052552  0  -0.029525  -0.058518  0  4.034788  0
C  C127  1  0.91080224  0.19805724  0.65643854  1  -0.053  0  -0.029486  -0.058471  0  4.034816  0
C  C128  1  0.40388333  0.34762425  0.12184721  1  -0.026091  0  -0.074405  -0.094942  0  3.927138  0
C  C129  1  0.09611456  0.84762384  0.37815305  1  -0.025973  0  -0.074384  -0.094887  0  3.927052  0
C  C130  1  0.59612011  0.65237387  0.87815088  1  -0.025621  0  -0.07438  -0.094879  0  3.927125  0
C  C131  1  0.90388098  0.15237559  0.62184813  1  -0.025834  0  -0.074416  -0.094954  0  3.927046  0
C  C132  1  0.51863299  0.36663185  0.10175136  1  -0.01338  0  -0.020197  -0.03993  0  3.986317  0
C  C133  1  0.98136549  0.86663165  0.39824918  1  -0.013417  0  -0.020225  -0.040013  0  3.986377  0
C  C134  1  0.48137243  0.63336367  0.89824718  1  -0.007511  0  -0.020192  -0.040017  0  3.986218  0
C  C135  1  0.01863005  0.13336779  0.60175089  1  -0.013498  0  -0.020177  -0.039869  0  3.986119  0
C  C136  1  0.63990777  0.33961545  0.11584039  1  -0.053191  0  -0.066215  -0.085558  0  3.897427  0
C  C137  1  0.86009229  0.83961492  0.38416059  1  -0.053235  0  -0.066225  -0.085444  0  3.897398  0
C  C138  1  0.36009766  0.66038137  0.88416001  1  -0.053116  0  -0.066258  -0.08556  0  3.897296  0
C  C139  1  0.13990126  0.16038451  0.61583903  1  -0.053179  0  -0.066224  -0.085459  0  3.8972  0
C  C140  1  0.64646639  0.29334048  0.14976527  1  0.028994  0  -0.018126  -0.027167  0  3.987038  0
C  C141  1  0.85353201  0.79333997  0.35023570  1  0.029066  0  -0.018175  -0.027301  0  3.986987  0
C  C142  1  0.35353410  0.70665895  0.85023533  1  0.029054  0  -0.018121  -0.027238  0  3.98702  0
C  C143  1  0.14646649  0.20666251  0.64976372  1  0.028974  0  -0.018097  -0.02727  0  3.98694  0
C  C144  1  0.53237994  0.27527677  0.17064400  1  -0.054747  0  -0.075949  -0.106794  0  3.91849  0
C  C145  1  0.96761424  0.77527488  0.32935647  1  -0.05454  0  -0.075878  -0.10679  0  3.91848  0
C  C146  1  0.46761856  0.72472092  0.82935616  1  -0.055331  0  -0.075871  -0.106671  0  3.918202  0
C  C147  1  0.03238328  0.22472325  0.67064403  1  -0.054775  0  -0.075885  -0.106668  0  3.91838  0
C  C148  1  0.05195146  0.18853514  0.28323223  1  1.572386  0  0.217248  0.594221  0  4.18895  0
C  C149  1  0.44804708  0.68853813  0.21676784  1  1.572756  0  0.217234  0.594158  0  4.188911  0
C  C150  1  0.94805000  0.81146385  0.71676580  1  1.572694  0  0.217297  0.594328  0  4.188696  0
C  C151  1  0.55195636  0.31146653  0.78323175  1  1.572428  0  0.217254  0.594213  0  4.188756  0
C  C152  1  0.57343309  0.17500997  0.31467173  1  1.542176  0  0.185377  0.553027  0  4.22576  0
C  C153  1  0.92656062  0.67500815  0.18533032  1  1.542066  0  0.185426  0.553149  0  4.22561  0
C  C154  1  0.42656640  0.82498946  0.68532847  1  1.542015  0  0.185413  0.553083  0  4.22584  0
C  C155  1  0.07343887  0.32498867  0.81466876  1  1.542138  0  0.185432  0.553199  0  4.225601  0
C  C156  1  0.92072170  0.07168795  0.42790008  1  1.556956  0  0.216294  0.60419  0  4.16795  0
C  C157  1  0.57925565  0.57169050  0.07209890  1  1.557784  0  0.216264  0.604288  0  4.168008  0
C  C158  1  0.07928471  0.92831322  0.57209923  1  1.556347  0  0.216249  0.604195  0  4.168004  0
C  C159  1  0.42072406  0.42831328  0.92790025  1  1.557318  0  0.216263  0.604156  0  4.168088  0
C  C160  1  0.94667423  0.16791785  0.31459639  1  -0.074324  0  -0.02731  -0.058763  0  4.012477  0
C  C161  1  0.55331935  0.66792105  0.18540044  1  -0.07435  0  -0.027287  -0.058674  0  4.012413  0
C  C162  1  0.05332822  0.83208071  0.68540129  1  -0.074326  0  -0.027283  -0.058721  0  4.012439  0
C  C163  1  0.44668013  0.33208273  0.81459827  1  -0.074362  0  -0.02732  -0.058667  0  4.012365  0
C  C164  1  0.81435485  0.18353230  0.30238360  1  -0.018093  0  -0.069449  -0.083224  0  3.888685  0
C  C165  1  0.68563898  0.68353543  0.19761620  1  -0.014465  0  -0.069504  -0.083331  0  3.888713  0
C  C166  1  0.18564266  0.81646626  0.69761615  1  -0.018273  0  -0.06944  -0.083229  0  3.888785  0
C  C167  1  0.31436447  0.31646531  0.80238301  1  -0.014487  0  -0.06943  -0.083224  0  3.888763  0
C  C168  1  0.71559738  0.16188618  0.33056448  1  -0.039563  0  -0.020307  -0.034185  0  3.980451  0
C  C169  1  0.78439514  0.66188745  0.16943530  1  -0.043179  0  -0.020343  -0.03429  0  3.980624  0
C  C170  1  0.28440210  0.83811238  0.66943422  1  -0.039462  0  -0.020399  -0.034322  0  3.98066  0
C  C171  1  0.21560535  0.33811067  0.83056493  1  -0.043249  0  -0.020362  -0.034345  0  3.980718  0
C  C172  1  0.74998066  0.12581047  0.37171097  1  -0.026139  0  -0.069517  -0.084869  0  3.910533  0
C  C173  1  0.75000638  0.62581344  0.12828866  1  -0.02594  0  -0.069451  -0.084651  0  3.910417  0
C  C174  1  0.25001982  0.87418765  0.62828964  1  -0.02598  0  -0.069442  -0.084773  0  3.910541  0
C  C175  1  0.24998914  0.37418599  0.87170991  1  -0.025984  0  -0.069482  -0.08477  0  3.910534  0
C  C176  1  0.88248937  0.11088371  0.38446778  1  -0.056222  0  -0.023198  -0.046421  0  3.990023  0
C  C177  1  0.61749943  0.61088805  0.11553006  1  -0.05619  0  -0.023293  -0.046674  0  3.989959  0
C  C178  1  0.11751507  0.88911615  0.61553146  1  -0.056298  0  -0.023275  -0.046542  0  3.990158  0
C  C179  1  0.38249312  0.38911529  0.88446729  1  -0.056167  0  -0.023238  -0.046538  0  3.990014  0
C  C180  1  0.98030055  0.13142109  0.35547014  1  0.028205  0  -0.074988  -0.094788  0  3.93153  0
C  C181  1  0.51968657  0.63142598  0.14452799  1  0.02804  0  -0.074906  -0.094639  0  3.93124  0
C  C182  1  0.01970091  0.86857921  0.64452863  1  0.028137  0  -0.074987  -0.09479  0  3.931525  0
C  C183  1  0.48030896  0.36857910  0.85547058  1  0.028056  0  -0.074963  -0.094763  0  3.93136  0
C  C184  1  0.53297905  0.88108356  0.80605594  1  0.982552  0  0.154204  0.120113  0  3.853376  0
C  C185  1  0.96701647  0.38108275  0.69394303  1  0.982543  0  0.15421  0.12018  0  3.853318  0
C  C186  1  0.46702143  0.11891674  0.19394429  1  0.982682  0  0.154239  0.120252  0  3.853332  0
C  C187  1  0.03298005  0.61891624  0.30605594  1  0.982559  0  0.154236  0.12017  0  3.853295  0
C  C188  1  0.66331482  0.94171325  0.77259256  1  0.405693  0  0.009027  -0.016274  0  3.986943  0
C  C189  1  0.83668060  0.44171159  0.72740785  1  0.405698  0  0.009046  -0.016168  0  3.986833  0
C  C190  1  0.33668566  0.05828662  0.22740730  1  0.405715  0  0.009003  -0.016321  0  3.986938  0
C  C191  1  0.16331592  0.55828871  0.27259262  1  0.405737  0  0.009045  -0.016178  0  3.986885  0
C  C192  1  0.60492619  0.97235041  0.80855853  1  0.290571  0  -0.004616  -0.118222  0  3.932102  0
C  C193  1  0.89507066  0.47235114  0.69144040  1  0.290654  0  -0.004612  -0.118264  0  3.931972  0
C  C194  1  0.39507529  0.02764858  0.19144248  1  0.290543  0  -0.004602  -0.118169  0  3.93205  0
C  C195  1  0.10492784  0.52764872  0.30855939  1  0.290499  0  -0.004598  -0.118202  0  3.931949  0
C  C196  1  0.44582972  0.94238142  0.87125981  1  0.297941  0  0.101912  0.180749  0  4.002978  0
C  C197  1  0.05417134  0.44238169  0.62874051  1  0.29772  0  0.101905  0.180736  0  4.002921  0
C  C198  1  0.55417175  0.05761757  0.12874045  1  0.297845  0  0.101905  0.180796  0  4.00278  0
C  C199  1  0.94582914  0.55761861  0.37125934  1  0.297984  0  0.101886  0.180739  0  4.002866  0
C  C200  1  0.35355622  0.90023595  0.88314560  1  -0.038403  0  -0.088656  -0.166944  0  3.945483  0
C  C201  1  0.14644323  0.40023693  0.61685509  1  -0.038068  0  -0.088677  -0.167064  0  3.945488  0
C  C202  1  0.64644525  0.09976479  0.11685466  1  -0.03815  0  -0.088594  -0.166846  0  3.945306  0
C  C203  1  0.85355725  0.59976337  0.38314552  1  -0.038203  0  -0.088671  -0.167027  0  3.945586  0
C  C204  1  0.28859022  0.90666646  0.92624038  1  -0.029736  0  -0.084637  -0.104376  0  3.986975  0
C  C205  1  0.21140834  0.40666682  0.57376027  1  -0.029857  0  -0.084662  -0.104409  0  3.986992  0
C  C206  1  0.71140630  0.09333471  0.07375897  1  -0.029961  0  -0.084624  -0.104478  0  3.986893  0
C  C207  1  0.78859115  0.59333261  0.42623992  1  -0.02989  0  -0.084623  -0.104302  0  3.987087  0
C  C208  1  0.30999719  0.95531072  0.95772940  1  -0.010785  0  -0.017956  0.03454  0  4.02025  0
C  C209  1  0.19000406  0.45531063  0.54227055  1  -0.010841  0  -0.017917  0.034555  0  4.020129  0
C  C210  1  0.68999834  0.04469001  0.04226991  1  -0.010821  0  -0.017965  0.03459  0  4.020095  0
C  C211  1  0.80999345  0.54468880  0.45772809  1  -0.010869  0  -0.017962  0.034488  0  4.020228  0
C  C212  1  0.39704091  0.99859538  0.94361824  1  -0.025648  0  -0.089461  -0.112722  0  3.997175  0
C  C213  1  0.10296296  0.49859632  0.55638399  1  -0.02595  0  -0.089448  -0.112667  0  3.997319  0
C  C214  1  0.60295858  0.00140535  0.05638233  1  -0.025617  0  -0.089406  -0.112678  0  3.997214  0
C  C215  1  0.89703752  0.50140311  0.44361624  1  -0.025945  0  -0.089476  -0.112738  0  3.997384  0
C  C216  1  0.46558411  0.99210007  0.90124474  1  -0.041677  0  -0.094418  -0.170292  0  3.991083  0
C  C217  1  0.03441965  0.49210293  0.59875638  1  -0.041333  0  -0.094412  -0.170198  0  3.991067  0
C  C218  1  0.53441934  0.00789980  0.09875746  1  -0.041384  0  -0.094433  -0.170279  0  3.991041  0
C  C219  1  0.96557786  0.50789868  0.40124412  1  -0.041558  0  -0.09435  -0.170122  0  3.991019  0
C  C220  1  0.16034221  0.01297802  0.07252105  1  0.549848  0  0.119703  0.204219  0  4.034602  0
C  C221  1  0.33965377  0.51297824  0.42747984  1  0.549993  0  0.119686  0.204243  0  4.034683  0
C  C222  1  0.83965629  0.98702229  0.92747986  1  0.549958  0  0.119709  0.204282  0  4.034621  0
C  C223  1  0.66034177  0.48702380  0.57252171  1  0.550244  0  0.119764  0.204284  0  4.034641  0
C  C224  1  0.20726202  0.01180369  0.02490942  1  -0.037885  0  -0.083073  -0.219005  0  3.906014  0
C  C225  1  0.29273790  0.51180415  0.47508936  1  -0.037837  0  -0.083013  -0.218893  0  3.906141  0
C  C226  1  0.79273846  0.98819748  0.97509043  1  -0.037964  0  -0.083011  -0.218888  0  3.906055  0
C  C227  1  0.70725962  0.48819659  0.52491039  1  -0.037805  0  -0.083071  -0.219079  0  3.906019  0
C  C228  1  0.24959175  0.95900374  0.00563703  1  -0.072468  0  0.009661  0.12395  0  4.017006  0
C  C229  1  0.25040876  0.45900235  0.49436396  1  -0.072709  0  0.009651  0.123972  0  4.016905  0
C  C230  1  0.75040873  0.04099786  0.99436357  1  -0.07249  0  0.009654  0.123944  0  4.017021  0
C  C231  1  0.74958776  0.54099838  0.50563651  1  -0.072627  0  0.009671  0.12408  0  4.01689  0
C  C232  1  0.23908414  0.90915849  0.03520751  1  0.021147  0  -0.082754  -0.219699  0  3.900533  0
C  C233  1  0.26091564  0.40915848  0.46479388  1  0.020862  0  -0.082772  -0.219729  0  3.900483  0
C  C234  1  0.76091733  0.09084181  0.96479388  1  0.021121  0  -0.082785  -0.220104  0  3.900115  0
C  C235  1  0.73908384  0.59084269  0.53520520  1  0.020849  0  -0.082747  -0.219669  0  3.900252  0
C  C236  1  0.18880578  0.91344156  0.08209896  1  0.476827  0  0.119715  0.206488  0  4.027637  0
C  C237  1  0.31119406  0.41344176  0.41790093  1  0.476824  0  0.119733  0.206517  0  4.027623  0
C  C238  1  0.81119569  0.08656004  0.91790093  1  0.476862  0  0.119729  0.207585  0  4.025987  0
C  C239  1  0.68880543  0.58656072  0.58209927  1  0.476909  0  0.119725  0.206486  0  4.027596  0
C  C240  1  0.13743291  0.17253841  0.10545475  1  0.488358  0  0.053352  0.102347  0  3.940655  0
C  C241  1  0.36256243  0.67253874  0.39454559  1  0.488315  0  0.053364  0.102441  0  3.940474  0
C  C242  1  0.86256560  0.82746102  0.89454616  1  0.488297  0  0.053339  0.102341  0  3.940621  0
C  C243  1  0.63743805  0.32746200  0.60545464  1  0.486931  0  0.053384  0.102498  0  3.9404  0
C  C244  1  0.16903893  0.12226916  0.08043530  1  -0.014391  0  -0.082473  -0.17308  0  3.952932  0
C  C245  1  0.33095468  0.62226936  0.41956391  1  -0.014223  0  -0.082509  -0.173166  0  3.953037  0
C  C246  1  0.83096154  0.87773027  0.91956306  1  -0.013756  0  -0.082478  -0.173104  0  3.952915  0
C  C247  1  0.66904086  0.37773268  0.58043764  1  -0.012793  0  -0.082534  -0.173353  0  3.953239  0
C  C248  1  0.12271393  0.06831468  0.09596787  1  -0.021652  0  0.013773  0.080277  0  3.970939  0
C  C249  1  0.37728285  0.56831461  0.40403187  1  -0.021949  0  0.013796  0.080235  0  3.970763  0
C  C250  1  0.87728556  0.93168649  0.90403232  1  -0.022398  0  0.01373  0.080206  0  3.970781  0
C  C251  1  0.62271466  0.43168787  0.59596900  1  -0.02235  0  0.013814  0.080381  0  3.970874  0
C  C252  1  0.04291710  0.06837674  0.13602551  1  -0.012639  0  -0.072199  -0.154855  0  3.933064  0
C  C253  1  0.45708562  0.56838000  0.36397370  1  -0.012658  0  -0.072251  -0.154908  0  3.933239  0
C  C254  1  0.95708438  0.93162008  0.86397588  1  -0.012535  0  -0.072205  -0.154875  0  3.93312  0
C  C255  1  0.54291487  0.43162205  0.63602840  1  -0.012703  0  -0.07215  -0.15471  0  3.933192  0
C  C256  1  0.01419768  0.12062556  0.15876345  1  0.462344  0  0.06297  0.112634  0  3.912164  0
C  C257  1  0.48580087  0.62062501  0.34123929  1  0.462205  0  0.06296  0.112701  0  3.91236  0
C  C258  1  0.98580479  0.87937518  0.84123946  1  0.462228  0  0.062949  0.112563  0  3.912262  0
C  C259  1  0.51419863  0.37937703  0.65876277  1  0.46221  0  0.06291  0.112564  0  3.912464  0
C  C260  1  0.15658150  0.82120339  0.19698323  1  0.505128  0  0.05956  0.115479  0  3.920114  0
C  C261  1  0.34342294  0.32120253  0.30301728  1  0.505126  0  0.05958  0.115474  0  3.919969  0
C  C262  1  0.84342591  0.17879778  0.80301798  1  0.505045  0  0.05961  0.115406  0  3.920044  0
C  C263  1  0.65657556  0.67879777  0.69698213  1  0.50512  0  0.059608  0.115445  0  3.920165  0
C  C264  1  0.15801790  0.86950100  0.16581917  1  -0.012734  0  -0.079351  -0.162817  0  3.935509  0
C  C265  1  0.34198822  0.36950052  0.33418135  1  -0.01269  0  -0.079388  -0.162844  0  3.935538  0
C  C266  1  0.84198753  0.13049800  0.83418198  1  -0.012569  0  -0.079356  -0.162837  0  3.935588  0
C  C267  1  0.65801423  0.63049804  0.66581782  1  -0.012548  0  -0.079356  -0.162844  0  3.935562  0
C  C268  1  0.18221722  0.86208131  0.11549539  1  -0.04194  0  0.007343  0.072313  0  3.979103  0
C  C269  1  0.31778286  0.36208026  0.38450530  1  -0.041866  0  0.007377  0.072312  0  3.979115  0
C  C270  1  0.81778623  0.13791856  0.88450494  1  -0.042001  0  0.007328  0.071969  0  3.978975  0
C  C271  1  0.68221861  0.63791874  0.61549533  1  -0.041723  0  0.007333  0.072278  0  3.979305  0
C  C272  1  0.20201270  0.80499559  0.09914008  1  -0.011397  0  -0.081296  -0.171478  0  3.94583  0
C  C273  1  0.29798160  0.30499533  0.40085973  1  -0.011277  0  -0.081271  -0.17145  0  3.945972  0
C  C274  1  0.79798976  0.19500428  0.90085985  1  -0.011363  0  -0.081289  -0.171439  0  3.945921  0
C  C275  1  0.70201789  0.69500497  0.59914047  1  -0.011548  0  -0.081248  -0.171377  0  3.945995  0
C  C276  1  0.19945975  0.75908946  0.13288465  1  0.47944  0  0.05794  0.107341  0  3.92832  0
C  C277  1  0.30053586  0.25908882  0.36711599  1  0.479412  0  0.057951  0.107398  0  3.928394  0
C  C278  1  0.80054073  0.24091084  0.86711595  1  0.479408  0  0.057926  0.107347  0  3.928343  0
C  C279  1  0.69946660  0.74090974  0.63288393  1  0.479375  0  0.057937  0.107325  0  3.928505  0
N  N280  1  0.52137432  0.93331282  0.82995132  1  -1.261285  0  -0.222264  0.007114  0  3.778201  0
N  N281  1  0.97862295  0.43331252  0.67004766  1  -1.261317  0  -0.222252  0.007125  0  3.778048  0
N  N282  1  0.47862814  0.06668704  0.17004897  1  -1.261595  0  -0.222286  0.007015  0  3.778099  0
N  N283  1  0.02137357  0.56668735  0.32995206  1  -1.261228  0  -0.222262  0.007073  0  3.778118  0
N  N284  1  0.61802772  0.88498627  0.77171479  1  -1.200395  0  -0.33166  -0.252141  0  3.497786  0
N  N285  1  0.88197181  0.38498518  0.72828431  1  -1.200452  0  -0.331675  -0.252167  0  3.49783  0
N  N286  1  0.38197276  0.11501403  0.22828506  1  -1.200391  0  -0.331683  -0.252181  0  3.497734  0
N  N287  1  0.11802867  0.61501338  0.27171480  1  -1.20046  0  -0.331682  -0.252191  0  3.49784  0
N  N288  1  0.15046419  0.96470385  0.10027664  1  -1.194565  0  -0.306382  -0.340296  0  3.299731  0
N  N289  1  0.34953441  0.46470374  0.39972316  1  -1.194623  0  -0.306419  -0.340337  0  3.299759  0
N  N290  1  0.84953431  0.03529645  0.89972352  1  -1.194557  0  -0.306389  -0.34071  0  3.299325  0
N  N291  1  0.65046409  0.53529743  0.60027663  1  -1.194642  0  -0.306425  -0.340347  0  3.299727  0
N  N292  1  0.06190275  0.17192975  0.14417357  1  -1.241311  0  -0.317765  -0.228599  0  3.562434  0
N  N293  1  0.43809851  0.67193078  0.35582622  1  -1.241276  0  -0.317809  -0.228787  0  3.562262  0
N  N294  1  0.93809971  0.82806969  0.85582672  1  -1.241229  0  -0.31781  -0.228689  0  3.562253  0
N  N295  1  0.56190198  0.32807126  0.64417550  1  -1.241161  0  -0.317808  -0.22877  0  3.562281  0
N  N296  1  0.17817976  0.76688279  0.18117612  1  -1.195503  0  -0.305411  -0.213067  0  3.497851  0
N  N297  1  0.32181992  0.26688184  0.31882465  1  -1.195466  0  -0.305466  -0.213185  0  3.497886  0
N  N298  1  0.82182369  0.23311707  0.81882496  1  -1.195485  0  -0.3054  -0.213025  0  3.497934  0
N  N299  1  0.67818055  0.73311672  0.68117446  1  -1.195543  0  -0.305449  -0.213064  0  3.497938  0
O  O300  1  0.29547648  0.23434421  0.20426216  1  -1.19939  0  -0.323651  -0.589929  0  2.45592  0
O  O301  1  0.20452174  0.73434422  0.29573934  1  -1.199658  0  -0.323619  -0.589868  0  2.455902  0
O  O302  1  0.70452399  0.76565217  0.79573620  1  -1.199302  0  -0.323613  -0.58992  0  2.455958  0
O  O303  1  0.79547974  0.26565260  0.70426316  1  -1.199314  0  -0.323642  -0.589894  0  2.455931  0
O  O304  1  0.17681248  0.30094616  0.15951686  1  -1.160454  0  -0.323797  -0.533897  0  2.24503  0
O  O305  1  0.32318078  0.80094732  0.34048478  1  -1.160551  0  -0.323771  -0.533869  0  2.245041  0
O  O306  1  0.82318798  0.69904762  0.84047777  1  -1.160677  0  -0.32392  -0.534075  0  2.244757  0
O  O307  1  0.67681477  0.19905125  0.65951790  1  -1.160504  0  -0.323816  -0.533883  0  2.24493  0
O  O308  1  0.40084155  0.44128557  0.05632097  1  -1.181933  0  -0.326834  -0.580448  0  2.336381  0
O  O309  1  0.09916166  0.94128856  0.44367677  1  -1.181993  0  -0.32688  -0.58051  0  2.336274  0
O  O310  1  0.59916683  0.55870951  0.94367505  1  -1.18228  0  -0.32686  -0.580481  0  2.336419  0
O  O311  1  0.90083981  0.05871479  0.55632312  1  -1.181997  0  -0.32678  -0.580284  0  2.336746  0
O  O312  1  0.61754309  0.42715103  0.04453618  1  -1.161701  0  -0.317107  -0.544262  0  2.306416  0
O  O313  1  0.88246221  0.92714959  0.45546415  1  -1.161979  0  -0.317083  -0.544258  0  2.306664  0
O  O314  1  0.38246728  0.57284405  0.95546215  1  -1.161744  0  -0.317235  -0.544514  0  2.306479  0
O  O315  1  0.11753926  0.07284984  0.54453499  1  -1.161846  0  -0.317156  -0.544405  0  2.306305  0
O  O316  1  0.87992687  0.29222249  0.16000940  1  -1.156551  0  -0.338663  -0.549933  0  2.271922  0
O  O317  1  0.62007347  0.79222307  0.33998753  1  -1.156502  0  -0.338613  -0.549922  0  2.271941  0
O  O318  1  0.12007657  0.70777868  0.83998869  1  -1.156438  0  -0.338583  -0.549909  0  2.271771  0
O  O319  1  0.37992503  0.20778115  0.66001226  1  -1.156436  0  -0.338579  -0.549859  0  2.271809  0
O  O320  1  0.77193831  0.20894862  0.17534833  1  -1.185445  0  -0.325433  -0.567126  0  2.154012  0
O  O321  1  0.72806281  0.70894953  0.32465095  1  -1.185503  0  -0.325447  -0.567078  0  2.154178  0
O  O322  1  0.22807110  0.79105255  0.82465667  1  -1.185572  0  -0.325403  -0.567134  0  2.154186  0
O  O323  1  0.27192974  0.29105295  0.67534566  1  -1.18567  0  -0.32541  -0.56709  0  2.154159  0
O  O324  1  0.16115814  0.16084844  0.28714598  1  -1.181065  0  -0.318485  -0.552917  0  2.340754  0
O  O325  1  0.33883999  0.66084938  0.21285409  1  -1.18126  0  -0.318447  -0.552859  0  2.340744  0
O  O326  1  0.83884331  0.83915230  0.71285018  1  -1.181201  0  -0.318482  -0.552956  0  2.340639  0
O  O327  1  0.66116643  0.33915223  0.78714634  1  -1.181155  0  -0.318431  -0.552921  0  2.340893  0
O  O328  1  0.02353798  0.23248341  0.25506219  1  -1.19132  0  -0.330881  -0.5634  0  2.380514  0
O  O329  1  0.47646318  0.73248340  0.24493867  1  -1.191411  0  -0.330924  -0.563482  0  2.380569  0
O  O330  1  0.97646150  0.76751776  0.74493689  1  -1.191239  0  -0.330921  -0.563443  0  2.380469  0
O  O331  1  0.52353433  0.26752212  0.75505959  1  -1.191248  0  -0.330913  -0.563378  0  2.380409  0
O  O332  1  0.54842198  0.20847455  0.27655342  1  -1.172435  0  -0.331766  -0.566632  0  2.263892  0
O  O333  1  0.95157519  0.70847188  0.22344945  1  -1.172536  0  -0.331792  -0.566701  0  2.263936  0
O  O334  1  0.45157653  0.79152618  0.72344823  1  -1.172359  0  -0.3318  -0.566688  0  2.263885  0
O  O335  1  0.04842628  0.29152668  0.77655006  1  -1.172506  0  -0.331796  -0.566694  0  2.263951  0
O  O336  1  0.48167937  0.15183407  0.33714067  1  -1.178936  0  -0.342007  -0.570526  0  2.112492  0
O  O337  1  0.01831271  0.65183154  0.16286145  1  -1.178805  0  -0.341991  -0.570548  0  2.112352  0
O  O338  1  0.51831617  0.84816536  0.66286014  1  -1.178931  0  -0.341982  -0.570499  0  2.112618  0
O  O339  1  0.98168777  0.34816528  0.83713841  1  -1.178835  0  -0.342004  -0.570578  0  2.11242  0
O  O340  1  0.04427485  0.06255705  0.43818356  1  -1.152563  0  -0.322075  -0.558747  0  2.315152  0
O  O341  1  0.45570604  0.56255678  0.06182124  1  -1.152687  0  -0.322011  -0.558663  0  2.315115  0
O  O342  1  0.95574047  0.93744673  0.56181754  1  -1.152447  0  -0.322034  -0.558765  0  2.315243  0
O  O343  1  0.54427467  0.43744134  0.93818391  1  -1.152627  0  -0.322063  -0.558679  0  2.315174  0
O  O344  1  0.82793158  0.05011187  0.45112464  1  -1.175019  0  -0.325452  -0.568591  0  2.304956  0
O  O345  1  0.67204644  0.55011603  0.04887252  1  -1.175759  0  -0.3254  -0.568656  0  2.305036  0
O  O346  1  0.17208473  0.94988799  0.54887576  1  -1.174456  0  -0.325396  -0.568498  0  2.304867  0
O  O347  1  0.32793127  0.44988906  0.95112209  1  -1.175321  0  -0.325404  -0.568554  0  2.305  0
O  O348  1  0.16469313  0.51001435  0.01985050  1  -1.192439  0  -0.53242  -0.688793  0  2.006664  0
O  O349  1  0.33530776  0.01001584  0.48014944  1  -1.192476  0  -0.532485  -0.688845  0  2.00665  0
O  O350  1  0.83530736  0.48998334  0.98014973  1  -1.192497  0  -0.53243  -0.688738  0  2.00685  0
O  O351  1  0.66468778  0.98998403  0.51985062  1  -1.192407  0  -0.532477  -0.688859  0  2.006604  0
