# generated using pymatgen
data_Zn2H9C19N7O6
_symmetry_space_group_name_H-M   'P 1'
_cell_length_a   10.92831601
_cell_length_b   10.92833574
_cell_length_c   24.98249508
_cell_angle_alpha   90.00008679
_cell_angle_beta   90.00015093
_cell_angle_gamma   90.00004202
_symmetry_Int_Tables_number   1
_chemical_formula_structural   Zn2H9C19N7O6
_chemical_formula_sum   'Zn8 H36 C76 N28 O24'
_cell_volume   2983.61707693
_cell_formula_units_Z   4
loop_
 _symmetry_equiv_pos_site_id
 _symmetry_equiv_pos_as_xyz
  1  'x, y, z'
loop_
 _atom_site_type_symbol
 _atom_site_label
 _atom_site_symmetry_multiplicity
 _atom_site_fract_x
 _atom_site_fract_y
 _atom_site_fract_z
 _atom_site_occupancy
 _atom_site_pbe_bader_charge
 _atom_site_pbe_bader_spin_density
 _atom_site_pbe_cm5_charge
 _atom_site_pbe_ddec_charge
 _atom_site_pbe_ddec_spin_density
 _atom_site_pbe_ddec_sum_bond_order
 _atom_site_pbe_magmom
Zn  Zn0  1  0.45501909  0.46261843  0.92372280  1  1.27882  0  0.688652  0.74288  0  2.432194  0
Zn  Zn1  1  0.54498206  0.53738195  0.42372358  1  1.278858  0  0.688676  0.742924  0  2.432145  0
Zn  Zn2  1  0.03738816  0.95502039  0.17372558  1  1.278839  0  0.688685  0.742935  0  2.432074  0
Zn  Zn3  1  0.96261789  0.04497819  0.67372390  1  1.278742  0  0.688645  0.742885  0  2.432229  0
Zn  Zn4  1  0.04498265  0.96261468  0.32627640  1  1.278696  0  0.688697  0.743003  0  2.432115  0
Zn  Zn5  1  0.95502066  0.03738261  0.82627591  1  1.278676  0  0.688646  0.742839  0  2.432227  0
Zn  Zn6  1  0.46261513  0.45501835  0.07627542  1  1.278736  0  0.688691  0.742976  0  2.432062  0
Zn  Zn7  1  0.53738392  0.54497898  0.57627639  1  1.278724  0  0.688638  0.742827  0  2.432206  0
H  H8  1  0.33884884  0.32166530  0.78285525  1  0.131103  0  0.132051  0.109157  0  0.960841  0
H  H9  1  0.15617739  0.19031399  0.75736566  1  0.178222  0  0.131562  0.118582  0  0.981863  0
H  H10  1  0.08468285  0.12900024  0.91887348  1  0.171334  0  0.129933  0.121042  0  1.014357  0
H  H11  1  0.68109792  0.74240859  0.91572822  1  0.131283  0  0.111553  0.124943  0  0.992104  0
H  H12  1  0.66115238  0.67833367  0.28285465  1  0.131053  0  0.132043  0.109117  0  0.96098  0
H  H13  1  0.84382550  0.80968123  0.25736615  1  0.178186  0  0.131596  0.118567  0  0.981901  0
H  H14  1  0.91531370  0.87100195  0.41887250  1  0.171396  0  0.129934  0.121006  0  1.014232  0
H  H15  1  0.31889953  0.25759817  0.41572776  1  0.131268  0  0.111563  0.124917  0  0.992047  0
H  H16  1  0.17833621  0.83885521  0.03285258  1  0.13098  0  0.13203  0.109033  0  0.961  0
H  H17  1  0.30968567  0.65617872  0.00736355  1  0.178097  0  0.131621  0.118592  0  0.981893  0
H  H18  1  0.37099842  0.58468415  0.16887225  1  0.171411  0  0.129929  0.121028  0  1.014256  0
H  H19  1  0.75759854  0.18110134  0.16572733  1  0.131242  0  0.111559  0.124895  0  0.992079  0
H  H20  1  0.82166532  0.16114471  0.53285322  1  0.130977  0  0.132008  0.109029  0  0.960991  0
H  H21  1  0.69031662  0.34382294  0.50736216  1  0.178117  0  0.131635  0.118631  0  0.981754  0
H  H22  1  0.62900211  0.41531075  0.66887124  1  0.171469  0  0.129922  0.121016  0  1.014264  0
H  H23  1  0.24240472  0.81889813  0.66572855  1  0.1313  0  0.111562  0.124916  0  0.992092  0
H  H24  1  0.16115280  0.82166853  0.46714666  1  0.131032  0  0.132031  0.109079  0  0.960984  0
H  H25  1  0.34382508  0.69031653  0.49263416  1  0.178202  0  0.131573  0.118575  0  0.981911  0
H  H26  1  0.41531591  0.62899678  0.33112710  1  0.171349  0  0.129959  0.121063  0  1.014328  0
H  H27  1  0.81890403  0.24240468  0.33427260  1  0.131231  0  0.11156  0.124922  0  0.992031  0
H  H28  1  0.83884862  0.17833474  0.96714613  1  0.131022  0  0.132032  0.109112  0  0.961009  0
H  H29  1  0.65617101  0.30967951  0.99263352  1  0.177863  0  0.131581  0.118604  0  0.981885  0
H  H30  1  0.58468103  0.37100144  0.83112641  1  0.171352  0  0.129924  0.121022  0  1.014163  0
H  H31  1  0.18109933  0.75758898  0.83427251  1  0.13128  0  0.111567  0.124974  0  0.992055  0
H  H32  1  0.32166333  0.33885722  0.21714754  1  0.131177  0  0.132038  0.109074  0  0.961032  0
H  H33  1  0.19031465  0.15617798  0.24263926  1  0.178043  0  0.131628  0.118643  0  0.981812  0
H  H34  1  0.12900185  0.08468372  0.08112931  1  0.171462  0  0.129924  0.121034  0  1.014154  0
H  H35  1  0.74241041  0.68109772  0.08427245  1  0.131255  0  0.111558  0.124929  0  0.9921  0
H  H36  1  0.67833383  0.66114426  0.71714635  1  0.131238  0  0.132035  0.109065  0  0.961001  0
H  H37  1  0.80968541  0.84382176  0.74263553  1  0.178187  0  0.131625  0.118594  0  0.981828  0
H  H38  1  0.87099631  0.91531546  0.58112850  1  0.171434  0  0.129927  0.121027  0  1.014237  0
H  H39  1  0.25759235  0.31890329  0.58427296  1  0.131239  0  0.111574  0.124928  0  0.992054  0
H  H40  1  0.95256340  0.95256534  0.00000086  1  0.078383  0  0.104472  0.109392  0  1.021864  0
H  H41  1  0.04743519  0.04743538  0.50000094  1  0.07835  0  0.104444  0.10935  0  1.021936  0
H  H42  1  0.54743934  0.45256635  0.24999911  1  0.078368  0  0.104474  0.109384  0  1.02189  0
H  H43  1  0.45256625  0.54743708  0.74999798  1  0.07838  0  0.104456  0.109344  0  1.021934  0
C  C44  1  0.28161137  0.27866702  0.81336096  1  0.491435  0  0.068605  0.067091  0  3.924031  0
C  C45  1  0.18094895  0.20651416  0.79910210  1  0.466306  0  0.064525  0.048658  0  3.863386  0
C  C46  1  0.14112514  0.17310940  0.88859713  1  0.56728  0  0.070283  0.039393  0  3.825686  0
C  C47  1  0.24117081  0.24695053  0.90207945  1  0.54098  0  0.13674  0.132117  0  4.003727  0
C  C48  1  0.27035939  0.27158934  0.95798142  1  0.966321  0  0.218459  0.248547  0  4.05634  0
C  C49  1  0.73023461  0.76371658  0.95248680  1  -0.03279  0  -0.066358  -0.08481  0  3.898666  0
C  C50  1  0.82314832  0.85157354  0.95209620  1  0.018619  0  -0.017908  -0.033126  0  3.991771  0
C  C51  1  0.85912171  0.91394161  0.90124704  1  1.555142  0  0.191019  0.563589  0  4.205366  0
C  C52  1  0.71838088  0.72133389  0.31335926  1  0.491188  0  0.068666  0.06717  0  3.923841  0
C  C53  1  0.81904688  0.79348761  0.29910136  1  0.466059  0  0.064512  0.04875  0  3.863197  0
C  C54  1  0.85886848  0.82689086  0.38859525  1  0.567283  0  0.070301  0.039505  0  3.825713  0
C  C55  1  0.75882747  0.75305160  0.40207821  1  0.540888  0  0.136693  0.132008  0  4.003936  0
C  C56  1  0.72963923  0.72841391  0.45798013  1  0.966664  0  0.218485  0.248567  0  4.056327  0
C  C57  1  0.26975757  0.23628573  0.45248586  1  -0.032917  0  -0.066335  -0.084724  0  3.898458  0
C  C58  1  0.17685118  0.14842785  0.45209390  1  0.018767  0  -0.017896  -0.03306  0  3.991618  0
C  C59  1  0.14087840  0.08606235  0.40124426  1  1.555236  0  0.190944  0.563603  0  4.205289  0
C  C60  1  0.22133376  0.78161966  0.06335875  1  0.491197  0  0.068659  0.067192  0  3.92393  0
C  C61  1  0.29348660  0.68095566  0.04909917  1  0.467146  0  0.064502  0.048787  0  3.863193  0
C  C62  1  0.32689182  0.64113184  0.13859504  1  0.567031  0  0.070238  0.039393  0  3.825649  0
C  C63  1  0.25305436  0.74117360  0.15207807  1  0.540841  0  0.136761  0.132057  0  4.003906  0
C  C64  1  0.22841488  0.77036203  0.20798081  1  0.966741  0  0.218473  0.248569  0  4.056346  0
C  C65  1  0.73629072  0.23024703  0.20248387  1  -0.032862  0  -0.066362  -0.084685  0  3.898322  0
C  C66  1  0.64842909  0.32315227  0.20209358  1  0.018705  0  -0.017858  -0.03301  0  3.991571  0
C  C67  1  0.58606527  0.35912561  0.15124595  1  1.555137  0  0.190927  0.563522  0  4.205345  0
C  C68  1  0.77866339  0.21837670  0.56335858  1  0.491227  0  0.068692  0.067219  0  3.923891  0
C  C69  1  0.70650862  0.31904157  0.54909899  1  0.466827  0  0.064467  0.048677  0  3.863021  0
C  C70  1  0.67310943  0.35886571  0.63859444  1  0.567077  0  0.070285  0.03939  0  3.825533  0
C  C71  1  0.74694515  0.25882125  0.65207870  1  0.540656  0  0.136697  0.132085  0  4.003937  0
C  C72  1  0.77158680  0.22963667  0.70797944  1  0.966683  0  0.218501  0.248653  0  4.056217  0
C  C73  1  0.26371184  0.76975257  0.70248548  1  -0.03298  0  -0.066366  -0.084718  0  3.898457  0
C  C74  1  0.35157255  0.67684916  0.70209363  1  0.01882  0  -0.017831  -0.032975  0  3.991494  0
C  C75  1  0.41394156  0.64087564  0.65124405  1  1.555001  0  0.190974  0.563577  0  4.205117  0
C  C76  1  0.21838475  0.77866836  0.43664171  1  0.491384  0  0.068635  0.067227  0  3.923896  0
C  C77  1  0.31904895  0.70651196  0.45089813  1  0.466066  0  0.064522  0.048675  0  3.863298  0
C  C78  1  0.35887091  0.67310966  0.36140348  1  0.567298  0  0.070267  0.039404  0  3.825819  0
C  C79  1  0.25882712  0.74694701  0.34792161  1  0.540816  0  0.1367  0.132023  0  4.003928  0
C  C80  1  0.22963856  0.77158652  0.29201925  1  0.966726  0  0.218459  0.248534  0  4.056381  0
C  C81  1  0.76975912  0.26371617  0.29751485  1  -0.032749  0  -0.066305  -0.084674  0  3.898359  0
C  C82  1  0.67685371  0.35157397  0.29790629  1  0.018535  0  -0.017918  -0.033129  0  3.99168  0
C  C83  1  0.64087854  0.41393853  0.34875390  1  1.555187  0  0.191009  0.563595  0  4.205246  0
C  C84  1  0.78161740  0.22133023  0.93664235  1  0.491348  0  0.068618  0.067112  0  3.923859  0
C  C85  1  0.68095145  0.29348668  0.95089830  1  0.466422  0  0.064479  0.048605  0  3.863275  0
C  C86  1  0.64112621  0.32688592  0.86140483  1  0.567342  0  0.070305  0.03943  0  3.825654  0
C  C87  1  0.74117084  0.25305036  0.84792102  1  0.540914  0  0.136696  0.132028  0  4.003848  0
C  C88  1  0.77035997  0.22841157  0.79201989  1  0.966712  0  0.218457  0.248548  0  4.056376  0
C  C89  1  0.23024219  0.73628377  0.79751559  1  -0.033061  0  -0.066346  -0.084799  0  3.89852  0
C  C90  1  0.32314759  0.64842962  0.79790509  1  0.018722  0  -0.017918  -0.033125  0  3.991694  0
C  C91  1  0.35912399  0.58606067  0.84875269  1  1.55537  0  0.191038  0.563667  0  4.205151  0
C  C92  1  0.27866666  0.28162154  0.18664294  1  0.491154  0  0.06858  0.06708  0  3.923914  0
C  C93  1  0.20651099  0.18095479  0.20090205  1  0.467588  0  0.064483  0.04868  0  3.863066  0
C  C94  1  0.17310940  0.14113337  0.11140735  1  0.567213  0  0.070304  0.039408  0  3.825583  0
C  C95  1  0.24694511  0.24117422  0.09792198  1  0.540437  0  0.13672  0.132097  0  4.003793  0
C  C96  1  0.27158553  0.27036430  0.04202087  1  0.966678  0  0.218486  0.248579  0  4.056273  0
C  C97  1  0.76371552  0.73023507  0.04751474  1  -0.032828  0  -0.066369  -0.084762  0  3.898552  0
C  C98  1  0.85157447  0.82314769  0.04790350  1  0.018613  0  -0.017935  -0.033202  0  3.991874  0
C  C99  1  0.91394106  0.85912126  0.09875315  1  1.555146  0  0.191028  0.563668  0  4.205257  0
C  C100  1  0.72133123  0.71837984  0.68664063  1  0.490959  0  0.068646  0.067108  0  3.923943  0
C  C101  1  0.79348515  0.81904572  0.70090029  1  0.467563  0  0.064515  0.048789  0  3.863195  0
C  C102  1  0.82688986  0.85886683  0.61140406  1  0.567045  0  0.070247  0.039373  0  3.825551  0
C  C103  1  0.75305132  0.75882410  0.59792174  1  0.540671  0  0.136695  0.132021  0  4.004028  0
C  C104  1  0.72841240  0.72963839  0.54201938  1  0.966729  0  0.21844  0.248443  0  4.056432  0
C  C105  1  0.23628153  0.26976216  0.54751559  1  -0.032619  0  -0.066363  -0.084733  0  3.898384  0
C  C106  1  0.14842350  0.17685320  0.54790578  1  0.018325  0  -0.017888  -0.033035  0  3.991743  0
C  C107  1  0.08606087  0.14087889  0.59875214  1  1.555269  0  0.190947  0.563522  0  4.205368  0
C  C108  1  0.60541738  0.60541537  0.99999934  1  1.513042  0  0.217859  0.588197  0  4.188959  0
C  C109  1  0.70189980  0.70190219  0.00000023  1  -0.048028  0  -0.023068  -0.051311  0  4.000727  0
C  C110  1  0.88212617  0.88212641  0.00000079  1  -0.045046  0  -0.071505  -0.098549  0  3.92761  0
C  C111  1  0.39458212  0.39458443  0.50000045  1  1.512996  0  0.217832  0.588133  0  4.189028  0
C  C112  1  0.29809970  0.29810219  0.50000117  1  -0.047951  0  -0.023006  -0.051307  0  4.000521  0
C  C113  1  0.11786784  0.11787431  0.49999900  1  -0.044965  0  -0.071515  -0.098653  0  3.927389  0
C  C114  1  0.89458419  0.10541847  0.24999959  1  1.512964  0  0.217858  0.588207  0  4.188795  0
C  C115  1  0.79810550  0.20189973  0.24999997  1  -0.047959  0  -0.023038  -0.051386  0  4.000457  0
C  C116  1  0.61787469  0.38213113  0.24999993  1  -0.044962  0  -0.071537  -0.098674  0  3.927372  0
C  C117  1  0.10541591  0.89457856  0.75000030  1  1.512809  0  0.217846  0.588261  0  4.188725  0
C  C118  1  0.20189643  0.79809821  0.75000032  1  -0.047833  0  -0.023076  -0.051419  0  4.000489  0
C  C119  1  0.38212999  0.61787047  0.75000037  1  -0.044997  0  -0.071564  -0.098669  0  3.92742  0
N  N120  1  0.11189541  0.15336704  0.83725196  1  -1.234688  0  -0.298166  -0.179549  0  3.526883  0
N  N121  1  0.31226127  0.29846336  0.86442755  1  -1.164865  0  -0.278606  -0.23383  0  3.339065  0
N  N122  1  0.35456731  0.35553447  0.97295198  1  -0.800793  0  -0.23328  -0.208914  0  3.49883  0
N  N123  1  0.88810065  0.84663303  0.33725173  1  -1.234373  0  -0.298216  -0.179711  0  3.527029  0
N  N124  1  0.68773587  0.70153589  0.36442739  1  -1.164587  0  -0.278625  -0.233838  0  3.338954  0
N  N125  1  0.64543414  0.64446791  0.47295014  1  -0.630017  0  -0.233266  -0.20889  0  3.498853  0
N  N126  1  0.34663212  0.61189949  0.08724989  1  -1.23511  0  -0.298198  -0.179713  0  3.526883  0
N  N127  1  0.20153490  0.81226302  0.11442690  1  -1.164543  0  -0.278635  -0.233806  0  3.339019  0
N  N128  1  0.14446972  0.85456789  0.22295047  1  -0.630027  0  -0.233257  -0.208854  0  3.498875  0
N  N129  1  0.65336791  0.38809788  0.58724929  1  -1.234869  0  -0.298193  -0.179592  0  3.526753  0
N  N130  1  0.79846438  0.18773353  0.61442714  1  -1.164441  0  -0.278595  -0.233834  0  3.339047  0
N  N131  1  0.85553296  0.14543086  0.72295034  1  -0.630045  0  -0.233286  -0.208929  0  3.49883  0
N  N132  1  0.38810337  0.65336659  0.41274824  1  -1.2345  0  -0.298173  -0.179616  0  3.52689  0
N  N133  1  0.18773670  0.79846267  0.38557274  1  -1.164668  0  -0.278592  -0.233824  0  3.338977  0
N  N134  1  0.14543344  0.85553245  0.27704875  1  -0.80119  0  -0.23329  -0.208924  0  3.498879  0
N  N135  1  0.61189680  0.34663100  0.91274717  1  -1.234406  0  -0.298187  -0.179565  0  3.526951  0
N  N136  1  0.81226331  0.20153666  0.88557221  1  -1.164789  0  -0.278552  -0.233733  0  3.338842  0
N  N137  1  0.85456591  0.14446558  0.77704902  1  -0.801147  0  -0.233256  -0.208869  0  3.498802  0
N  N138  1  0.15336817  0.11190210  0.16275088  1  -1.235693  0  -0.298222  -0.179632  0  3.526923  0
N  N139  1  0.29846188  0.31226564  0.13557400  1  -1.164394  0  -0.27856  -0.233772  0  3.338843  0
N  N140  1  0.35553166  0.35456835  0.02705006  1  -0.630074  0  -0.233252  -0.208854  0  3.498961  0
N  N141  1  0.84663140  0.88809919  0.66274963  1  -1.235565  0  -0.298196  -0.179624  0  3.526808  0
N  N142  1  0.70153478  0.68773464  0.63557245  1  -1.164478  0  -0.278596  -0.233742  0  3.339112  0
N  N143  1  0.64446892  0.64543155  0.52704842  1  -0.801169  0  -0.233231  -0.20878  0  3.498743  0
N  N144  1  0.21643050  0.21643560  0.00000100  1  -1.173952  0  -0.329011  -0.398521  0  3.148816  0
N  N145  1  0.78356626  0.78357061  0.50000040  1  -1.174024  0  -0.32898  -0.39842  0  3.148841  0
N  N146  1  0.28356987  0.71643260  0.25000025  1  -1.174047  0  -0.328964  -0.398426  0  3.148833  0
N  N147  1  0.71643206  0.28356626  0.74999885  1  -1.173932  0  -0.328984  -0.398511  0  3.148762  0
O  O148  1  0.52921733  0.60566501  0.96131121  1  -1.179943  0  -0.322189  -0.540679  0  2.376989  0
O  O149  1  0.79253584  0.91013947  0.86005816  1  -1.172268  0  -0.338381  -0.551257  0  2.080178  0
O  O150  1  0.96169380  0.97358659  0.90197403  1  -1.159081  0  -0.337863  -0.558423  0  2.289231  0
O  O151  1  0.47078588  0.39433092  0.46131341  1  -1.179852  0  -0.322186  -0.540664  0  2.376938  0
O  O152  1  0.20746584  0.08986618  0.36005346  1  -1.172359  0  -0.338403  -0.551341  0  2.080011  0
O  O153  1  0.03831546  0.02641554  0.40197149  1  -1.159165  0  -0.337835  -0.558447  0  2.289327  0
O  O154  1  0.89433515  0.02921741  0.21131128  1  -1.179848  0  -0.322199  -0.540693  0  2.376865  0
O  O155  1  0.58986625  0.29253992  0.11005509  1  -1.172358  0  -0.338406  -0.551324  0  2.079979  0
O  O156  1  0.52641934  0.46169290  0.15197006  1  -1.159044  0  -0.337822  -0.558399  0  2.289292  0
O  O157  1  0.10566381  0.97078222  0.71131204  1  -1.179826  0  -0.322157  -0.540676  0  2.37685  0
O  O158  1  0.41013758  0.70746851  0.61005322  1  -1.172066  0  -0.338441  -0.551337  0  2.079743  0
O  O159  1  0.47358383  0.53831201  0.65197015  1  -1.159239  0  -0.337824  -0.558415  0  2.289483  0
O  O160  1  0.97078543  0.10566563  0.28868953  1  -1.179874  0  -0.322236  -0.540764  0  2.376896  0
O  O161  1  0.70746623  0.41013659  0.38994558  1  -1.172281  0  -0.338413  -0.551291  0  2.079951  0
O  O162  1  0.53831289  0.47358253  0.34802895  1  -1.159186  0  -0.337882  -0.558459  0  2.289313  0
O  O163  1  0.02921765  0.89432879  0.78868895  1  -1.179899  0  -0.32219  -0.540704  0  2.376868  0
O  O164  1  0.29254021  0.58985910  0.88994510  1  -1.1724  0  -0.338453  -0.55136  0  2.079928  0
O  O165  1  0.46168689  0.52641667  0.84802542  1  -1.159212  0  -0.337809  -0.558381  0  2.289375  0
O  O166  1  0.60566819  0.52921353  0.03868641  1  -1.17988  0  -0.322229  -0.540757  0  2.376951  0
O  O167  1  0.91013820  0.79253663  0.13994197  1  -1.172328  0  -0.338397  -0.551306  0  2.080175  0
O  O168  1  0.97358798  0.96169408  0.09802751  1  -1.159172  0  -0.337883  -0.558479  0  2.289088  0
O  O169  1  0.39432971  0.47078641  0.53868797  1  -1.179943  0  -0.322218  -0.540715  0  2.376986  0
O  O170  1  0.08986399  0.20746367  0.63994381  1  -1.172346  0  -0.338384  -0.551294  0  2.079963  0
O  O171  1  0.02641578  0.03830973  0.59802796  1  -1.15918  0  -0.337862  -0.558415  0  2.28929  0
