# generated using pymatgen
data_ZnH13C20N7O4
_symmetry_space_group_name_H-M   'P 1'
_cell_length_a   10.05428784
_cell_length_b   10.14766796
_cell_length_c   13.98707979
_cell_angle_alpha   81.70789681
_cell_angle_beta   79.28448246
_cell_angle_gamma   69.73958623
_symmetry_Int_Tables_number   1
_chemical_formula_structural   ZnH13C20N7O4
_chemical_formula_sum   'Zn2 H26 C40 N14 O8'
_cell_volume   1310.48510348
_cell_formula_units_Z   2
loop_
 _symmetry_equiv_pos_site_id
 _symmetry_equiv_pos_as_xyz
  1  'x, y, z'
loop_
 _atom_site_type_symbol
 _atom_site_label
 _atom_site_symmetry_multiplicity
 _atom_site_fract_x
 _atom_site_fract_y
 _atom_site_fract_z
 _atom_site_occupancy
 _atom_site_hle17_bader_spin_density
 _atom_site_hle17_ddec_charge
 _atom_site_hle17_ddec_spin_density
 _atom_site_hle17_ddec_sum_bond_order
 _atom_site_hle17_magmom
 _atom_site_hse06_10hf_bader_spin_density
 _atom_site_hse06_10hf_ddec_charge
 _atom_site_hse06_10hf_ddec_spin_density
 _atom_site_hse06_10hf_ddec_sum_bond_order
 _atom_site_hse06_10hf_magmom
 _atom_site_hse06_bader_spin_density
 _atom_site_hse06_ddec_charge
 _atom_site_hse06_ddec_spin_density
 _atom_site_hse06_ddec_sum_bond_order
 _atom_site_hse06_magmom
 _atom_site_pbe_bader_spin_density
 _atom_site_pbe_cm5_charge
 _atom_site_pbe_ddec_charge
 _atom_site_pbe_ddec_spin_density
 _atom_site_pbe_ddec_sum_bond_order
 _atom_site_pbe_magmom
Zn  Zn0  1  0.86426712  0.39904037  0.97586844  1  0  1.035991  0  1.831299  0  0  0.853992  0  2.285761  0  0  0.904847  0  2.229927  0  0  0.68704  0.816526  0  2.326006  0
Zn  Zn1  1  0.13573113  0.60096325  0.02413139  1  0  1.036075  0  1.831232  0  0  0.85406  0  2.285708  0  0  0.904914  0  2.229874  0  0  0.68707  0.816586  0  2.325943  0
H  H2  1  0.89463287  0.93011114  0.96381690  1  0  0.135318  0  0.949002  0  0  0.139594  0  1.019614  0  0  0.144392  0  1.015145  0  0  0.110002  0.136503  0  1.02191  0
H  H3  1  0.10536640  0.06989247  0.03618423  1  0  0.135288  0  0.949029  0  0  0.139529  0  1.019674  0  0  0.144326  0  1.015207  0  0  0.109994  0.13644  0  1.021969  0
H  H4  1  0.56137256  0.80626918  0.88721079  1  0  0.116854  0  0.946235  0  0  0.122916  0  1.013529  0  0  0.126578  0  1.01132  0  0  0.10702  0.120131  0  1.015247  0
H  H5  1  0.43862605  0.19373337  0.11279125  1  0  0.116892  0  0.946272  0  0  0.122941  0  1.013569  0  0  0.126605  0  1.011364  0  0  0.107002  0.120156  0  1.015293  0
H  H6  1  0.52600096  0.24702829  0.86063724  1  0  0.116355  0  0.95067  0  0  0.122912  0  1.018231  0  0  0.126881  0  1.015274  0  0  0.107725  0.120174  0  1.020067  0
H  H7  1  0.47400033  0.75297532  0.13936218  1  0  0.116352  0  0.950625  0  0  0.122891  0  1.018208  0  0  0.126859  0  1.015252  0  0  0.107707  0.120151  0  1.020042  0
H  H8  1  0.55861998  0.50921512  0.07071944  1  0  0.108675  0  0.93555  0  0  0.115031  0  0.999812  0  0  0.118522  0  0.996136  0  0  0.125012  0.112352  0  1.002787  0
H  H9  1  0.44137798  0.49078323  0.92928026  1  0  0.108666  0  0.935556  0  0  0.115033  0  0.999797  0  0  0.118525  0  0.996119  0  0  0.125009  0.112354  0  1.002772  0
H  H10  1  0.41074133  0.50762274  0.23291936  1  0  0.122497  0  0.952708  0  0  0.126614  0  1.020539  0  0  0.130936  0  1.017871  0  0  0.11146  0.12358  0  1.022518  0
H  H11  1  0.58925800  0.49237455  0.76708097  1  0  0.122469  0  0.952732  0  0  0.126593  0  1.02055  0  0  0.130915  0  1.017883  0  0  0.111467  0.123561  0  1.022533  0
H  H12  1  0.80194554  0.27161733  0.35281007  1  0  0.100512  0  0.938577  0  0  0.113669  0  0.991778  0  0  0.116457  0  0.991763  0  0  0.107408  0.111554  0  0.992132  0
H  H13  1  0.19805410  0.72838208  0.64718857  1  0  0.100506  0  0.938554  0  0  0.113666  0  0.991757  0  0  0.116455  0  0.991741  0  0  0.107407  0.111549  0  0.992113  0
H  H14  1  0.93437474  0.28287657  0.18245413  1  0  0.089609  0  0.941301  0  0  0.09865  0  1.00093  0  0  0.100651  0  1.000122  0  0  0.119863  0.097435  0  1.000951  0
H  H15  1  0.06562456  0.71712388  0.81754517  1  0  0.089549  0  0.941367  0  0  0.098636  0  1.000946  0  0  0.100636  0  1.00014  0  0  0.119858  0.097418  0  1.000966  0
H  H16  1  0.57820268  0.32367968  0.46513774  1  0  0.073631  0  0.909462  0  0  0.082131  0  0.972715  0  0  0.086398  0  0.967856  0  0  0.116035  0.079093  0  0.976253  0
H  H17  1  0.42179731  0.67631866  0.53486169  1  0  0.073604  0  0.909476  0  0  0.0821  0  0.972732  0  0  0.086367  0  0.967873  0  0  0.116021  0.07906  0  0.976272  0
H  H18  1  0.13388404  0.54909793  0.49091403  1  0  0.070252  0  0.926431  0  0  0.079086  0  0.992438  0  0  0.08299  0  0.988166  0  0  0.113419  0.076019  0  0.996115  0
H  H19  1  0.86611529  0.45089936  0.50908631  1  0  0.070277  0  0.926481  0  0  0.079104  0  0.992485  0  0  0.083008  0  0.988213  0  0  0.113431  0.076038  0  0.996163  0
H  H20  1  0.91551183  0.60770480  0.61424723  1  0  0.106585  0  0.946407  0  0  0.117709  0  1.002695  0  0  0.120581  0  1.002606  0  0  0.107847  0.115502  0  1.003207  0
H  H21  1  0.08448987  0.39229143  0.38575218  1  0  0.106546  0  0.94647  0  0  0.117708  0  1.002716  0  0  0.120581  0  1.002627  0  0  0.107847  0.115503  0  1.003228  0
H  H22  1  0.79453843  0.57270294  0.78460579  1  0  0.091521  0  0.932275  0  0  0.10035  0  0.993156  0  0  0.102743  0  0.991287  0  0  0.123141  0.098584  0  0.994588  0
H  H23  1  0.20546460  0.42729540  0.21539322  1  0  0.091526  0  0.932202  0  0  0.100365  0  0.993075  0  0  0.102755  0  0.991207  0  0  0.12315  0.098602  0  0.994508  0
H  H24  1  0.16096286  0.26621132  0.86399395  1  0  0.085565  0  0.960105  0  0  0.090624  0  1.02853  0  0  0.092865  0  1.027204  0  0  0.119447  0.088955  0  1.029643  0
H  H25  1  0.83903412  0.73378388  0.13600549  1  0  0.08559  0  0.960051  0  0  0.090625  0  1.02851  0  0  0.092864  0  1.027186  0  0  0.119456  0.088971  0  1.029607  0
H  H26  1  0.29889030  0.28537483  0.69765775  1  0  0.113787  0  0.958992  0  0  0.113908  0  1.032458  0  0  0.118749  0  1.029424  0  0  0.107817  0.110613  0  1.034421  0
H  H27  1  0.70110941  0.71461825  0.30234225  1  0  0.113782  0  0.959003  0  0  0.113894  0  1.03247  0  0  0.118735  0  1.029437  0  0  0.107805  0.110599  0  1.034432  0
C  C28  1  0.71577994  0.10028628  0.91373639  1  0  -0.041554  0  3.758339  0  0  -0.015262  0  3.993343  0  0  -0.023737  0  4.016948  0  0  -0.018817  -0.010427  0  3.978449  0
C  C29  1  0.28422136  0.89971731  0.08626517  1  0  -0.041731  0  3.758703  0  0  -0.015394  0  3.99365  0  0  -0.023871  0  4.01726  0  0  -0.018799  -0.010556  0  3.978747  0
C  C30  1  0.79258018  0.95818649  0.93665065  1  0  -0.08542  0  3.660311  0  0  -0.129592  0  3.916281  0  0  -0.12773  0  3.934821  0  0  -0.084598  -0.130612  0  3.903706  0
C  C31  1  0.20741874  0.04181817  0.06335113  1  0  -0.085338  0  3.66061  0  0  -0.129491  0  3.91659  0  0  -0.127628  0  3.935133  0  0  -0.084588  -0.130509  0  3.90401  0
C  C32  1  0.73564026  0.85356425  0.92668349  1  0  -0.060355  0  3.778834  0  0  -0.034301  0  4.020679  0  0  -0.042989  0  4.044608  0  0  -0.024529  -0.029214  0  4.005509  0
C  C33  1  0.26435800  0.14643935  0.07331920  1  0  -0.060309  0  3.778717  0  0  -0.034267  0  4.020565  0  0  -0.042954  0  4.044498  0  0  -0.024537  -0.029179  0  4.005393  0
C  C34  1  0.60444319  0.88973125  0.89210960  1  0  -0.159193  0  3.717408  0  0  -0.196202  0  3.971243  0  0  -0.197079  0  3.990661  0  0  -0.092659  -0.194695  0  3.957794  0
C  C35  1  0.39555913  0.11027233  0.10789397  1  0  -0.159347  0  3.717481  0  0  -0.196306  0  3.971328  0  0  -0.19719  0  3.990748  0  0  -0.092684  -0.194802  0  3.957889  0
C  C36  1  0.53128354  0.03135818  0.86618935  1  0  0.182054  0  3.873224  0  0  0.188337  0  4.138408  0  0  0.19238  0  4.160545  0  0  0.088898  0.185219  0  4.123466  0
C  C37  1  0.46871503  0.96864754  0.13381022  1  0  0.182184  0  3.873227  0  0  0.18838  0  4.138503  0  0  0.192425  0  4.160641  0  0  0.088884  0.185257  0  4.123565  0
C  C38  1  0.58579438  0.13652490  0.87782211  1  0  -0.128418  0  3.679249  0  0  -0.16434  0  3.929185  0  0  -0.163371  0  3.94522  0  0  -0.081008  -0.164428  0  3.918329  0
C  C39  1  0.41420828  0.86347764  0.12217866  1  0  -0.128329  0  3.679241  0  0  -0.164221  0  3.92919  0  0  -0.163253  0  3.945229  0  0  -0.080984  -0.164311  0  3.918333  0
C  C40  1  0.76854315  0.21567250  0.93037913  1  0  0.612503  0  3.946884  0  0  0.567139  0  4.233765  0  0  0.600581  0  4.229232  0  0  0.186712  0.54461  0  4.236073  0
C  C41  1  0.23145988  0.78432583  0.06962132  1  0  0.612637  0  3.946778  0  0  0.56726  0  4.233664  0  0  0.600702  0  4.229131  0  0  0.186745  0.544724  0  4.235971  0
C  C42  1  0.81445537  0.70070792  0.95305521  1  0  0.651498  0  3.910734  0  0  0.597123  0  4.210175  0  0  0.632504  0  4.200796  0  0  0.209835  0.57299  0  4.216326  0
C  C43  1  0.18554321  0.29929779  0.04694579  1  0  0.651434  0  3.910684  0  0  0.597077  0  4.210104  0  0  0.632457  0  4.200728  0  0  0.209837  0.572945  0  4.216251  0
C  C44  1  0.60861012  0.45655876  0.13478915  1  0  0.139024  0  3.65669  0  0  0.106828  0  3.90857  0  0  0.113427  0  3.926155  0  0  0.054864  0.102493  0  3.896683  0
C  C45  1  0.39138988  0.54343958  0.86521027  1  0  0.139035  0  3.656619  0  0  0.106829  0  3.908501  0  0  0.113429  0  3.926085  0  0  0.054866  0.102491  0  3.896616  0
C  C46  1  0.52609467  0.45510566  0.22601357  1  0  -0.133482  0  3.658197  0  0  -0.152158  0  3.903279  0  0  -0.159311  0  3.923824  0  0  -0.07267  -0.147678  0  3.889458  0
C  C47  1  0.47390634  0.54489268  0.77398572  1  0  -0.133433  0  3.658159  0  0  -0.152101  0  3.903257  0  0  -0.159255  0  3.923801  0  0  -0.07266  -0.147626  0  3.889441  0
C  C48  1  0.59429869  0.38708862  0.30733693  1  0  0.079106  0  3.812796  0  0  0.093164  0  4.0492  0  0  0.094805  0  4.073554  0  0  0.003605  0.092438  0  4.032388  0
C  C49  1  0.40570165  0.61290867  0.69266256  1  0  0.079105  0  3.812693  0  0  0.093133  0  4.049144  0  0  0.094772  0  4.073499  0  0  0.003583  0.092406  0  4.032324  0
C  C50  1  0.74401411  0.32569035  0.29216041  1  0  -0.157792  0  3.733234  0  0  -0.179505  0  3.988185  0  0  -0.188182  0  4.012087  0  0  -0.080735  -0.173602  0  3.972018  0
C  C51  1  0.25598620  0.67431010  0.70783947  1  0  -0.15777  0  3.733176  0  0  -0.17948  0  3.988154  0  0  -0.188156  0  4.012057  0  0  -0.080729  -0.173577  0  3.971987  0
C  C52  1  0.81853994  0.33126201  0.19830536  1  0  0.143314  0  3.695138  0  0  0.110496  0  3.952244  0  0  0.117296  0  3.971167  0  0  0.052903  0.106365  0  3.93872  0
C  C53  1  0.18146072  0.66873738  0.80169386  1  0  0.143311  0  3.695202  0  0  0.110457  0  3.952318  0  0  0.117256  0  3.971241  0  0  0.052877  0.106322  0  3.938789  0
C  C54  1  0.51609660  0.37465414  0.40500191  1  0  0.107696  0  3.653072  0  0  0.071347  0  3.917417  0  0  0.079318  0  3.928369  0  0  0.081161  0.065645  0  3.910048  0
C  C55  1  0.48390339  0.62534420  0.59499823  1  0  0.107725  0  3.653052  0  0  0.071394  0  3.917393  0  0  0.079367  0  3.928343  0  0  0.081183  0.065693  0  3.910025  0
C  C56  1  0.19247973  0.46787662  0.54319915  1  0  0.076101  0  3.678626  0  0  0.041348  0  3.944423  0  0  0.047833  0  3.955805  0  0  0.069862  0.036738  0  3.937088  0
C  C57  1  0.80752162  0.53212067  0.45680020  1  0  0.076054  0  3.678667  0  0  0.041299  0  3.944449  0  0  0.047783  0  3.955833  0  0  0.069824  0.036685  0  3.937118  0
C  C58  1  0.11846372  0.44861567  0.64150465  1  0  0.08197  0  3.823894  0  0  0.098346  0  4.055435  0  0  0.10011  0  4.080228  0  0  0.002873  0.097442  0  4.038856  0
C  C59  1  0.88153662  0.55138162  0.35849484  1  0  0.082043  0  3.823754  0  0  0.098453  0  4.055247  0  0  0.100218  0  4.08004  0  0  0.002885  0.09755  0  4.03867  0
C  C60  1  0.97440286  0.53012566  0.66704471  1  0  -0.166549  0  3.719364  0  0  -0.185309  0  3.967766  0  0  -0.193708  0  3.990742  0  0  -0.08193  -0.179923  0  3.952729  0
C  C61  1  0.02559713  0.46987269  0.33295471  1  0  -0.1665  0  3.719377  0  0  -0.185301  0  3.967761  0  0  -0.193702  0  3.990737  0  0  -0.081893  -0.179916  0  3.952727  0
C  C62  1  0.90604964  0.51163803  0.76153282  1  0  0.139219  0  3.692994  0  0  0.107035  0  3.943897  0  0  0.113961  0  3.962294  0  0  0.054213  0.102583  0  3.931244  0
C  C63  1  0.09395204  0.48836136  0.23846628  1  0  0.139204  0  3.692899  0  0  0.107007  0  3.943832  0  0  0.113938  0  3.962226  0  0  0.054181  0.10255  0  3.931184  0
C  C64  1  0.11101611  0.33964053  0.80600232  1  0  0.14188  0  3.675216  0  0  0.110311  0  3.92449  0  0  0.116876  0  3.943034  0  0  0.053154  0.105888  0  3.912167  0
C  C65  1  0.88898256  0.66035572  0.19399678  1  0  0.141849  0  3.675321  0  0  0.110306  0  3.924587  0  0  0.11687  0  3.943134  0  0  0.053138  0.105871  0  3.912261  0
C  C66  1  0.18711262  0.35047531  0.71347322  1  0  -0.139062  0  3.681193  0  0  -0.159273  0  3.929315  0  0  -0.166565  0  3.950522  0  0  -0.077022  -0.154678  0  3.915264  0
C  C67  1  0.81288569  0.64952199  0.28652511  1  0  -0.139054  0  3.681232  0  0  -0.159259  0  3.929323  0  0  -0.16655  0  3.950533  0  0  -0.076992  -0.154664  0  3.91528  0
N  N68  1  0.39950299  0.07808162  0.82888174  1  0  -0.26056  0  3.033092  0  0  -0.246726  0  3.303992  0  0  -0.265476  0  3.321389  0  0  -0.155411  -0.234558  0  3.292608  0
N  N69  1  0.60049965  0.92192094  0.17111474  1  0  -0.260886  0  3.032929  0  0  -0.247028  0  3.303868  0  0  -0.265778  0  3.321263  0  0  -0.155509  -0.234853  0  3.292488  0
N  N70  1  0.34016276  0.99313459  0.82106442  1  0  0.333852  0  4.006458  0  0  0.369864  0  4.302144  0  0  0.381783  0  4.323823  0  0  0.140322  0.361514  0  4.288348  0
N  N71  1  0.65984294  0.00686794  0.17893595  1  0  0.334036  0  4.006367  0  0  0.370045  0  4.302046  0  0  0.381963  0  4.323723  0  0  0.140364  0.361698  0  4.288252  0
N  N72  1  0.27120318  0.92872162  0.80949335  1  0  -0.182976  0  2.361379  0  0  -0.189004  0  2.567818  0  0  -0.185997  0  2.577037  0  0  -0.068807  -0.190948  0  2.561501  0
N  N73  1  0.72879413  0.07127567  0.19050798  1  0  -0.182909  0  2.361507  0  0  -0.188931  0  2.567945  0  0  -0.185919  0  2.577162  0  0  -0.068722  -0.19087  0  2.561629  0
N  N74  1  0.75235830  0.39540344  0.12099493  1  0  -0.302521  0  3.254264  0  0  -0.223761  0  3.517657  0  0  -0.242759  0  3.53538  0  0  -0.30978  -0.210846  0  3.505364  0
N  N75  1  0.24764033  0.60459596  0.87900457  1  0  -0.302484  0  3.254149  0  0  -0.223712  0  3.51753  0  0  -0.242709  0  3.535253  0  0  -0.309757  -0.210795  0  3.505227  0
N  N76  1  0.37727815  0.41960164  0.42173461  1  0  -0.208717  0  3.043386  0  0  -0.17894  0  3.331077  0  0  -0.189173  0  3.347652  0  0  -0.21075  -0.171363  0  3.319105  0
N  N77  1  0.62272184  0.58039670  0.57826482  1  0  -0.208713  0  3.043388  0  0  -0.178939  0  3.331075  0  0  -0.18917  0  3.347647  0  0  -0.210753  -0.171364  0  3.319105  0
N  N78  1  0.32429432  0.39153577  0.51796872  1  0  -0.194228  0  3.064297  0  0  -0.165644  0  3.352429  0  0  -0.17335  0  3.368107  0  0  -0.20813  -0.159553  0  3.340879  0
N  N79  1  0.67570704  0.60846151  0.48203134  1  0  -0.194259  0  3.064351  0  0  -0.165681  0  3.352487  0  0  -0.173388  0  3.368165  0  0  -0.208132  -0.159589  0  3.340938  0
N  N80  1  0.97346495  0.41931036  0.83019497  1  0  -0.295582  0  3.256421  0  0  -0.213649  0  3.510994  0  0  -0.231904  0  3.528209  0  0  -0.307203  -0.201267  0  3.499268  0
N  N81  1  0.02653403  0.58068799  0.16980459  1  0  -0.295622  0  3.256458  0  0  -0.213698  0  3.511035  0  0  -0.231952  0  3.528247  0  0  -0.30722  -0.201314  0  3.499315  0
O  O82  1  0.88915482  0.18198163  0.96064880  1  0  -0.618944  0  1.982532  0  0  -0.564287  0  2.22803  0  0  -0.592413  0  2.218729  0  0  -0.324  -0.544082  0  2.23279  0
O  O83  1  0.11084584  0.81801776  0.03935114  1  0  -0.619001  0  1.982464  0  0  -0.56432  0  2.227961  0  0  -0.592448  0  2.218659  0  0  -0.324004  -0.54412  0  2.232721  0
O  O84  1  0.69015722  0.34391995  0.91607437  1  0  -0.639218  0  1.942134  0  0  -0.584253  0  2.180077  0  0  -0.611148  0  2.171633  0  0  -0.327635  -0.56462  0  2.185895  0
O  O85  1  0.30984750  0.65607942  0.08392717  1  0  -0.63924  0  1.942088  0  0  -0.584295  0  2.180067  0  0  -0.611186  0  2.171615  0  0  -0.327656  -0.564669  0  2.185892  0
O  O86  1  0.94393861  0.66683891  0.96559520  1  0  -0.652225  0  2.141653  0  0  -0.591945  0  2.431166  0  0  -0.617767  0  2.414345  0  0  -0.320974  -0.573444  0  2.441499  0
O  O87  1  0.05605796  0.33316365  0.03440568  1  0  -0.652245  0  2.141615  0  0  -0.591976  0  2.431115  0  0  -0.617799  0  2.414296  0  0  -0.320999  -0.573488  0  2.44148  0
O  O88  1  0.74627784  0.61381968  0.95878245  1  0  -0.628594  0  2.053452  0  0  -0.564401  0  2.314995  0  0  -0.591834  0  2.302178  0  0  -0.314987  -0.545013  0  2.324272  0
O  O89  1  0.25372177  0.38618289  0.04121516  1  0  -0.628551  0  2.053535  0  0  -0.564356  0  2.315061  0  0  -0.591787  0  2.302246  0  0  -0.314965  -0.544967  0  2.324336  0
