# generated using pymatgen
data_CuP2H16C10BrO7
_symmetry_space_group_name_H-M   'P 1'
_cell_length_a   10.07758101
_cell_length_b   10.81565192
_cell_length_c   16.34101828
_cell_angle_alpha   90.00002874
_cell_angle_beta   89.99993863
_cell_angle_gamma   98.42727376
_symmetry_Int_Tables_number   1
_chemical_formula_structural   CuP2H16C10BrO7
_chemical_formula_sum   'Cu4 P8 H64 C40 Br4 O28'
_cell_volume   1761.86813689
_cell_formula_units_Z   4
loop_
 _symmetry_equiv_pos_site_id
 _symmetry_equiv_pos_as_xyz
  1  'x, y, z'
loop_
 _atom_site_type_symbol
 _atom_site_label
 _atom_site_symmetry_multiplicity
 _atom_site_fract_x
 _atom_site_fract_y
 _atom_site_fract_z
 _atom_site_occupancy
 _atom_site_hle17_bader_spin_density
 _atom_site_hle17_ddec_charge
 _atom_site_hle17_ddec_spin_density
 _atom_site_hle17_ddec_sum_bond_order
 _atom_site_hle17_magmom
 _atom_site_hse06_10hf_bader_spin_density
 _atom_site_hse06_10hf_ddec_charge
 _atom_site_hse06_10hf_ddec_spin_density
 _atom_site_hse06_10hf_ddec_sum_bond_order
 _atom_site_hse06_10hf_magmom
 _atom_site_hse06_bader_spin_density
 _atom_site_hse06_ddec_charge
 _atom_site_hse06_ddec_spin_density
 _atom_site_hse06_ddec_sum_bond_order
 _atom_site_hse06_magmom
 _atom_site_pbe_bader_spin_density
 _atom_site_pbe_cm5_charge
 _atom_site_pbe_ddec_charge
 _atom_site_pbe_ddec_spin_density
 _atom_site_pbe_ddec_sum_bond_order
 _atom_site_pbe_magmom
Cu  Cu0  1  0.42517279  0.46658767  0.92740726  1  0  -0.058599  0  2.63064  0  0  -0.121233  0  3.144048  0  0  -0.13518  0  3.102233  0  0  0.366521  -0.110219  0  3.171139  0
Cu  Cu1  1  0.42517482  0.96659028  0.57259102  1  0  -0.058524  0  2.63042  0  0  -0.121148  0  3.143771  0  0  -0.135104  0  3.101941  0  0  0.366548  -0.110151  0  3.170953  0
Cu  Cu2  1  0.57482500  0.53341311  0.07259207  1  0  -0.058556  0  2.630566  0  0  -0.121168  0  3.143963  0  0  -0.135118  0  3.102149  0  0  0.366544  -0.110157  0  3.171011  0
Cu  Cu3  1  0.57482823  0.03341232  0.42740708  1  0  -0.058589  0  2.630629  0  0  -0.121211  0  3.144077  0  0  -0.135156  0  3.102261  0  0  0.366549  -0.110225  0  3.171292  0
P  P4  1  0.51187903  0.48974484  0.80516394  1  0  0.89775  0  4.229942  0  0  0.757711  0  4.808067  0  0  0.809812  0  4.753417  0  0  0.201128  0.721002  0  4.844994  0
P  P5  1  0.51188055  0.98974564  0.69483491  1  0  0.897741  0  4.230053  0  0  0.75773  0  4.808202  0  0  0.809841  0  4.753529  0  0  0.201116  0.721006  0  4.845199  0
P  P6  1  0.48811944  0.51025406  0.19483478  1  0  0.897816  0  4.230108  0  0  0.757757  0  4.808239  0  0  0.809866  0  4.753581  0  0  0.201124  0.721058  0  4.84515  0
P  P7  1  0.48812532  0.01025600  0.30516320  1  0  0.897871  0  4.22994  0  0  0.757802  0  4.80806  0  0  0.809904  0  4.753411  0  0  0.201137  0.721069  0  4.845083  0
P  P8  1  0.22363815  0.86862006  0.54792003  1  0  0.888807  0  4.21215  0  0  0.749473  0  4.790484  0  0  0.80055  0  4.737225  0  0  0.197911  0.713791  0  4.826495  0
P  P9  1  0.22363638  0.36861933  0.95207836  1  0  0.888859  0  4.212263  0  0  0.749545  0  4.790599  0  0  0.800618  0  4.737354  0  0  0.197926  0.713868  0  4.826556  0
P  P10  1  0.77636313  0.13137788  0.45208175  1  0  0.88884  0  4.212119  0  0  0.749429  0  4.790512  0  0  0.800511  0  4.737257  0  0  0.197954  0.713766  0  4.826522  0
P  P11  1  0.77636140  0.63138145  0.04791914  1  0  0.88883  0  4.212151  0  0  0.749467  0  4.790508  0  0  0.800546  0  4.737262  0  0  0.197926  0.713808  0  4.826407  0
H  H12  1  0.39994041  0.51159494  0.61965167  1  0  0.068289  0  0.912081  0  0  0.08217  0  0.972254  0  0  0.08276  0  0.971911  0  0  0.103887  0.081666  0  0.97255  0
H  H13  1  0.39994158  0.01159321  0.88034770  1  0  0.068311  0  0.912012  0  0  0.082195  0  0.972199  0  0  0.082785  0  0.971856  0  0  0.103891  0.081689  0  0.97249  0
H  H14  1  0.60005691  0.48840304  0.38034828  1  0  0.068269  0  0.912022  0  0  0.082159  0  0.972208  0  0  0.082748  0  0.971869  0  0  0.103877  0.081654  0  0.972499  0
H  H15  1  0.60006132  0.98840846  0.11965102  1  0  0.068268  0  0.912052  0  0  0.082145  0  0.972237  0  0  0.082737  0  0.971893  0  0  0.103878  0.081641  0  0.972532  0
H  H16  1  0.45364278  0.35955543  0.61877347  1  0  0.072581  0  0.960046  0  0  0.083599  0  1.027306  0  0  0.084417  0  1.02739  0  0  0.09376  0.082842  0  1.027481  0
H  H17  1  0.45364566  0.85955443  0.88122537  1  0  0.072582  0  0.960137  0  0  0.083631  0  1.027366  0  0  0.084449  0  1.027451  0  0  0.093752  0.082877  0  1.027545  0
H  H18  1  0.54635454  0.64044255  0.38122648  1  0  0.072534  0  0.960142  0  0  0.083623  0  1.027323  0  0  0.084473  0  1.027375  0  0  0.093765  0.08287  0  1.027507  0
H  H19  1  0.54635724  0.14044724  0.11877335  1  0  0.072598  0  0.960079  0  0  0.08365  0  1.027289  0  0  0.084444  0  1.027403  0  0  0.093748  0.082887  0  1.02747  0
H  H20  1  0.67831572  0.33570645  0.67967841  1  0  0.080223  0  0.921503  0  0  0.090621  0  0.986168  0  0  0.091939  0  0.985378  0  0  0.107199  0.089481  0  0.986999  0
H  H21  1  0.67832099  0.83570728  0.82032089  1  0  0.080215  0  0.921468  0  0  0.090598  0  0.986152  0  0  0.091919  0  0.985354  0  0  0.107205  0.089459  0  0.98699  0
H  H22  1  0.32168076  0.66429247  0.32032215  1  0  0.080191  0  0.921501  0  0  0.09058  0  0.986181  0  0  0.091905  0  0.98538  0  0  0.1072  0.089446  0  0.987018  0
H  H23  1  0.32168289  0.16429438  0.17967967  1  0  0.080253  0  0.92151  0  0  0.09065  0  0.986184  0  0  0.091973  0  0.985389  0  0  0.107207  0.08951  0  0.987012  0
H  H24  1  0.79906306  0.47176540  0.70198667  1  0  0.070801  0  0.908317  0  0  0.083112  0  0.968242  0  0  0.084407  0  0.966885  0  0  0.105736  0.082284  0  0.969034  0
H  H25  1  0.79906687  0.97176904  0.79801321  1  0  0.070796  0  0.908306  0  0  0.08311  0  0.968218  0  0  0.084402  0  0.966862  0  0  0.105736  0.082279  0  0.96901  0
H  H26  1  0.20093326  0.52823258  0.29801389  1  0  0.070811  0  0.908276  0  0  0.083109  0  0.968201  0  0  0.084401  0  0.966845  0  0  0.105733  0.082282  0  0.968997  0
H  H27  1  0.20093817  0.02823354  0.20198796  1  0  0.070793  0  0.908326  0  0  0.083117  0  0.968253  0  0  0.084412  0  0.966899  0  0  0.10574  0.082292  0  0.969048  0
H  H28  1  0.72073111  0.68711237  0.69997951  1  0  0.06892  0  0.919992  0  0  0.078443  0  0.98497  0  0  0.079623  0  0.983597  0  0  0.104407  0.077506  0  0.98619  0
H  H29  1  0.72073007  0.18711437  0.80002154  1  0  0.068921  0  0.919978  0  0  0.078438  0  0.984957  0  0  0.079615  0  0.983586  0  0  0.104417  0.077495  0  0.986178  0
H  H30  1  0.27926621  0.31288560  0.30001982  1  0  0.068905  0  0.920042  0  0  0.078476  0  0.984959  0  0  0.079655  0  0.983586  0  0  0.104421  0.077538  0  0.986183  0
H  H31  1  0.27927398  0.81288822  0.19997902  1  0  0.068954  0  0.920003  0  0  0.07848  0  0.984972  0  0  0.07966  0  0.983598  0  0  0.104441  0.077546  0  0.986198  0
H  H32  1  0.56369030  0.70437302  0.65454421  1  0  0.076331  0  0.939786  0  0  0.08538  0  1.009657  0  0  0.086411  0  1.008874  0  0  0.100263  0.084572  0  1.01035  0
H  H33  1  0.56368772  0.20437225  0.84545695  1  0  0.076307  0  0.939774  0  0  0.085352  0  1.009647  0  0  0.08638  0  1.008867  0  0  0.100243  0.084538  0  1.010336  0
H  H34  1  0.43630832  0.29562681  0.34545512  1  0  0.07635  0  0.939811  0  0  0.085392  0  1.009684  0  0  0.086422  0  1.0089  0  0  0.100256  0.084581  0  1.01038  0
H  H35  1  0.43631434  0.79563036  0.15454299  1  0  0.07637  0  0.939717  0  0  0.085402  0  1.009618  0  0  0.086431  0  1.008835  0  0  0.100262  0.08459  0  1.010321  0
H  H36  1  0.65907244  0.43681256  0.53367407  1  0  0.064264  0  0.929904  0  0  0.071172  0  1.00279  0  0  0.072501  0  1.001498  0  0  0.095575  0.070056  0  1.003941  0
H  H37  1  0.65907237  0.93681257  0.96632650  1  0  0.064271  0  0.92989  0  0  0.071175  0  1.002776  0  0  0.072502  0  1.001485  0  0  0.095573  0.070061  0  1.003935  0
H  H38  1  0.34092503  0.56318635  0.46632649  1  0  0.064241  0  0.92986  0  0  0.071133  0  1.002764  0  0  0.07246  0  1.001476  0  0  0.095533  0.070015  0  1.003919  0
H  H39  1  0.34092725  0.06318726  0.03367283  1  0  0.064272  0  0.929914  0  0  0.071144  0  1.002815  0  0  0.07247  0  1.001527  0  0  0.095561  0.070025  0  1.00396  0
H  H40  1  0.60157577  0.58627222  0.52911075  1  0  0.05691  0  0.967737  0  0  0.069084  0  1.03751  0  0  0.069098  0  1.0387  0  0  0.09378  0.068809  0  1.037027  0
H  H41  1  0.60157512  0.08627243  0.97088913  1  0  0.056904  0  0.967746  0  0  0.06907  0  1.037527  0  0  0.069081  0  1.038717  0  0  0.093764  0.068794  0  1.037037  0
H  H42  1  0.39842369  0.41372667  0.47088920  1  0  0.056893  0  0.967759  0  0  0.069059  0  1.037533  0  0  0.069073  0  1.03872  0  0  0.093758  0.068781  0  1.03704  0
H  H43  1  0.39842465  0.91372833  0.02911082  1  0  0.056932  0  0.967741  0  0  0.069088  0  1.03752  0  0  0.069102  0  1.038708  0  0  0.093773  0.068811  0  1.037034  0
H  H44  1  0.77156923  0.72339604  0.47852819  1  0  0.061941  0  0.972706  0  0  0.074031  0  1.040479  0  0  0.074932  0  1.040622  0  0  0.089895  0.072657  0  1.041714  0
H  H45  1  0.77156948  0.22339696  0.02147213  1  0  0.061953  0  0.972673  0  0  0.074026  0  1.040466  0  0  0.074929  0  1.040609  0  0  0.089878  0.072648  0  1.041695  0
H  H46  1  0.22843122  0.27660284  0.52147298  1  0  0.061996  0  0.972585  0  0  0.074038  0  1.040432  0  0  0.074941  0  1.040574  0  0  0.089885  0.07266  0  1.041654  0
H  H47  1  0.22842914  0.77660288  0.97852904  1  0  0.061915  0  0.972691  0  0  0.074004  0  1.040469  0  0  0.074907  0  1.040609  0  0  0.089877  0.072628  0  1.041698  0
H  H48  1  0.85222003  0.59653627  0.44301566  1  0  0.050242  0  0.922904  0  0  0.063687  0  0.987335  0  0  0.06454  0  0.986397  0  0  0.097708  0.062708  0  0.988412  0
H  H49  1  0.85221923  0.09653721  0.05698456  1  0  0.050219  0  0.922877  0  0  0.063663  0  0.987303  0  0  0.064517  0  0.986364  0  0  0.097691  0.062684  0  0.988387  0
H  H50  1  0.14777927  0.40346169  0.55698673  1  0  0.050238  0  0.922888  0  0  0.063672  0  0.987327  0  0  0.064525  0  0.986389  0  0  0.097682  0.062691  0  0.988395  0
H  H51  1  0.14778153  0.90346354  0.94301661  1  0  0.050214  0  0.922885  0  0  0.063656  0  0.987316  0  0  0.064509  0  0.986376  0  0  0.097683  0.062677  0  0.988385  0
H  H52  1  0.89134997  0.88763645  0.57175003  1  0  0.085674  0  0.90878  0  0  0.096665  0  0.972393  0  0  0.097667  0  0.971917  0  0  0.110571  0.095472  0  0.973861  0
H  H53  1  0.89135007  0.38763476  0.92824853  1  0  0.085735  0  0.908792  0  0  0.096737  0  0.972374  0  0  0.097715  0  0.971925  0  0  0.110589  0.095543  0  0.973841  0
H  H54  1  0.10865032  0.11236150  0.42824992  1  0  0.085648  0  0.908811  0  0  0.096639  0  0.972416  0  0  0.097642  0  0.971941  0  0  0.110568  0.095447  0  0.973885  0
H  H55  1  0.10864787  0.61236695  0.07175264  1  0  0.08575  0  0.908755  0  0  0.096738  0  0.972367  0  0  0.097737  0  0.971892  0  0  0.110609  0.095547  0  0.973837  0
H  H56  1  0.94333118  0.77771293  0.64253995  1  0  0.072949  0  0.907028  0  0  0.085473  0  0.966133  0  0  0.086861  0  0.964613  0  0  0.107398  0.084362  0  0.967354  0
H  H57  1  0.94332827  0.27771030  0.85745915  1  0  0.07304  0  0.907102  0  0  0.085566  0  0.966176  0  0  0.08695  0  0.964655  0  0  0.107442  0.084456  0  0.967397  0
H  H58  1  0.05666796  0.22228409  0.35746061  1  0  0.072993  0  0.906995  0  0  0.085518  0  0.966097  0  0  0.086908  0  0.964577  0  0  0.107423  0.084409  0  0.96733  0
H  H59  1  0.05666639  0.72228957  0.14254202  1  0  0.073017  0  0.907098  0  0  0.085541  0  0.966194  0  0  0.086927  0  0.964672  0  0  0.107438  0.084443  0  0.96742  0
H  H60  1  0.03776054  0.74841326  0.38536961  1  0  0.067521  0  0.899829  0  0  0.083299  0  0.955406  0  0  0.084064  0  0.954786  0  0  0.107705  0.082526  0  0.956157  0
H  H61  1  0.03776262  0.24841421  0.11462936  1  0  0.067535  0  0.899823  0  0  0.083314  0  0.9554  0  0  0.084079  0  0.95478  0  0  0.107719  0.082543  0  0.956152  0
H  H62  1  0.96224121  0.25158748  0.61463094  1  0  0.067563  0  0.899792  0  0  0.083364  0  0.95533  0  0  0.084132  0  0.954707  0  0  0.107703  0.082583  0  0.956067  0
H  H63  1  0.96224142  0.75158839  0.88537058  1  0  0.067522  0  0.89982  0  0  0.083296  0  0.955397  0  0  0.084061  0  0.954779  0  0  0.107705  0.082521  0  0.956138  0
H  H64  1  0.97405914  0.88390985  0.42339327  1  0  0.082468  0  0.929691  0  0  0.093323  0  0.99179  0  0  0.094647  0  0.990905  0  0  0.10837  0.09214  0  0.992686  0
H  H65  1  0.97405800  0.38390893  0.07660635  1  0  0.082504  0  0.929703  0  0  0.093364  0  0.991787  0  0  0.094688  0  0.990902  0  0  0.108388  0.092179  0  0.992679  0
H  H66  1  0.02594261  0.11609089  0.57660851  1  0  0.0825  0  0.929695  0  0  0.093361  0  0.991771  0  0  0.094685  0  0.990889  0  0  0.10838  0.09217  0  0.99266  0
H  H67  1  0.02594292  0.61609275  0.92339482  1  0  0.08248  0  0.929659  0  0  0.093334  0  0.991756  0  0  0.094659  0  0.990869  0  0  0.108354  0.092144  0  0.992649  0
H  H68  1  0.04043959  0.58710088  0.58927671  1  0  0.072089  0  0.918619  0  0  0.082959  0  0.982317  0  0  0.084674  0  0.980141  0  0  0.107048  0.08163  0  0.983974  0
H  H69  1  0.04043972  0.08709918  0.91072293  1  0  0.072072  0  0.918588  0  0  0.082954  0  0.982292  0  0  0.084667  0  0.980117  0  0  0.107052  0.081624  0  0.983956  0
H  H70  1  0.95956169  0.41289706  0.41072324  1  0  0.072067  0  0.918599  0  0  0.082928  0  0.982306  0  0  0.084643  0  0.98013  0  0  0.10706  0.081601  0  0.983975  0
H  H71  1  0.95955791  0.91290067  0.08927885  1  0  0.072106  0  0.918558  0  0  0.082983  0  0.982263  0  0  0.084696  0  0.980087  0  0  0.107065  0.081657  0  0.983934  0
H  H72  1  0.10238569  0.59115025  0.48604628  1  0  0.061988  0  0.944605  0  0  0.071987  0  1.015134  0  0  0.0728  0  1.014984  0  0  0.102866  0.071213  0  1.015601  0
H  H73  1  0.10238480  0.09115024  0.01395444  1  0  0.061938  0  0.944603  0  0  0.071968  0  1.01513  0  0  0.07278  0  1.01498  0  0  0.102828  0.071192  0  1.015601  0
H  H74  1  0.89761575  0.40884862  0.51395367  1  0  0.061969  0  0.94456  0  0  0.07197  0  1.015093  0  0  0.072782  0  1.014943  0  0  0.102825  0.071191  0  1.015556  0
H  H75  1  0.89761627  0.90885238  0.98604673  1  0  0.061963  0  0.944572  0  0  0.071947  0  1.015164  0  0  0.072759  0  1.015013  0  0  0.102818  0.071172  0  1.015628  0
C  C76  1  0.46351443  0.45060789  0.64983580  1  0  0.070137  0  3.539082  0  0  0.013136  0  3.791622  0  0  0.019437  0  3.798825  0  0  -0.060829  0.009057  0  3.786497  0
C  C77  1  0.46351622  0.95060596  0.85016367  1  0  0.070087  0  3.53914  0  0  0.013036  0  3.791719  0  0  0.019338  0  3.798921  0  0  -0.060851  0.008965  0  3.786584  0
C  C78  1  0.53648304  0.54939102  0.35016414  1  0  0.070171  0  3.539025  0  0  0.013127  0  3.791645  0  0  0.019409  0  3.798836  0  0  -0.06083  0.009061  0  3.786519  0
C  C79  1  0.53648751  0.04939477  0.14983505  1  0  0.070151  0  3.53906  0  0  0.013129  0  3.791592  0  0  0.019441  0  3.798809  0  0  -0.060805  0.009052  0  3.786457  0
C  C80  1  0.69215652  0.43254412  0.70250441  1  0  0.075398  0  3.528633  0  0  0.013464  0  3.790039  0  0  0.020352  0  3.796492  0  0  -0.058618  0.008953  0  3.785559  0
C  C81  1  0.69215902  0.93254589  0.79749552  1  0  0.07543  0  3.528565  0  0  0.013521  0  3.789947  0  0  0.020412  0  3.796397  0  0  -0.058608  0.009016  0  3.785465  0
C  C82  1  0.30784096  0.56745480  0.29749614  1  0  0.075471  0  3.528511  0  0  0.013605  0  3.789909  0  0  0.020491  0  3.796361  0  0  -0.058557  0.009097  0  3.785443  0
C  C83  1  0.30784487  0.06745577  0.20250443  1  0  0.075358  0  3.528663  0  0  0.013378  0  3.790153  0  0  0.020255  0  3.796626  0  0  -0.058651  0.008871  0  3.785677  0
C  C84  1  0.61652420  0.64255714  0.69173832  1  0  0.07223  0  3.535604  0  0  0.012056  0  3.794521  0  0  0.019309  0  3.800522  0  0  -0.061972  0.007048  0  3.790888  0
C  C85  1  0.61652283  0.14255728  0.80826218  1  0  0.072258  0  3.535594  0  0  0.012132  0  3.794465  0  0  0.019393  0  3.800461  0  0  -0.061946  0.007124  0  3.790827  0
C  C86  1  0.38347426  0.35744176  0.30826102  1  0  0.072195  0  3.53557  0  0  0.012032  0  3.794489  0  0  0.019292  0  3.800487  0  0  -0.061972  0.007025  0  3.79086  0
C  C87  1  0.38348022  0.85744532  0.19173776  1  0  0.072241  0  3.53559  0  0  0.01204  0  3.794462  0  0  0.019301  0  3.800449  0  0  -0.061955  0.007031  0  3.790855  0
C  C88  1  0.61049890  0.51357412  0.65132711  1  0  -0.011836  0  3.638754  0  0  0.007224  0  3.878158  0  0  0.002635  0  3.897857  0  0  -0.028615  0.010215  0  3.864883  0
C  C89  1  0.61049830  0.01357334  0.84867274  1  0  -0.011806  0  3.638804  0  0  0.00726  0  3.878182  0  0  0.002666  0  3.897881  0  0  -0.028594  0.010252  0  3.864901  0
C  C90  1  0.38949857  0.48642479  0.34867345  1  0  -0.011755  0  3.638588  0  0  0.007135  0  3.878254  0  0  0.002538  0  3.897966  0  0  -0.028632  0.010132  0  3.864979  0
C  C91  1  0.38950345  0.98642741  0.15132659  1  0  -0.011846  0  3.638825  0  0  0.007262  0  3.87811  0  0  0.002677  0  3.897805  0  0  -0.028629  0.010254  0  3.86483  0
C  C92  1  0.66388818  0.52889021  0.56391332  1  0  0.037859  0  3.615253  0  0  -0.018208  0  3.873335  0  0  -0.012183  0  3.880329  0  0  -0.065324  -0.021908  0  3.868238  0
C  C93  1  0.66388759  0.02889041  0.93608710  1  0  0.037829  0  3.615244  0  0  -0.018224  0  3.873305  0  0  -0.012196  0  3.880301  0  0  -0.065321  -0.02193  0  3.868214  0
C  C94  1  0.33610930  0.47110870  0.43608724  1  0  0.037805  0  3.615177  0  0  -0.018207  0  3.87325  0  0  -0.012183  0  3.880249  0  0  -0.06531  -0.0219  0  3.868142  0
C  C95  1  0.33611317  0.97111035  0.06391345  1  0  0.037801  0  3.615285  0  0  -0.018208  0  3.873278  0  0  -0.012178  0  3.880272  0  0  -0.065313  -0.021902  0  3.868168  0
C  C96  1  0.84361110  0.65996360  0.49527925  1  0  0.04423  0  3.626148  0  0  -0.01759  0  3.891324  0  0  -0.011923  0  3.899037  0  0  -0.065496  -0.021436  0  3.886537  0
C  C97  1  0.84361107  0.15996264  0.00472038  1  0  0.044236  0  3.626087  0  0  -0.017554  0  3.89127  0  0  -0.011887  0  3.898985  0  0  -0.065474  -0.021406  0  3.886476  0
C  C98  1  0.15638851  0.34003623  0.50472192  1  0  0.044173  0  3.626048  0  0  -0.017601  0  3.891275  0  0  -0.011937  0  3.89899  0  0  -0.065507  -0.02145  0  3.88647  0
C  C99  1  0.15638870  0.84003812  0.99528078  1  0  0.044333  0  3.626021  0  0  -0.017512  0  3.891165  0  0  -0.011838  0  3.898877  0  0  -0.065457  -0.021361  0  3.886369  0
C  C100  1  0.97998571  0.73577286  0.51437289  1  0  -0.018698  0  3.649383  0  0  0.004274  0  3.886605  0  0  -0.000437  0  3.90677  0  0  -0.028766  0.007485  0  3.872783  0
C  C101  1  0.97998588  0.23577213  0.98562679  1  0  -0.018696  0  3.649411  0  0  0.004228  0  3.886675  0  0  -0.000486  0  3.906836  0  0  -0.028787  0.007444  0  3.872829  0
C  C102  1  0.02001442  0.26422415  0.48562767  1  0  -0.018698  0  3.649467  0  0  0.004143  0  3.88685  0  0  -0.000564  0  3.907014  0  0  -0.028753  0.007352  0  3.873018  0
C  C103  1  0.02001389  0.76422863  0.01437377  1  0  -0.018836  0  3.649615  0  0  0.004295  0  3.886594  0  0  -0.000419  0  3.906755  0  0  -0.028752  0.007512  0  3.872771  0
C  C104  1  0.96821034  0.82795115  0.58484220  1  0  0.084083  0  3.511421  0  0  0.02292  0  3.770751  0  0  0.030029  0  3.776689  0  0  -0.054985  0.018006  0  3.767219  0
C  C105  1  0.96820832  0.32794854  0.91515629  1  0  0.083802  0  3.51171  0  0  0.022678  0  3.771034  0  0  0.029816  0  3.776954  0  0  -0.055073  0.01775  0  3.767509  0
C  C106  1  0.03178995  0.17204680  0.41515897  1  0  0.08403  0  3.511483  0  0  0.022887  0  3.770844  0  0  0.02999  0  3.776787  0  0  -0.055039  0.017972  0  3.767323  0
C  C107  1  0.03178848  0.67205225  0.08484427  1  0  0.083891  0  3.511632  0  0  0.022676  0  3.770996  0  0  0.029801  0  3.776912  0  0  -0.055053  0.017752  0  3.767488  0
C  C108  1  0.03484255  0.81045954  0.43855664  1  0  0.075188  0  3.538056  0  0  0.016213  0  3.795066  0  0  0.022678  0  3.802427  0  0  -0.054639  0.011836  0  3.790241  0
C  C109  1  0.03484144  0.31045861  0.06144297  1  0  0.075179  0  3.53804  0  0  0.016212  0  3.795076  0  0  0.022677  0  3.802436  0  0  -0.054658  0.01183  0  3.79025  0
C  C110  1  0.96516019  0.18954120  0.56144453  1  0  0.075041  0  3.537972  0  0  0.0161  0  3.794964  0  0  0.022563  0  3.802324  0  0  -0.05466  0.011731  0  3.790107  0
C  C111  1  0.96515964  0.68954401  0.93855759  1  0  0.075195  0  3.538034  0  0  0.016202  0  3.795006  0  0  0.022668  0  3.802368  0  0  -0.054635  0.011832  0  3.790162  0
C  C112  1  0.08034819  0.64834596  0.53873334  1  0  0.0697  0  3.558203  0  0  0.006202  0  3.822329  0  0  0.013204  0  3.828403  0  0  -0.06198  0.001591  0  3.818061  0
C  C113  1  0.08034756  0.14834617  0.96126690  1  0  0.069821  0  3.558162  0  0  0.006277  0  3.822362  0  0  0.013283  0  3.828437  0  0  -0.061936  0.001666  0  3.818099  0
C  C114  1  0.91965393  0.35165103  0.46126722  1  0  0.069783  0  3.558167  0  0  0.006307  0  3.82224  0  0  0.013316  0  3.828313  0  0  -0.061961  0.001693  0  3.817978  0
C  C115  1  0.91965153  0.85165647  0.03873366  1  0  0.069832  0  3.558226  0  0  0.006248  0  3.822405  0  0  0.013255  0  3.828477  0  0  -0.06195  0.001638  0  3.81815  0
Br  Br116  1  0.44684501  0.67425478  0.99240569  1  0  -0.39821  0  1.356058  0  0  -0.34596  0  1.718465  0  0  -0.358732  0  1.689422  0  0  -0.248344  -0.336668  0  1.739302  0
Br  Br117  1  0.44683131  0.17424926  0.50757780  1  0  -0.398234  0  1.35607  0  0  -0.34599  0  1.718496  0  0  -0.358749  0  1.689429  0  0  -0.24836  -0.336685  0  1.739364  0
Br  Br118  1  0.55315408  0.32574786  0.00759059  1  0  -0.398219  0  1.35609  0  0  -0.345987  0  1.718529  0  0  -0.358734  0  1.689438  0  0  -0.248368  -0.336703  0  1.739358  0
Br  Br119  1  0.55315251  0.82574509  0.49240440  1  0  -0.398202  0  1.356047  0  0  -0.345954  0  1.71844  0  0  -0.358731  0  1.689408  0  0  -0.248326  -0.336645  0  1.739322  0
O  O120  1  0.41304192  0.42708405  0.73290163  1  0  -0.431056  0  2.182866  0  0  -0.351973  0  2.429691  0  0  -0.371322  0  2.41767  0  0  -0.232619  -0.338518  0  2.437703  0
O  O121  1  0.41304598  0.92708299  0.76709726  1  0  -0.431061  0  2.182917  0  0  -0.351974  0  2.429756  0  0  -0.371324  0  2.417732  0  0  -0.232582  -0.338507  0  2.437778  0
O  O122  1  0.58695341  0.57291394  0.26709831  1  0  -0.43106  0  2.182922  0  0  -0.351984  0  2.429786  0  0  -0.371335  0  2.417772  0  0  -0.232618  -0.338536  0  2.437812  0
O  O123  1  0.58695874  0.07291773  0.23290024  1  0  -0.431106  0  2.182807  0  0  -0.352024  0  2.42964  0  0  -0.371371  0  2.417615  0  0  -0.232616  -0.338545  0  2.437653  0
O  O124  1  0.64870454  0.43006261  0.78788956  1  0  -0.439317  0  2.210913  0  0  -0.357462  0  2.463712  0  0  -0.37833  0  2.455251  0  0  -0.22747  -0.342669  0  2.468986  0
O  O125  1  0.64870734  0.93006528  0.71210979  1  0  -0.439335  0  2.210897  0  0  -0.3575  0  2.463704  0  0  -0.37837  0  2.45524  0  0  -0.227455  -0.342694  0  2.46899  0
O  O126  1  0.35129392  0.56993629  0.21211100  1  0  -0.439358  0  2.210898  0  0  -0.357508  0  2.463693  0  0  -0.378375  0  2.45523  0  0  -0.227455  -0.342699  0  2.468969  0
O  O127  1  0.35129770  0.06993730  0.28789016  1  0  -0.439315  0  2.210879  0  0  -0.357509  0  2.463749  0  0  -0.378374  0  2.455292  0  0  -0.22745  -0.342694  0  2.46904  0
O  O128  1  0.55275291  0.63211518  0.77231226  1  0  -0.433667  0  2.210907  0  0  -0.353061  0  2.462247  0  0  -0.373517  0  2.452266  0  0  -0.226695  -0.338825  0  2.469104  0
O  O129  1  0.55275350  0.13211432  0.72768766  1  0  -0.433649  0  2.21099  0  0  -0.353117  0  2.462371  0  0  -0.373579  0  2.452387  0  0  -0.226739  -0.338881  0  2.469234  0
O  O130  1  0.44724487  0.36788560  0.22768585  1  0  -0.43374  0  2.211012  0  0  -0.353103  0  2.462326  0  0  -0.373566  0  2.452345  0  0  -0.226705  -0.338872  0  2.46918  0
O  O131  1  0.44725023  0.86788640  0.27231167  1  0  -0.433792  0  2.211038  0  0  -0.353096  0  2.462308  0  0  -0.373553  0  2.452328  0  0  -0.226705  -0.338839  0  2.469182  0
O  O132  1  0.79947736  0.59093155  0.56725396  1  0  -0.316235  0  2.285621  0  0  -0.248062  0  2.54062  0  0  -0.26452  0  2.543279  0  0  -0.228796  -0.236221  0  2.538294  0
O  O133  1  0.79947662  0.09093080  0.93274640  1  0  -0.316209  0  2.285638  0  0  -0.248037  0  2.540609  0  0  -0.264494  0  2.54327  0  0  -0.228788  -0.236196  0  2.538283  0
O  O134  1  0.20051913  0.40906737  0.43274721  1  0  -0.316147  0  2.285614  0  0  -0.247947  0  2.540554  0  0  -0.264402  0  2.543215  0  0  -0.22872  -0.236096  0  2.538226  0
O  O135  1  0.20052399  0.90906901  0.06725600  1  0  -0.316225  0  2.285521  0  0  -0.248057  0  2.540486  0  0  -0.264526  0  2.543152  0  0  -0.22879  -0.236209  0  2.538166  0
O  O136  1  0.09565261  0.91041599  0.59654434  1  0  -0.44775  0  2.190888  0  0  -0.368077  0  2.442589  0  0  -0.387899  0  2.431278  0  0  -0.232503  -0.35379  0  2.449804  0
O  O137  1  0.09565176  0.41041430  0.90345230  1  0  -0.447695  0  2.190984  0  0  -0.368065  0  2.442681  0  0  -0.387893  0  2.43137  0  0  -0.232496  -0.353772  0  2.449893  0
O  O138  1  0.90434966  0.08958194  0.40345744  1  0  -0.447718  0  2.190874  0  0  -0.36804  0  2.442587  0  0  -0.387856  0  2.431273  0  0  -0.232485  -0.353747  0  2.449812  0
O  O139  1  0.90434602  0.58958648  0.09654580  1  0  -0.447686  0  2.190867  0  0  -0.36799  0  2.442559  0  0  -0.387821  0  2.431252  0  0  -0.232503  -0.353711  0  2.449765  0
O  O140  1  0.17249099  0.87007924  0.45306978  1  0  -0.434037  0  2.187931  0  0  -0.356755  0  2.441657  0  0  -0.376493  0  2.431459  0  0  -0.229798  -0.3431  0  2.448642  0
O  O141  1  0.17249037  0.37008111  0.04692915  1  0  -0.434071  0  2.187882  0  0  -0.356796  0  2.44162  0  0  -0.376534  0  2.431424  0  0  -0.22979  -0.343148  0  2.448591  0
O  O142  1  0.82750946  0.12991964  0.54693262  1  0  -0.433943  0  2.187756  0  0  -0.35667  0  2.441483  0  0  -0.376409  0  2.431287  0  0  -0.229792  -0.343026  0  2.448454  0
O  O143  1  0.82751071  0.62992151  0.95306957  1  0  -0.433993  0  2.18786  0  0  -0.356719  0  2.441599  0  0  -0.376459  0  2.4314  0  0  -0.229788  -0.343077  0  2.448548  0
O  O144  1  0.20617762  0.71899345  0.56706202  1  0  -0.439208  0  2.197235  0  0  -0.35933  0  2.44895  0  0  -0.37885  0  2.438291  0  0  -0.234315  -0.345598  0  2.455493  0
O  O145  1  0.20617886  0.21899269  0.93293816  1  0  -0.439233  0  2.197259  0  0  -0.359342  0  2.448978  0  0  -0.378862  0  2.438324  0  0  -0.234315  -0.345619  0  2.455513  0
O  O146  1  0.79382168  0.28100451  0.43293853  1  0  -0.439304  0  2.197227  0  0  -0.359332  0  2.448869  0  0  -0.378871  0  2.438224  0  0  -0.234337  -0.345603  0  2.455415  0
O  O147  1  0.79381991  0.78100808  0.06706056  1  0  -0.439311  0  2.197262  0  0  -0.359392  0  2.448976  0  0  -0.378914  0  2.43832  0  0  -0.234329  -0.345666  0  2.455515  0
