# generated using pymatgen
data_CuH9C13INO
_symmetry_space_group_name_H-M   'P 1'
_cell_length_a   7.16074678
_cell_length_b   9.40082558
_cell_length_c   17.37293004
_cell_angle_alpha   89.99976625
_cell_angle_beta   89.99811879
_cell_angle_gamma   97.24728968
_symmetry_Int_Tables_number   1
_chemical_formula_structural   CuH9C13INO
_chemical_formula_sum   'Cu4 H36 C52 I4 N4 O4'
_cell_volume   1160.14917039
_cell_formula_units_Z   4
loop_
 _symmetry_equiv_pos_site_id
 _symmetry_equiv_pos_as_xyz
  1  'x, y, z'
loop_
 _atom_site_type_symbol
 _atom_site_label
 _atom_site_symmetry_multiplicity
 _atom_site_fract_x
 _atom_site_fract_y
 _atom_site_fract_z
 _atom_site_occupancy
 _atom_site_hle17_bader_spin_density
 _atom_site_hle17_ddec_charge
 _atom_site_hle17_ddec_spin_density
 _atom_site_hle17_ddec_sum_bond_order
 _atom_site_hle17_magmom
 _atom_site_hse06_10hf_bader_spin_density
 _atom_site_hse06_10hf_ddec_charge
 _atom_site_hse06_10hf_ddec_spin_density
 _atom_site_hse06_10hf_ddec_sum_bond_order
 _atom_site_hse06_10hf_magmom
 _atom_site_hse06_bader_spin_density
 _atom_site_hse06_ddec_charge
 _atom_site_hse06_ddec_spin_density
 _atom_site_hse06_ddec_sum_bond_order
 _atom_site_hse06_magmom
 _atom_site_pbe_bader_spin_density
 _atom_site_pbe_cm5_charge
 _atom_site_pbe_ddec_charge
 _atom_site_pbe_ddec_spin_density
 _atom_site_pbe_ddec_sum_bond_order
 _atom_site_pbe_magmom
Cu  Cu0  1  0.75611827  0.26811197  0.21335061  1  0  0.318979  0  2.092609  0  0  0.246202  0  2.550961  0  0  0.249255  0  2.511021  0  0  0.314244  0.246223  0  2.578065  0
Cu  Cu1  1  0.74387716  0.73188709  0.71335452  1  0  0.318973  0  2.092572  0  0  0.246174  0  2.550927  0  0  0.249221  0  2.510993  0  0  0.31421  0.246198  0  2.578002  0
Cu  Cu2  1  0.24387145  0.73188537  0.78665071  1  0  0.318988  0  2.092581  0  0  0.246208  0  2.550909  0  0  0.249255  0  2.510973  0  0  0.314266  0.246244  0  2.578035  0
Cu  Cu3  1  0.25611230  0.26811774  0.28664507  1  0  0.31906  0  2.092501  0  0  0.246262  0  2.550838  0  0  0.249317  0  2.510905  0  0  0.314285  0.246281  0  2.577948  0
H  H4  1  0.69552024  0.06628164  0.34429288  1  0  0.06378  0  0.955324  0  0  0.073832  0  1.022963  0  0  0.076377  0  1.019906  0  0  0.10532  0.071571  0  1.026241  0
H  H5  1  0.80448552  0.93371553  0.84429669  1  0  0.063696  0  0.955402  0  0  0.073754  0  1.023028  0  0  0.076295  0  1.019979  0  0  0.105276  0.071491  0  1.026309  0
H  H6  1  0.30447787  0.93371576  0.65570671  1  0  0.063721  0  0.955397  0  0  0.073785  0  1.023025  0  0  0.076323  0  1.019979  0  0  0.105301  0.071521  0  1.026308  0
H  H7  1  0.19551019  0.06629364  0.15570290  1  0  0.063623  0  0.955529  0  0  0.073697  0  1.023119  0  0  0.076234  0  1.020077  0  0  0.10527  0.071445  0  1.026398  0
H  H8  1  0.75539843  0.81387031  0.37068965  1  0  0.108053  0  0.956535  0  0  0.115945  0  1.018939  0  0  0.119852  0  1.01758  0  0  0.104296  0.113133  0  1.020929  0
H  H9  1  0.74462088  0.18612870  0.87069585  1  0  0.108064  0  0.956522  0  0  0.115938  0  1.018955  0  0  0.119845  0  1.017597  0  0  0.104313  0.113125  0  1.020943  0
H  H10  1  0.24462130  0.18613155  0.62931051  1  0  0.107956  0  0.956534  0  0  0.115841  0  1.018962  0  0  0.119747  0  1.017604  0  0  0.104232  0.113027  0  1.020959  0
H  H11  1  0.25537030  0.81387829  0.12930432  1  0  0.108208  0  0.956468  0  0  0.116013  0  1.018956  0  0  0.119919  0  1.017599  0  0  0.104307  0.113198  0  1.020943  0
H  H12  1  0.81860390  0.65679943  0.25856149  1  0  0.096028  0  0.966793  0  0  0.105903  0  1.031447  0  0  0.109263  0  1.028688  0  0  0.09409  0.103283  0  1.033724  0
H  H13  1  0.68141712  0.34320772  0.75856938  1  0  0.095966  0  0.9669  0  0  0.105842  0  1.03154  0  0  0.109199  0  1.02879  0  0  0.094093  0.103221  0  1.03382  0
H  H14  1  0.18141665  0.34320779  0.74143810  1  0  0.096064  0  0.966747  0  0  0.105953  0  1.031381  0  0  0.109312  0  1.028626  0  0  0.094105  0.103333  0  1.033663  0
H  H15  1  0.31857201  0.65679497  0.24142964  1  0  0.095969  0  0.966822  0  0  0.105813  0  1.031533  0  0  0.109171  0  1.028783  0  0  0.094089  0.103193  0  1.033811  0
H  H16  1  0.83973943  0.62631225  0.11803183  1  0  0.091938  0  0.978958  0  0  0.098143  0  1.051225  0  0  0.101091  0  1.05021  0  0  0.092422  0.097327  0  1.049321  0
H  H17  1  0.66026860  0.37369264  0.61803879  1  0  0.092014  0  0.978807  0  0  0.098195  0  1.051111  0  0  0.10114  0  1.050094  0  0  0.092407  0.097379  0  1.049206  0
H  H18  1  0.16025992  0.37368410  0.88196891  1  0  0.091907  0  0.979109  0  0  0.098099  0  1.051396  0  0  0.101046  0  1.05038  0  0  0.092385  0.097285  0  1.04949  0
H  H19  1  0.33971617  0.62630895  0.38195907  1  0  0.092025  0  0.978887  0  0  0.098241  0  1.051157  0  0  0.101193  0  1.050141  0  0  0.0924  0.097421  0  1.049254  0
H  H20  1  0.82668410  0.72960563  0.98551530  1  0  0.089654  0  0.970383  0  0  0.096827  0  1.038795  0  0  0.100272  0  1.037236  0  0  0.089955  0.094035  0  1.04061  0
H  H21  1  0.67332234  0.27039583  0.48552115  1  0  0.089651  0  0.97037  0  0  0.096854  0  1.038754  0  0  0.100302  0  1.037193  0  0  0.089955  0.094063  0  1.040568  0
H  H22  1  0.17331541  0.27039178  0.01448716  1  0  0.089614  0  0.970353  0  0  0.096826  0  1.038737  0  0  0.100273  0  1.037174  0  0  0.089941  0.094031  0  1.040556  0
H  H23  1  0.32667174  0.72960261  0.51447844  1  0  0.089715  0  0.970288  0  0  0.096866  0  1.038739  0  0  0.100312  0  1.037179  0  0  0.089945  0.094076  0  1.040553  0
H  H24  1  0.75153331  0.97729868  0.96821738  1  0  0.094163  0  0.955925  0  0  0.10533  0  1.01913  0  0  0.107929  0  1.017816  0  0  0.102045  0.103592  0  1.019826  0
H  H25  1  0.74848744  0.02270530  0.46822272  1  0  0.094243  0  0.955875  0  0  0.105405  0  1.019068  0  0  0.108012  0  1.017727  0  0  0.102048  0.103672  0  1.019767  0
H  H26  1  0.24847286  0.02269665  0.03178278  1  0  0.094199  0  0.955868  0  0  0.105342  0  1.019102  0  0  0.10795  0  1.017764  0  0  0.102045  0.103599  0  1.019798  0
H  H27  1  0.25152003  0.97729860  0.53177744  1  0  0.094189  0  0.955866  0  0  0.105332  0  1.019097  0  0  0.107953  0  1.017719  0  0  0.102003  0.103604  0  1.019798  0
H  H28  1  0.45620409  0.22324881  0.15028045  1  0  0.120596  0  0.996555  0  0  0.122015  0  1.07471  0  0  0.127184  0  1.06862  0  0  0.092539  0.117839  0  1.079244  0
H  H29  1  0.04379949  0.77674045  0.65028183  1  0  0.120562  0  0.996484  0  0  0.121965  0  1.074683  0  0  0.127131  0  1.068591  0  0  0.092457  0.117784  0  1.079225  0
H  H30  1  0.54379157  0.77673251  0.84971972  1  0  0.12055  0  0.996456  0  0  0.121959  0  1.074651  0  0  0.127124  0  1.068553  0  0  0.092469  0.117776  0  1.079196  0
H  H31  1  0.95620255  0.22326448  0.34972582  1  0  0.120545  0  0.996416  0  0  0.121941  0  1.074619  0  0  0.127108  0  1.068529  0  0  0.092445  0.117758  0  1.079167  0
H  H32  1  0.51840810  0.47941866  0.07660133  1  0  0.119161  0  0.969433  0  0  0.129388  0  1.028677  0  0  0.131671  0  1.029499  0  0  0.105547  0.129004  0  1.024993  0
H  H33  1  0.98158053  0.52057492  0.57660531  1  0  0.119145  0  0.969492  0  0  0.12938  0  1.028732  0  0  0.131669  0  1.029545  0  0  0.105569  0.128992  0  1.025059  0
H  H34  1  0.48156987  0.52056573  0.92339883  1  0  0.119117  0  0.969488  0  0  0.12941  0  1.028667  0  0  0.131655  0  1.029533  0  0  0.105565  0.129025  0  1.024988  0
H  H35  1  0.01842357  0.47943432  0.42340003  1  0  0.119132  0  0.969489  0  0  0.129442  0  1.028652  0  0  0.1317  0  1.029501  0  0  0.105559  0.129055  0  1.024974  0
H  H36  1  0.78675811  0.44182317  0.96564819  1  0  0.094231  0  0.977883  0  0  0.099664  0  1.045969  0  0  0.102462  0  1.043857  0  0  0.106347  0.096441  0  1.05067  0
H  H37  1  0.71325759  0.55818295  0.46565749  1  0  0.094334  0  0.977924  0  0  0.099671  0  1.046109  0  0  0.102505  0  1.043949  0  0  0.106417  0.096454  0  1.050794  0
H  H38  1  0.21322742  0.55817413  0.03435025  1  0  0.094291  0  0.977963  0  0  0.099737  0  1.046018  0  0  0.102528  0  1.043916  0  0  0.106371  0.096517  0  1.050715  0
H  H39  1  0.28675968  0.44182103  0.53434267  1  0  0.094272  0  0.977902  0  0  0.099642  0  1.046043  0  0  0.10246  0  1.043904  0  0  0.106355  0.096417  0  1.050744  0
C  C40  1  0.72064148  0.99421095  0.29712295  1  0  0.143645  0  3.686901  0  0  0.10843  0  3.947633  0  0  0.119105  0  3.960944  0  0  0.04336  0.101398  0  3.938851  0
C  C41  1  0.77936622  0.00578374  0.79712617  1  0  0.143649  0  3.686987  0  0  0.108424  0  3.947693  0  0  0.119101  0  3.961001  0  0  0.043338  0.101391  0  3.938909  0
C  C42  1  0.27936485  0.00578546  0.70287549  1  0  0.143682  0  3.686865  0  0  0.108446  0  3.94762  0  0  0.119121  0  3.960931  0  0  0.043363  0.101412  0  3.938845  0
C  C43  1  0.22062867  0.99422007  0.20287227  1  0  0.143646  0  3.687004  0  0  0.108417  0  3.947679  0  0  0.119102  0  3.960988  0  0  0.043255  0.101368  0  3.938906  0
C  C44  1  0.75449504  0.85248423  0.31162301  1  0  -0.121946  0  3.740537  0  0  -0.134583  0  3.998555  0  0  -0.142622  0  4.018146  0  0  -0.0903  -0.13028  0  3.986028  0
C  C45  1  0.74552424  0.14751140  0.81162813  1  0  -0.121914  0  3.740559  0  0  -0.134552  0  3.998591  0  0  -0.142588  0  4.018179  0  0  -0.090305  -0.130246  0  3.986069  0
C  C46  1  0.24552018  0.14751545  0.68837888  1  0  -0.121723  0  3.740416  0  0  -0.134342  0  3.998434  0  0  -0.142378  0  4.018028  0  0  -0.090206  -0.130038  0  3.985915  0
C  C47  1  0.25446942  0.85249347  0.18837031  1  0  -0.121952  0  3.740555  0  0  -0.134514  0  3.998545  0  0  -0.14255  0  4.018128  0  0  -0.090204  -0.130207  0  3.986019  0
C  C48  1  0.78741325  0.76635980  0.25025269  1  0  -0.038509  0  3.69424  0  0  -0.064172  0  3.939305  0  0  -0.05869  0  3.954989  0  0  -0.06742  -0.066704  0  3.927846  0
C  C49  1  0.71260386  0.23363567  0.75025750  1  0  -0.038457  0  3.694245  0  0  -0.064074  0  3.939341  0  0  -0.058591  0  3.955025  0  0  -0.067397  -0.066605  0  3.927889  0
C  C50  1  0.21259637  0.23363984  0.74974805  1  0  -0.038593  0  3.694038  0  0  -0.064315  0  3.939092  0  0  -0.058836  0  3.954779  0  0  -0.067449  -0.066841  0  3.927642  0
C  C51  1  0.28739588  0.76637246  0.24974382  1  0  -0.038419  0  3.694326  0  0  -0.064048  0  3.939396  0  0  -0.058566  0  3.955082  0  0  -0.067397  -0.066584  0  3.927938  0
C  C52  1  0.77773428  0.82005494  0.17436337  1  0  0.011691  0  3.806125  0  0  0.033837  0  4.026689  0  0  0.029266  0  4.05192  0  0  -0.006697  0.036361  0  4.009568  0
C  C53  1  0.72228324  0.17994060  0.67436816  1  0  0.011864  0  3.805741  0  0  0.033913  0  4.026454  0  0  0.029342  0  4.051681  0  0  -0.006643  0.036437  0  4.009349  0
C  C54  1  0.22227469  0.17994041  0.82563910  1  0  0.011735  0  3.805944  0  0  0.033999  0  4.026363  0  0  0.029429  0  4.051596  0  0  -0.006604  0.036519  0  4.009261  0
C  C55  1  0.27771041  0.82006427  0.32563143  1  0  0.011848  0  3.805918  0  0  0.03394  0  4.026563  0  0  0.029369  0  4.051791  0  0  -0.006666  0.036468  0  4.009447  0
C  C56  1  0.80885889  0.73587294  0.10904438  1  0  -0.099909  0  3.723831  0  0  -0.120218  0  3.969759  0  0  -0.120207  0  3.989225  0  0  -0.08805  -0.119381  0  3.952222  0
C  C57  1  0.69114980  0.26412245  0.60905345  1  0  -0.100174  0  3.723682  0  0  -0.120455  0  3.969695  0  0  -0.12044  0  3.989159  0  0  -0.088119  -0.119614  0  3.952165  0
C  C58  1  0.19114465  0.26412344  0.89095693  1  0  -0.099835  0  3.723941  0  0  -0.120182  0  3.969863  0  0  -0.120169  0  3.989327  0  0  -0.087999  -0.119346  0  3.952336  0
C  C59  1  0.30884181  0.73587812  0.39094499  1  0  -0.100196  0  3.723798  0  0  -0.120521  0  3.969744  0  0  -0.120517  0  3.989215  0  0  -0.088101  -0.119681  0  3.952212  0
C  C60  1  0.80103264  0.79275064  0.03615339  1  0  -0.053004  0  3.772268  0  0  -0.068591  0  4.031169  0  0  -0.071778  0  4.051535  0  0  -0.091875  -0.065494  0  4.015074  0
C  C61  1  0.69897548  0.20724906  0.53616017  1  0  -0.05288  0  3.772182  0  0  -0.068463  0  4.031018  0  0  -0.071653  0  4.05139  0  0  -0.091761  -0.065361  0  4.014929  0
C  C62  1  0.19897074  0.20724467  0.96384792  1  0  -0.05296  0  3.772298  0  0  -0.068583  0  4.031194  0  0  -0.07177  0  4.051565  0  0  -0.091867  -0.065477  0  4.0151  0
C  C63  1  0.30101785  0.79275366  0.46383884  1  0  -0.05294  0  3.772113  0  0  -0.068473  0  4.030943  0  0  -0.071666  0  4.05132  0  0  -0.091778  -0.065373  0  4.014854  0
C  C64  1  0.76012440  0.93410755  0.02605735  1  0  -0.065392  0  3.706268  0  0  -0.093191  0  3.962101  0  0  -0.091844  0  3.981074  0  0  -0.082377  -0.093299  0  3.947739  0
C  C65  1  0.73989819  0.06589028  0.52606444  1  0  -0.065606  0  3.706404  0  0  -0.093426  0  3.962256  0  0  -0.092077  0  3.981238  0  0  -0.082467  -0.093547  0  3.94791  0
C  C66  1  0.23988128  0.06588457  0.97394051  1  0  -0.065502  0  3.706317  0  0  -0.093314  0  3.96218  0  0  -0.091967  0  3.981158  0  0  -0.08242  -0.093418  0  3.947815  0
C  C67  1  0.26010541  0.93411574  0.47393514  1  0  -0.065558  0  3.706341  0  0  -0.093369  0  3.962164  0  0  -0.092011  0  3.981147  0  0  -0.082387  -0.093494  0  3.947825  0
C  C68  1  0.72744085  0.02091652  0.08825990  1  0  -0.059431  0  3.785862  0  0  -0.048528  0  4.025654  0  0  -0.053063  0  4.048114  0  0  -0.014964  -0.04546  0  4.009927  0
C  C69  1  0.77257832  0.97909105  0.58826693  1  0  -0.059476  0  3.785797  0  0  -0.048557  0  4.025493  0  0  -0.053103  0  4.047942  0  0  -0.014909  -0.045474  0  4.009782  0
C  C70  1  0.27256500  0.97907667  0.91173853  1  0  -0.059361  0  3.78605  0  0  -0.048377  0  4.025759  0  0  -0.052912  0  4.048219  0  0  -0.014958  -0.045308  0  4.010032  0
C  C71  1  0.22742652  0.02091391  0.41173380  1  0  -0.059287  0  3.785866  0  0  -0.048356  0  4.025559  0  0  -0.052896  0  4.04801  0  0  -0.014874  -0.04528  0  4.009852  0
C  C72  1  0.73905445  0.96458456  0.16448950  1  0  0.163069  0  3.72685  0  0  0.157616  0  3.957317  0  0  0.162358  0  3.98081  0  0  0.108374  0.154304  0  3.941498  0
C  C73  1  0.76096824  0.03541225  0.66449521  1  0  0.163226  0  3.72645  0  0  0.157744  0  3.956971  0  0  0.162488  0  3.980464  0  0  0.108414  0.154427  0  3.941165  0
C  C74  1  0.26095280  0.03540864  0.83551066  1  0  0.163027  0  3.726915  0  0  0.157533  0  3.957337  0  0  0.162273  0  3.980836  0  0  0.108418  0.154224  0  3.941528  0
C  C75  1  0.23903257  0.96459375  0.33550553  1  0  0.163148  0  3.7265  0  0  0.15766  0  3.956971  0  0  0.162409  0  3.980464  0  0  0.108369  0.154347  0  3.941155  0
C  C76  1  0.68654859  0.16664627  0.07522135  1  0  0.206339  0  3.698273  0  0  0.194025  0  3.961234  0  0  0.20613  0  3.972958  0  0  0.063073  0.185435  0  3.952133  0
C  C77  1  0.81346334  0.83335287  0.57521892  1  0  0.206889  0  3.698656  0  0  0.194735  0  3.961399  0  0  0.206869  0  3.973091  0  0  0.063389  0.186114  0  3.952329  0
C  C78  1  0.31344558  0.83334361  0.92477996  1  0  0.206292  0  3.698661  0  0  0.193897  0  3.961702  0  0  0.206003  0  3.973428  0  0  0.06303  0.18531  0  3.952587  0
C  C79  1  0.18653806  0.16664778  0.42477836  1  0  0.206314  0  3.698611  0  0  0.19413  0  3.961418  0  0  0.206237  0  3.973145  0  0  0.063186  0.185512  0  3.952352  0
C  C80  1  0.56715832  0.25485523  0.10878636  1  0  -0.236262  0  3.847579  0  0  -0.251703  0  4.115931  0  0  -0.253322  0  4.125666  0  0  -0.159938  -0.248402  0  4.107398  0
C  C81  1  0.93284167  0.74513795  0.60878594  1  0  -0.236363  0  3.847332  0  0  -0.251856  0  4.115727  0  0  -0.253485  0  4.125452  0  0  -0.159857  -0.248534  0  4.107187  0
C  C82  1  0.43282836  0.74513138  0.89121495  1  0  -0.236231  0  3.847263  0  0  -0.251673  0  4.115719  0  0  -0.253276  0  4.125424  0  0  -0.159958  -0.248373  0  4.107185  0
C  C83  1  0.06716489  0.25486916  0.39121595  1  0  -0.236134  0  3.84724  0  0  -0.2516  0  4.115656  0  0  -0.253219  0  4.125381  0  0  -0.159917  -0.248284  0  4.107128  0
C  C84  1  0.58991804  0.38646008  0.06604486  1  0  -0.150849  0  3.811058  0  0  -0.171148  0  4.070215  0  0  -0.175688  0  4.090312  0  0  -0.124077  -0.167371  0  4.053399  0
C  C85  1  0.91008199  0.61352947  0.56604733  1  0  -0.150746  0  3.811087  0  0  -0.171068  0  4.07025  0  0  -0.1756  0  4.090332  0  0  -0.124094  -0.167304  0  4.053437  0
C  C86  1  0.41005977  0.61352325  0.93395587  1  0  -0.150881  0  3.810839  0  0  -0.171245  0  4.070005  0  0  -0.175748  0  4.090112  0  0  -0.124104  -0.167474  0  4.053194  0
C  C87  1  0.08992968  0.38647447  0.43396090  1  0  -0.150968  0  3.811172  0  0  -0.171338  0  4.070265  0  0  -0.175857  0  4.090384  0  0  -0.124063  -0.167569  0  4.053454  0
C  C88  1  0.72065533  0.37226908  0.01048916  1  0  0.07356  0  3.622979  0  0  0.040759  0  3.885502  0  0  0.048426  0  3.898289  0  0  -0.017645  0.031229  0  3.881643  0
C  C89  1  0.77936294  0.62772894  0.51049281  1  0  0.073398  0  3.622969  0  0  0.04071  0  3.885542  0  0  0.048348  0  3.898298  0  0  -0.017686  0.031177  0  3.881689  0
C  C90  1  0.27933530  0.62772505  0.98951215  1  0  0.073539  0  3.623037  0  0  0.040738  0  3.885526  0  0  0.048413  0  3.898311  0  0  -0.017648  0.031191  0  3.881691  0
C  C91  1  0.22065943  0.37227187  0.48950735  1  0  0.073657  0  3.623091  0  0  0.040974  0  3.885627  0  0  0.048624  0  3.898388  0  0  -0.017575  0.031464  0  3.881731  0
I  I92  1  0.08695397  0.38970633  0.17875986  1  0  -0.441235  0  1.552716  0  0  -0.387395  0  1.980282  0  0  -0.404277  0  1.944522  0  0  -0.195625  -0.377434  0  2.008394  0
I  I93  1  0.41304044  0.61030170  0.67876171  1  0  -0.441299  0  1.552738  0  0  -0.387418  0  1.980245  0  0  -0.404299  0  1.944489  0  0  -0.195654  -0.377466  0  2.008363  0
I  I94  1  0.91303650  0.61028673  0.82123282  1  0  -0.441221  0  1.552762  0  0  -0.387333  0  1.980258  0  0  -0.404215  0  1.944494  0  0  -0.195615  -0.377377  0  2.008369  0
I  I95  1  0.58695377  0.38971602  0.32122866  1  0  -0.441281  0  1.55265  0  0  -0.387409  0  1.980157  0  0  -0.404295  0  1.944406  0  0  -0.19564  -0.37745  0  2.008267  0
N  N96  1  0.71850375  0.05094898  0.22686867  1  0  -0.323639  0  3.330638  0  0  -0.259044  0  3.620446  0  0  -0.27186  0  3.630554  0  0  -0.356942  -0.249385  0  3.612622  0
N  N97  1  0.78150843  0.94904787  0.72687219  1  0  -0.323741  0  3.330575  0  0  -0.259075  0  3.620327  0  0  -0.271895  0  3.630441  0  0  -0.356938  -0.249401  0  3.612489  0
N  N98  1  0.28150151  0.94904955  0.77313091  1  0  -0.323654  0  3.330511  0  0  -0.259068  0  3.620344  0  0  -0.271883  0  3.630446  0  0  -0.356955  -0.249403  0  3.612527  0
N  N99  1  0.21848819  0.05095810  0.27312739  1  0  -0.323819  0  3.330428  0  0  -0.25915  0  3.620162  0  0  -0.271985  0  3.630286  0  0  -0.35695  -0.249481  0  3.612337  0
O  O100  1  0.77959334  0.23878650  0.01457629  1  0  -0.204715  0  2.416354  0  0  -0.129347  0  2.642379  0  0  -0.147296  0  2.650147  0  0  -0.125727  -0.117966  0  2.638707  0
O  O101  1  0.72043403  0.76122760  0.51458680  1  0  -0.205064  0  2.416786  0  0  -0.129826  0  2.642848  0  0  -0.147798  0  2.65063  0  0  -0.126078  -0.118438  0  2.639184  0
O  O102  1  0.22040691  0.76120664  0.98541984  1  0  -0.204681  0  2.416605  0  0  -0.129292  0  2.642628  0  0  -0.147251  0  2.650406  0  0  -0.125669  -0.117909  0  2.638944  0
O  O103  1  0.27957894  0.23878492  0.48541451  1  0  -0.204781  0  2.416483  0  0  -0.12957  0  2.642573  0  0  -0.14753  0  2.650352  0  0  -0.125909  -0.118186  0  2.638913  0
