# generated using pymatgen
data_HgH19C26Br2(NCl3)4
_symmetry_space_group_name_H-M   'P 1'
_cell_length_a   10.81088983
_cell_length_b   11.67163982
_cell_length_c   16.15840000
_cell_angle_alpha   104.59618652
_cell_angle_beta   95.90218029
_cell_angle_gamma   101.06910470
_symmetry_Int_Tables_number   1
_chemical_formula_structural   HgH19C26Br2(NCl3)4
_chemical_formula_sum   'Hg2 H38 C52 Br4 N8 Cl24'
_cell_volume   1911.66904453
_cell_formula_units_Z   2
loop_
 _symmetry_equiv_pos_site_id
 _symmetry_equiv_pos_as_xyz
  1  'x, y, z'
loop_
 _atom_site_type_symbol
 _atom_site_label
 _atom_site_symmetry_multiplicity
 _atom_site_fract_x
 _atom_site_fract_y
 _atom_site_fract_z
 _atom_site_occupancy
 _atom_site_hle17_bader_spin_density
 _atom_site_hle17_ddec_charge
 _atom_site_hle17_ddec_spin_density
 _atom_site_hle17_ddec_sum_bond_order
 _atom_site_hle17_magmom
 _atom_site_hse06_10hf_bader_spin_density
 _atom_site_hse06_10hf_ddec_charge
 _atom_site_hse06_10hf_ddec_spin_density
 _atom_site_hse06_10hf_ddec_sum_bond_order
 _atom_site_hse06_10hf_magmom
 _atom_site_hse06_bader_spin_density
 _atom_site_hse06_ddec_charge
 _atom_site_hse06_ddec_spin_density
 _atom_site_hse06_ddec_sum_bond_order
 _atom_site_hse06_magmom
 _atom_site_pbe_bader_charge
 _atom_site_pbe_bader_spin_density
 _atom_site_pbe_cm5_charge
 _atom_site_pbe_ddec_charge
 _atom_site_pbe_ddec_spin_density
 _atom_site_pbe_ddec_sum_bond_order
 _atom_site_pbe_magmom
Hg  Hg0  1  0.82660918  0.87061068  0.03514941  1  0  0.643408  0  2.15986  0  0  0.487635  0  2.67061  0  0  0.534189  0  2.639352  0  0.689939  0  0.452022  0.455778  0  2.69244  0
Hg  Hg1  1  0.17338911  0.12938956  0.96485107  1  0  0.64345  0  2.159804  0  0  0.48767  0  2.670557  0  0  0.534218  0  2.639301  0  0.689921  0  0.45204  0.45581  0  2.69239  0
H  H2  1  0.57877798  0.57560182  0.50114148  1  0  0.299513  0  0.915632  0  0  0.268505  0  1.004974  0  0  0.278664  0  0.994045  0  0.521544  0  0.307709  0.261321  0  1.012635  0
H  H3  1  0.42122059  0.42439570  0.49885791  1  0  0.299525  0  0.915673  0  0  0.268534  0  1.004954  0  0  0.278692  0  0.994041  0  0.521588  0  0.307728  0.261344  0  1.012613  0
H  H4  1  0.89226365  0.88081089  0.59515345  1  0  0.119744  0  0.95707  0  0  0.129951  0  1.014092  0  0  0.133234  0  1.012523  0  0.125435  0  0.104023  0.127667  0  1.015221  0
H  H5  1  0.10773749  0.11918572  0.40484595  1  0  0.119742  0  0.95705  0  0  0.129928  0  1.014098  0  0  0.133208  0  1.012533  0  0.125063  0  0.104016  0.127653  0  1.015216  0
H  H6  1  0.82431876  0.84703895  0.42445603  1  0  0.11942  0  0.958339  0  0  0.129973  0  1.014985  0  0  0.133202  0  1.01341  0  0.103836  0  0.103718  0.12769  0  1.016137  0
H  H7  1  0.17568052  0.15295766  0.57554263  1  0  0.119406  0  0.958327  0  0  0.129959  0  1.014981  0  0  0.133188  0  1.013401  0  0.103384  0  0.103705  0.127676  0  1.016132  0
H  H8  1  0.45003227  0.54194077  0.18063062  1  0  0.114932  0  0.973977  0  0  0.12005  0  1.042057  0  0  0.123685  0  1.040099  0  0.118372  0  0.094241  0.117572  0  1.043343  0
H  H9  1  0.54996508  0.45805947  0.81937042  1  0  0.114908  0  0.974007  0  0  0.120017  0  1.042101  0  0  0.123659  0  1.040123  0  0.11875  0  0.094227  0.117539  0  1.043385  0
H  H10  1  0.26267162  0.35123271  0.17515741  1  0  0.114618  0  0.982312  0  0  0.119722  0  1.052208  0  0  0.123217  0  1.050411  0  0.125265  0  0.092631  0.117019  0  1.053907  0
H  H11  1  0.73732552  0.64876663  0.82484221  1  0  0.114624  0  0.982299  0  0  0.119732  0  1.052181  0  0  0.123229  0  1.050382  0  0.12528  0  0.092632  0.117028  0  1.053881  0
H  H12  1  0.71471667  0.53798867  0.21548259  1  0  0.09946  0  0.99456  0  0  0.104713  0  1.065784  0  0  0.107877  0  1.064928  0  0.114087  0  0.08903  0.10231  0  1.066835  0
H  H13  1  0.28528347  0.46201158  0.78451740  1  0  0.099471  0  0.994527  0  0  0.104716  0  1.06575  0  0  0.107883  0  1.064888  0  0.114098  0  0.089044  0.102313  0  1.066801  0
H  H14  1  0.80230764  0.63218015  0.10478044  1  0  0.070927  0  0.96629  0  0  0.073174  0  1.043814  0  0  0.075888  0  1.040993  0  0.100093  0  0.094956  0.071205  0  1.045802  0
H  H15  1  0.19769344  0.36782009  0.89522024  1  0  0.070926  0  0.966264  0  0  0.073163  0  1.043804  0  0  0.075882  0  1.04098  0  0.1001  0  0.094953  0.071194  0  1.045793  0
H  H16  1  0.69742841  0.95405386  0.21320997  1  0  0.065298  0  0.972148  0  0  0.06739  0  1.052587  0  0  0.06981  0  1.050128  0  0.110703  0  0.095471  0.065703  0  1.054116  0
H  H17  1  0.30257245  0.04594547  0.78679053  1  0  0.065311  0  0.972112  0  0  0.067362  0  1.052588  0  0  0.069817  0  1.050105  0  0.110751  0  0.095463  0.065675  0  1.054118  0
H  H18  1  0.61148962  0.87552081  0.33059243  1  0  0.105232  0  0.961159  0  0  0.109667  0  1.032014  0  0  0.113144  0  1.03079  0  0.112878  0  0.094068  0.107032  0  1.033268  0
H  H19  1  0.38851053  0.12447943  0.66940757  1  0  0.105277  0  0.961136  0  0  0.109704  0  1.031991  0  0  0.113191  0  1.030752  0  0.112744  0  0.094069  0.107069  0  1.033245  0
H  H20  1  0.70211761  0.90377999  0.77817876  1  0  0.105325  0  0.979017  0  0  0.107869  0  1.053753  0  0  0.111407  0  1.052533  0  0.121494  0  0.091885  0.105514  0  1.054496  0
H  H21  1  0.29788232  0.09621935  0.22182167  1  0  0.105324  0  0.979016  0  0  0.107868  0  1.053757  0  0  0.111402  0  1.052548  0  0.121482  0  0.091886  0.105512  0  1.0545  0
H  H22  1  0.87200145  0.05741275  0.88913335  1  0  0.068072  0  0.9679  0  0  0.072258  0  1.042314  0  0  0.074778  0  1.039877  0  0.140267  0  0.096499  0.070337  0  1.044488  0
H  H23  1  0.12799755  0.94258658  0.11086764  1  0  0.068071  0  0.967915  0  0  0.072259  0  1.042325  0  0  0.074779  0  1.039888  0  0.140114  0  0.096509  0.070336  0  1.044498  0
H  H24  1  0.14739836  0.86478796  0.81987272  1  0  0.073097  0  0.951779  0  0  0.075705  0  1.028807  0  0  0.078429  0  1.025987  0  0.075764  0  0.10087  0.073987  0  1.030367  0
H  H25  1  0.85260200  0.13521319  0.18012807  1  0  0.073092  0  0.951802  0  0  0.075691  0  1.028826  0  0  0.078415  0  1.026006  0  0.075771  0  0.100866  0.073974  0  1.030384  0
H  H26  1  0.99144371  0.70722467  0.70138775  1  0  0.104564  0  0.966643  0  0  0.108381  0  1.039197  0  0  0.111973  0  1.037839  0  0.113527  0  0.093624  0.105809  0  1.040339  0
H  H27  1  0.00855759  0.29277649  0.29861249  1  0  0.104557  0  0.966635  0  0  0.108368  0  1.039204  0  0  0.11196  0  1.037849  0  0.113543  0  0.093623  0.105796  0  1.040346  0
H  H28  1  0.56525951  0.18227030  0.00965974  1  0  0.098845  0  0.974083  0  0  0.099973  0  1.044692  0  0  0.102872  0  1.042159  0  0.177345  0  0.084968  0.097851  0  1.046696  0
H  H29  1  0.43473971  0.81772994  0.99033957  1  0  0.09885  0  0.974062  0  0  0.09998  0  1.04467  0  0  0.10288  0  1.042136  0  0.177343  0  0.084978  0.097859  0  1.046674  0
H  H30  1  0.78637349  0.22816487  0.96808755  1  0  0.096059  0  0.953481  0  0  0.095619  0  1.02785  0  0  0.098225  0  1.025412  0  0.18229  0  0.090345  0.09314  0  1.0308  0
H  H31  1  0.21362551  0.77183446  0.03191158  1  0  0.096043  0  0.953502  0  0  0.095596  0  1.02787  0  0  0.098202  0  1.025433  0  0.182276  0  0.090325  0.093118  0  1.03082  0
H  H32  1  0.19548050  0.72248771  0.23155290  1  0  0.090165  0  0.956168  0  0  0.090546  0  1.028435  0  0  0.092469  0  1.026787  0  0.180737  0  0.096368  0.089099  0  1.029767  0
H  H33  1  0.80452116  0.27751890  0.76844774  1  0  0.090198  0  0.956155  0  0  0.090576  0  1.028435  0  0  0.092495  0  1.026793  0  0.180734  0  0.096391  0.08913  0  1.029768  0
H  H34  1  0.20028863  0.55168378  0.29534991  1  0  0.100678  0  0.94025  0  0  0.105393  0  1.002983  0  0  0.105951  0  1.004339  0  0.152178  0  0.106777  0.104995  0  1.002129  0
H  H35  1  0.79971352  0.44832101  0.70464981  1  0  0.100762  0  0.940212  0  0  0.105398  0  1.002991  0  0  0.105975  0  1.004323  0  0.152131  0  0.106811  0.105  0  1.002136  0
H  H36  1  0.70931258  0.28635659  0.48071146  1  0  0.089451  0  0.955075  0  0  0.087651  0  1.030028  0  0  0.089964  0  1.027994  0  0.142745  0  0.09422  0.085962  0  1.031671  0
H  H37  1  0.29068620  0.71364183  0.51928687  1  0  0.089455  0  0.955052  0  0  0.087656  0  1.029997  0  0  0.089972  0  1.02796  0  0.142716  0  0.094216  0.085957  0  1.031637  0
H  H38  1  0.52631505  0.28399878  0.37403189  1  0  0.105205  0  0.939213  0  0  0.104121  0  1.010595  0  0  0.105702  0  1.010582  0  0.177887  0  0.107754  0.102988  0  1.010663  0
H  H39  1  0.47368674  0.71600055  0.62596743  1  0  0.105192  0  0.939178  0  0  0.104116  0  1.010565  0  0  0.105696  0  1.010551  0  0.177903  0  0.107753  0.102983  0  1.010635  0
C  C40  1  0.73272934  0.71907279  0.57685186  1  0  0.206801  0  3.785985  0  0  0.187384  0  4.041193  0  0  0.194424  0  4.062722  0  0.341452  0  0.098944  0.182801  0  4.0268  0
C  C41  1  0.26726995  0.28092381  0.42314803  1  0  0.206733  0  3.785977  0  0  0.187342  0  4.041151  0  0  0.194382  0  4.062676  0  0.341612  0  0.098906  0.182757  0  4.026759  0
C  C42  1  0.81589797  0.81106008  0.55150287  1  0  -0.149729  0  3.720009  0  0  -0.171755  0  3.976107  0  0  -0.173228  0  3.992624  0  -0.086522  0  -0.097447  -0.170964  0  3.965197  0
C  C43  1  0.18410038  0.18893652  0.44849634  1  0  -0.149693  0  3.719913  0  0  -0.171705  0  3.97602  0  0  -0.173177  0  3.992537  0  -0.086245  0  -0.097448  -0.170923  0  3.965108  0
C  C44  1  0.78044636  0.79431637  0.46447942  1  0  -0.151559  0  3.708817  0  0  -0.172933  0  3.965032  0  0  -0.174358  0  3.9814  0  -0.009297  0  -0.097467  -0.171923  0  3.953894  0
C  C45  1  0.21955249  0.20567842  0.53551887  1  0  -0.151528  0  3.708664  0  0  -0.172914  0  3.964882  0  0  -0.174335  0  3.981242  0  -0.00883  0  -0.097432  -0.171903  0  3.953743  0
C  C46  1  0.67291556  0.69256698  0.43386827  1  0  0.21575  0  3.768468  0  0  0.194458  0  4.026339  0  0  0.201641  0  4.047617  0  0.32914  0  0.101144  0.189829  0  4.011936  0
C  C47  1  0.32708301  0.30743054  0.56613050  1  0  0.215669  0  3.768594  0  0  0.19439  0  4.026459  0  0  0.201571  0  4.047736  0  0.329074  0  0.101093  0.189761  0  4.012056  0
C  C48  1  0.60611446  0.64337384  0.34913994  1  0  -0.090161  0  3.690112  0  0  -0.076292  0  3.926432  0  0  -0.080725  0  3.948979  0  0.108444  0  0.001845  -0.073591  0  3.91133  0
C  C49  1  0.39388268  0.35662549  0.65085907  1  0  -0.090075  0  3.690167  0  0  -0.076242  0  3.926457  0  0  -0.080673  0  3.949005  0  0.10846  0  0.001899  -0.073541  0  3.911357  0
C  C50  1  0.50028869  0.54327692  0.32114388  1  0  0.208724  0  3.806927  0  0  0.196715  0  4.070382  0  0  0.203496  0  4.091768  0  0.491182  0  0.088635  0.192396  0  4.055636  0
C  C51  1  0.49970867  0.45672332  0.67885530  1  0  0.20865  0  3.807077  0  0  0.196705  0  4.070446  0  0  0.203483  0  4.091834  0  0.491212  0  0.088666  0.192385  0  4.055702  0
C  C52  1  0.43013119  0.50192800  0.23296849  1  0  -0.156847  0  3.708637  0  0  -0.17559  0  3.959315  0  0  -0.177665  0  3.97712  0  -0.104392  0  -0.104767  -0.173976  0  3.947011  0
C  C53  1  0.56986710  0.49807224  0.76703138  1  0  -0.156849  0  3.708707  0  0  -0.175604  0  3.959379  0  0  -0.177678  0  3.977191  0  -0.104797  0  -0.104806  -0.17399  0  3.947075  0
C  C54  1  0.33494483  0.40512874  0.23013317  1  0  -0.162395  0  3.71179  0  0  -0.176066  0  3.9561  0  0  -0.178705  0  3.974025  0  -0.11798  0  -0.107938  -0.174254  0  3.943979  0
C  C55  1  0.66505253  0.59487150  0.76986725  1  0  -0.16239  0  3.71175  0  0  -0.176061  0  3.956069  0  0  -0.178706  0  3.973998  0  -0.117911  0  -0.107914  -0.174249  0  3.943949  0
C  C56  1  0.34706424  0.38883041  0.31687100  1  0  0.19853  0  3.818225  0  0  0.189332  0  4.076675  0  0  0.195809  0  4.098239  0  0.435917  0  0.084404  0.185195  0  4.061726  0
C  C57  1  0.65293219  0.61116984  0.68312998  1  0  0.198526  0  3.81814  0  0  0.189339  0  4.076581  0  0  0.195812  0  4.098151  0  0.435962  0  0.084326  0.185202  0  4.061633  0
C  C58  1  0.73558901  0.70264721  0.65994835  1  0  -0.092247  0  3.690035  0  0  -0.07685  0  3.925262  0  0  -0.081602  0  3.948281  0  0.093629  0  0.000863  -0.073965  0  3.909803  0
C  C59  1  0.26441185  0.29735213  0.34005214  1  0  -0.092222  0  3.690096  0  0  -0.076817  0  3.925301  0  0  -0.081568  0  3.948315  0  0.093621  0  0.000837  -0.073927  0  3.909837  0
C  C60  1  0.65608929  0.69907777  0.28253056  1  0  0.121277  0  3.766441  0  0  0.135304  0  3.990448  0  0  0.139003  0  4.014331  0  -0.03285  0  0.012775  0.133056  0  3.974224  0
C  C61  1  0.34390971  0.30092156  0.71746919  1  0  0.121256  0  3.766488  0  0  0.1353  0  3.990466  0  0  0.138997  0  4.014351  0  -0.032846  0  0.012726  0.133052  0  3.974243  0
C  C62  1  0.70977396  0.63073766  0.21748025  1  0  -0.159724  0  3.718912  0  0  -0.178064  0  3.964907  0  0  -0.185809  0  3.986593  0  -0.018234  0  -0.090698  -0.173139  0  3.9505  0
C  C63  1  0.29022712  0.36926259  0.78252043  1  0  -0.159687  0  3.718899  0  0  -0.178018  0  3.964903  0  0  -0.185763  0  3.986581  0  -0.018238  0  -0.09067  -0.173094  0  3.950497  0
C  C64  1  0.75803033  0.68244858  0.15557089  1  0  0.123704  0  3.736804  0  0  0.0916  0  3.99589  0  0  0.098731  0  4.014161  0  0.501619  0  0.035343  0.087059  0  3.983248  0
C  C65  1  0.24197054  0.31755076  0.84442898  1  0  0.123737  0  3.736727  0  0  0.091622  0  3.995815  0  0  0.098747  0  4.014084  0  0.501613  0  0.035357  0.08708  0  3.983173  0
C  C66  1  0.70177107  0.86281736  0.21688067  1  0  0.121241  0  3.737178  0  0  0.089171  0  3.994177  0  0  0.096373  0  4.012974  0  0.483453  0  0.031582  0.084531  0  3.981409  0
C  C67  1  0.29823094  0.13718288  0.78312068  1  0  0.121309  0  3.737158  0  0  0.089264  0  3.994146  0  0  0.096434  0  4.012932  0  0.483402  0  0.031646  0.084623  0  3.98138  0
C  C68  1  0.65327493  0.81840892  0.28211785  1  0  -0.169351  0  3.719632  0  0  -0.185624  0  3.965727  0  0  -0.193289  0  3.986974  0  -0.084875  0  -0.092048  -0.180628  0  3.951708  0
C  C69  1  0.34672615  0.18159132  0.71788221  1  0  -0.169526  0  3.719685  0  0  -0.185791  0  3.965751  0  0  -0.193473  0  3.987019  0  -0.084731  0  -0.092116  -0.180792  0  3.951723  0
C  C70  1  0.83355836  0.79326199  0.72955782  1  0  0.11909  0  3.759384  0  0  0.133833  0  3.983212  0  0  0.137368  0  4.007563  0  1.3e-05  0  0.013028  0.131843  0  3.966483  0
C  C71  1  0.16644344  0.20673735  0.27044274  1  0  0.119037  0  3.759339  0  0  0.133769  0  3.9832  0  0  0.137302  0  4.007552  0  -6e-06  0  0.013007  0.131778  0  3.966468  0
C  C72  1  0.80001287  0.89250631  0.78401038  1  0  -0.154067  0  3.696226  0  0  -0.170043  0  3.937771  0  0  -0.177873  0  3.959798  0  -0.039857  0  -0.085987  -0.164935  0  3.922578  0
C  C73  1  0.19998799  0.10749302  0.21599011  1  0  -0.154062  0  3.696195  0  0  -0.170038  0  3.937741  0  0  -0.177868  0  3.959768  0  -0.039856  0  -0.085985  -0.16493  0  3.922548  0
C  C74  1  0.89399189  0.97798190  0.84622852  1  0  0.115071  0  3.754981  0  0  0.086451  0  4.008108  0  0  0.093069  0  4.026871  0  0.452626  0  0.034175  0.082114  0  3.995331  0
C  C75  1  0.10600596  0.02201652  0.15377222  1  0  0.115078  0  3.754956  0  0  0.086467  0  4.008085  0  0  0.093087  0  4.026848  0  0.452819  0  0.034174  0.082133  0  3.995303  0
C  C76  1  0.04820352  0.87120604  0.80690880  1  0  0.13062  0  3.720823  0  0  0.098568  0  3.978306  0  0  0.106051  0  3.996271  0  0.505194  0  0.038132  0.093731  0  3.965865  0
C  C77  1  0.95179685  0.12879511  0.19309199  1  0  0.130618  0  3.720776  0  0  0.098584  0  3.97827  0  0  0.106076  0  3.996215  0  0.505209  0  0.038172  0.093748  0  3.965823  0
C  C78  1  0.96064529  0.78307360  0.74171148  1  0  -0.157026  0  3.701366  0  0  -0.176589  0  3.950699  0  0  -0.183817  0  3.971355  0  -0.030298  0  -0.087332  -0.171957  0  3.937066  0
C  C79  1  0.03935694  0.21692756  0.25828882  1  0  -0.156971  0  3.701261  0  0  -0.176531  0  3.950581  0  0  -0.183757  0  3.97124  0  -0.030308  0  -0.087324  -0.171905  0  3.936965  0
C  C80  1  0.62100766  0.27498566  0.01901829  1  0  0.090566  0  3.627034  0  0  0.075153  0  3.896926  0  0  0.08035  0  3.905557  0  0.204156  0  -0.033422  0.071575  0  3.89076  0
C  C81  1  0.37899156  0.72501458  0.98098164  1  0  0.090606  0  3.627054  0  0  0.075182  0  3.89695  0  0  0.080379  0  3.90558  0  0.204054  0  -0.033422  0.071604  0  3.890784  0
C  C82  1  0.71175192  0.27474933  0.95247483  1  0  0.08618  0  3.623546  0  0  0.069323  0  3.898696  0  0  0.074728  0  3.907274  0  0.190094  0  -0.034323  0.065683  0  3.893026  0
C  C83  1  0.28824751  0.72525182  0.04752528  1  0  0.086147  0  3.623647  0  0  0.069322  0  3.898742  0  0  0.074726  0  3.907322  0  0.189772  0  -0.034311  0.065684  0  3.893069  0
C  C84  1  0.16773587  0.72708153  0.29554615  1  0  0.096988  0  3.628036  0  0  0.080604  0  3.903962  0  0  0.086299  0  3.912488  0  0.207833  0  -0.026098  0.076624  0  3.898215  0
C  C85  1  0.83226486  0.27292508  0.70445381  1  0  0.096952  0  3.628037  0  0  0.080554  0  3.90391  0  0  0.086236  0  3.912473  0  0.20803  0  -0.026115  0.076574  0  3.898165  0
C  C86  1  0.12069971  0.59759289  0.30146530  1  0  0.087584  0  3.630254  0  0  0.068905  0  3.91327  0  0  0.074469  0  3.921985  0  0.219462  0  -0.028872  0.064893  0  3.907444  0
C  C87  1  0.87930266  0.40241281  0.69853522  1  0  0.087462  0  3.630617  0  0  0.06893  0  3.913452  0  0  0.074486  0  3.922157  0  0.219467  0  -0.02893  0.064916  0  3.907632  0
C  C88  1  0.71021956  0.25306730  0.41098699  1  0  0.091931  0  3.640257  0  0  0.076247  0  3.916381  0  0  0.081676  0  3.925236  0  0.222204  0  -0.029077  0.072115  0  3.911243  0
C  C89  1  0.28978375  0.74693839  0.58901174  1  0  0.091847  0  3.64023  0  0  0.076193  0  3.916324  0  0  0.081616  0  3.925188  0  0.222431  0  -0.029086  0.072109  0  3.911109  0
C  C90  1  0.57272004  0.20679916  0.36376786  1  0  0.089581  0  3.614744  0  0  0.071769  0  3.898109  0  0  0.077314  0  3.906494  0  0.199805  0  -0.028557  0.067902  0  3.892627  0
C  C91  1  0.42727875  0.79319927  0.63623109  1  0  0.089677  0  3.614659  0  0  0.071813  0  3.898113  0  0  0.077361  0  3.906496  0  0.199739  0  -0.028537  0.067936  0  3.892621  0
Br  Br92  1  0.65404722  0.97624763  0.99852178  1  0  -0.416257  0  1.107183  0  0  -0.361447  0  1.434056  0  0  -0.379872  0  1.413778  0  -0.431727  0  -0.23517  -0.348878  0  1.449104  0
Br  Br93  1  0.34595178  0.02375170  0.00147859  1  0  -0.416304  0  1.107174  0  0  -0.361499  0  1.434051  0  0  -0.379921  0  1.413774  0  -0.431658  0  -0.235202  -0.348929  0  1.4491  0
Br  Br94  1  0.95644623  0.72064800  0.97366755  1  0  -0.420574  0  1.084642  0  0  -0.365972  0  1.404376  0  0  -0.384625  0  1.385267  0  -0.424351  0  -0.237398  -0.352796  0  1.419106  0
Br  Br95  1  0.04355391  0.27935224  0.02633245  1  0  -0.420552  0  1.084619  0  0  -0.36594  0  1.404354  0  0  -0.384594  0  1.385243  0  -0.424359  0  -0.237379  -0.352764  0  1.419085  0
N  N96  1  0.64786250  0.65008551  0.50386824  1  0  -0.354428  0  3.405919  0  0  -0.290249  0  3.638065  0  0  -0.307072  0  3.650413  0  -1.252326  0  -0.383564  -0.278817  0  3.629492  0
N  N97  1  0.35213678  0.34991110  0.49613103  1  0  -0.354404  0  3.40614  0  0  -0.29023  0  3.638273  0  0  -0.30706  0  3.650615  0  -1.252432  0  -0.383555  -0.278785  0  3.629717  0
N  N98  1  0.44762499  0.47406240  0.37145103  1  0  -0.484622  0  2.940728  0  0  -0.446447  0  3.212666  0  0  -0.461749  0  3.22641  0  -1.186786  0  -0.360798  -0.435899  0  3.202956  0
N  N99  1  0.55237494  0.52593693  0.62854878  1  0  -0.484542  0  2.940775  0  0  -0.446375  0  3.212647  0  0  -0.461673  0  3.226388  0  -1.18686  0  -0.360751  -0.435827  0  3.202937  0
N  N100  1  0.75342478  0.79635059  0.15505607  1  0  -0.29627  0  3.276104  0  0  -0.220847  0  3.539182  0  0  -0.240702  0  3.560455  0  -1.194099  0  -0.318394  -0.20742  0  3.524409  0
N  N101  1  0.24657722  0.20364965  0.84494467  1  0  -0.296302  0  3.276099  0  0  -0.220846  0  3.539135  0  0  -0.240701  0  3.560419  0  -1.194099  0  -0.318401  -0.20742  0  3.524364  0
N  N102  1  0.01561398  0.96749356  0.85740960  1  0  -0.298083  0  3.280239  0  0  -0.221428  0  3.541977  0  0  -0.241414  0  3.563447  0  -1.230562  0  -0.317916  -0.207853  0  3.527083  0
N  N103  1  0.98438596  0.03250578  0.14259083  1  0  -0.298055  0  3.280225  0  0  -0.221419  0  3.541957  0  0  -0.241405  0  3.56343  0  -1.230602  0  -0.317927  -0.207847  0  3.527069  0
Cl  Cl104  1  0.51067739  0.36690023  0.01098324  1  0  -0.088999  0  1.37329  0  0  -0.076831  0  1.628162  0  0  -0.081365  0  1.621569  0  -0.198025  0  -0.021416  -0.073821  0  1.6333  0
Cl  Cl105  1  0.48932183  0.63310001  0.98901607  1  0  -0.089003  0  1.373318  0  0  -0.076835  0  1.628188  0  0  -0.081371  0  1.621597  0  -0.197882  0  -0.021411  -0.073827  0  1.633328  0
Cl  Cl106  1  0.71403332  0.31970769  0.12431194  1  0  -0.092692  0  1.361996  0  0  -0.079861  0  1.619231  0  0  -0.083911  0  1.611041  0  -0.201668  0  -0.015256  -0.076543  0  1.624866  0
Cl  Cl107  1  0.28596497  0.68029256  0.87568793  1  0  -0.092708  0  1.361994  0  0  -0.079869  0  1.619208  0  0  -0.083918  0  1.611022  0  -0.201601  0  -0.01526  -0.076551  0  1.624845  0
Cl  Cl108  1  0.78962467  0.42241783  0.95149572  1  0  -0.092608  0  1.370331  0  0  -0.082746  0  1.626273  0  0  -0.085035  0  1.617005  0  -0.192687  0  -0.028708  -0.081755  0  1.634006  0
Cl  Cl109  1  0.21037434  0.57758151  0.04850403  1  0  -0.09261  0  1.370327  0  0  -0.082755  0  1.626253  0  0  -0.085043  0  1.616987  0  -0.192441  0  -0.028713  -0.081765  0  1.633986  0
Cl  Cl110  1  0.62593085  0.18860385  0.84774497  1  0  -0.088679  0  1.311106  0  0  -0.07426  0  1.555053  0  0  -0.078366  0  1.548188  0  -0.208715  0  -0.013459  -0.070949  0  1.559868  0
Cl  Cl111  1  0.37406651  0.81139640  0.15225421  1  0  -0.088649  0  1.311158  0  0  -0.074237  0  1.555088  0  0  -0.078343  0  1.548219  0  -0.208619  0  -0.013453  -0.070925  0  1.559903  0
Cl  Cl112  1  0.05064518  0.81501128  0.30739821  1  0  -0.081725  0  1.262433  0  0  -0.069246  0  1.480584  0  0  -0.073003  0  1.474615  0  -0.197104  0  -0.022474  -0.066646  0  1.484511  0
Cl  Cl113  1  0.94935905  0.18499442  0.69260429  1  0  -0.081743  0  1.262365  0  0  -0.069263  0  1.480518  0  0  -0.073017  0  1.474553  0  -0.197136  0  -0.02248  -0.066663  0  1.484444  0
Cl  Cl114  1  0.30875418  0.79864205  0.37288240  1  0  -0.099694  0  1.322316  0  0  -0.090294  0  1.56741  0  0  -0.094489  0  1.55998  0  -0.199519  0  -0.022336  -0.087295  0  1.572437  0
Cl  Cl115  1  0.69124733  0.20136002  0.62711740  1  0  -0.09967  0  1.322252  0  0  -0.090284  0  1.567362  0  0  -0.094477  0  1.559938  0  -0.199606  0  -0.022329  -0.087286  0  1.57239  0
Cl  Cl116  1  0.07000695  0.59292363  0.40196051  1  0  -0.100654  0  1.32955  0  0  -0.090912  0  1.572083  0  0  -0.093819  0  1.563732  0  -0.198872  0  -0.028541  -0.088837  0  1.577841  0
Cl  Cl117  1  0.92999450  0.40708207  0.59803995  1  0  -0.100646  0  1.329648  0  0  -0.090928  0  1.572111  0  0  -0.093834  0  1.563764  0  -0.198895  0  -0.028555  -0.088853  0  1.57787  0
Cl  Cl118  1  0.99834341  0.51543496  0.21328850  1  0  -0.07217  0  1.357084  0  0  -0.061592  0  1.612388  0  0  -0.066284  0  1.605725  0  -0.176617  0  -0.009155  -0.057831  0  1.61703  0
Cl  Cl119  1  0.00165646  0.48456801  0.78671135  1  0  -0.072128  0  1.357248  0  0  -0.061574  0  1.612482  0  0  -0.066268  0  1.605829  0  -0.176624  0  -0.009125  -0.057814  0  1.617126  0
Cl  Cl120  1  0.78649656  0.37888107  0.37727720  1  0  -0.079876  0  1.297449  0  0  -0.069456  0  1.532401  0  0  -0.073168  0  1.525106  0  -0.182488  0  -0.020117  -0.066855  0  1.537912  0
Cl  Cl121  1  0.21350573  0.62111645  0.62272369  1  0  -0.079922  0  1.297279  0  0  -0.069513  0  1.532229  0  0  -0.073225  0  1.524936  0  -0.182491  0  -0.020161  -0.066926  0  1.537721  0
Cl  Cl122  1  0.79896680  0.13839269  0.39778429  1  0  -0.103726  0  1.305055  0  0  -0.090354  0  1.534775  0  0  -0.094538  0  1.528523  0  -0.198395  0  -0.023697  -0.087091  0  1.539416  0
Cl  Cl123  1  0.20103319  0.86160301  0.60221548  1  0  -0.103632  0  1.305161  0  0  -0.090265  0  1.534866  0  0  -0.094447  0  1.528622  0  -0.19835  0  -0.023645  -0.087015  0  1.539486  0
Cl  Cl124  1  0.56145137  0.14604602  0.25054495  1  0  -0.080736  0  1.356707  0  0  -0.070474  0  1.609092  0  0  -0.073958  0  1.60096  0  -0.177  0  -0.004864  -0.067713  0  1.614377  0
Cl  Cl125  1  0.43854835  0.85395240  0.74945221  1  0  -0.080737  0  1.356755  0  0  -0.070469  0  1.609165  0  0  -0.073954  0  1.601037  0  -0.177171  0  -0.004856  -0.067709  0  1.614453  0
Cl  Cl126  1  0.48846241  0.09851444  0.41056722  1  0  -0.092795  0  1.30141  0  0  -0.080957  0  1.539784  0  0  -0.085102  0  1.533117  0  -0.197444  0  -0.024738  -0.078063  0  1.544644  0
Cl  Cl127  1  0.51153845  0.90148489  0.58943142  1  0  -0.09283  0  1.301342  0  0  -0.08098  0  1.539732  0  0  -0.085123  0  1.533063  0  -0.197494  0  -0.024755  -0.078087  0  1.544596  0
