# generated using pymatgen
data_Zn2H27C46N7O12
_symmetry_space_group_name_H-M   'P 1'
_cell_length_a   9.82976661
_cell_length_b   11.10730778
_cell_length_c   28.10849622
_cell_angle_alpha   89.40259718
_cell_angle_beta   90.40970518
_cell_angle_gamma   90.10813891
_symmetry_Int_Tables_number   1
_chemical_formula_structural   Zn2H27C46N7O12
_chemical_formula_sum   'Zn2 H27 C46 N7 O12'
_cell_volume   3068.69834990
_cell_formula_units_Z   1
loop_
 _symmetry_equiv_pos_site_id
 _symmetry_equiv_pos_as_xyz
  1  'x, y, z'
loop_
 _atom_site_type_symbol
 _atom_site_label
 _atom_site_symmetry_multiplicity
 _atom_site_fract_x
 _atom_site_fract_y
 _atom_site_fract_z
 _atom_site_occupancy
 _atom_site_pbe_bader_charge
 _atom_site_pbe_bader_spin_density
 _atom_site_pbe_cm5_charge
 _atom_site_pbe_ddec_charge
 _atom_site_pbe_ddec_spin_density
 _atom_site_pbe_ddec_sum_bond_order
 _atom_site_pbe_magmom
Zn  Zn0  1  0.63871751  0.49890361  0.49913977  1  1.264946  0  0.662099  0.848123  0  2.423952  0
Zn  Zn1  1  0.35716742  0.49669472  0.49994834  1  1.281547  0  0.665533  0.803262  0  2.453958  0
H  H2  1  0.27059657  0.51921712  0.25838187  1  0.065709  0  0.108383  0.114968  0  0.981976  0
H  H3  1  0.86832384  0.34209433  0.53625759  1  0.146784  0  0.135188  0.105618  0  0.959075  0
H  H4  1  0.90123003  0.56854776  0.48400953  1  0.495655  0  0.307159  0.284148  0  0.965211  0
H  H5  1  0.43715069  0.79670637  0.12170944  1  0.126691  0  0.117524  0.131847  0  0.982096  0
H  H6  1  0.27809033  0.48488039  0.65408534  1  0.089103  0  0.102574  0.102206  0  1.00722  0
H  H7  1  0.28525256  0.48021308  0.74317368  1  0.094137  0  0.108669  0.115051  0  0.981288  0
H  H8  1  0.57859779  0.78785998  0.87699357  1  0.111386  0  0.115322  0.121472  0  0.979515  0
H  H9  1  0.55560255  0.79647633  0.96422121  1  0.077146  0  0.10433  0.105953  0  1.030435  0
H  H10  1  0.70583771  0.46928636  0.34762547  1  0.094847  0  0.105444  0.107876  0  0.999496  0
H  H11  1  0.50600422  0.19676982  0.12290970  1  0.112191  0  0.113229  0.11956  0  0.986703  0
H  H12  1  0.29938950  0.88923223  0.51438767  1  0.089813  0  0.108341  0.107905  0  0.981734  0
H  H13  1  0.42461543  0.19690528  0.96764910  1  0.045095  0  0.101197  0.09957  0  1.014553  0
H  H14  1  0.59475003  0.90232375  0.47887127  1  0.105935  0  0.106936  0.123901  0  0.991514  0
H  H15  1  0.06014812  0.31597551  0.58154651  1  0.457835  0  0.325894  0.31709  0  0.925145  0
H  H16  1  0.22238269  0.36903281  0.56831274  1  0.519316  0  0.312371  0.337559  0  0.955042  0
H  H17  1  0.16982097  0.59706414  0.44038987  1  0.469553  0  0.315902  0.295666  0  0.94084  0
H  H18  1  0.04536844  0.50036961  0.43326559  1  0.401629  0  0.314929  0.273603  0  0.925506  0
H  H19  1  0.38837469  0.83177619  0.99657346  1  0.462333  0  0.307826  0.297687  0  0.95702  0
H  H20  1  0.38247824  0.89137798  0.05201096  1  0.432462  0  0.315819  0.307253  0  0.927798  0
H  H21  1  0.27312115  0.51536027  0.34759483  1  0.104679  0  0.102051  0.100678  0  1.008577  0
H  H22  1  0.71312275  0.51177246  0.65059959  1  0.085048  0  0.104923  0.107251  0  0.999217  0
H  H23  1  0.42550868  0.19873587  0.87935422  1  0.102597  0  0.114692  0.120231  0  0.982324  0
H  H24  1  0.72156782  0.50606807  0.73991034  1  0.057651  0  0.10959  0.116409  0  0.980233  0
H  H25  1  0.49334018  0.19474449  0.03459766  1  0.031085  0  0.101199  0.098022  0  1.016715  0
H  H26  1  0.30237236  0.11231349  0.49692527  1  0.111589  0  0.105491  0.104727  0  0.98786  0
H  H27  1  0.60829194  0.08976869  0.51925625  1  0.071378  0  0.104699  0.121183  0  0.995272  0
H  H28  1  0.70493993  0.47407747  0.25824554  1  0.06602  0  0.108579  0.114574  0  0.981394  0
C  C29  1  0.49625260  0.73030279  0.49467166  1  1.515423  0  0.205778  0.630039  0  4.189521  0
C  C30  1  0.49564349  0.61019442  0.97351372  1  -0.058839  0  0.001791  0.05863  0  3.977088  0
C  C31  1  0.46691925  0.38688107  0.97453409  1  -0.073009  0  0.002966  0.042799  0  3.987425  0
C  C32  1  0.49055203  0.49122784  0.40617834  1  1.599547  0  0.214279  0.59402  0  4.173437  0
C  C33  1  0.48412947  0.49768823  0.94915063  1  -0.008236  0  0.003221  0.001615  0  3.903006  0
C  C34  1  0.53250397  0.71228184  0.94648146  1  -0.011892  0  -0.098771  -0.160082  0  3.994112  0
C  C35  1  0.54847709  0.70788668  0.89716503  1  -0.070711  0  -0.072269  -0.065442  0  3.989445  0
C  C36  1  0.52448919  0.60208891  0.87261112  1  0.002284  0  -0.017183  -0.082541  0  4.01883  0
C  C37  1  0.49259640  0.49552560  0.89834254  1  0.046459  0  0.002812  0.039121  0  4.000939  0
C  C38  1  0.47106636  0.38644918  0.87374571  1  -0.028749  0  -0.014257  -0.077285  0  4.005927  0
C  C39  1  0.47502678  0.38270883  0.82119491  1  1.2936  0  0.23663  0.429512  0  4.114305  0
C  C40  1  0.61074938  0.48335394  0.27809124  1  -0.06049  0  -0.083391  -0.150794  0  3.974369  0
C  C41  1  0.53489080  0.60232612  0.82021959  1  1.351462  0  0.237523  0.431808  0  4.11321  0
C  C42  1  0.37867784  0.48645880  0.72264268  1  0.038161  0  -0.084548  -0.152264  0  3.980184  0
C  C43  1  0.37483998  0.48853015  0.67315938  1  -0.090623  0  -0.081831  -0.077185  0  3.98161  0
C  C44  1  0.51017711  0.26408199  0.50628858  1  1.515748  0  0.204488  0.630219  0  4.191963  0
C  C45  1  0.62027402  0.50382731  0.67132085  1  -0.112542  0  -0.078314  -0.073403  0  3.966473  0
C  C46  1  0.62483503  0.50088030  0.72086086  1  0.107177  0  -0.082484  -0.149156  0  3.973567  0
C  C47  1  0.50377725  0.49245312  0.74625642  1  0.282752  0  0.092953  0.199458  0  4.007088  0
C  C48  1  0.47437453  0.61229562  0.02484394  1  0.023445  0  -0.012256  -0.087962  0  3.930249  0
C  C49  1  0.47768503  0.50006906  0.05048822  1  0.109777  0  0.003056  0.013905  0  3.949342  0
C  C50  1  0.47799778  0.38752014  0.02626532  1  -0.00924  0  0.000311  0.035442  0  3.97811  0
C  C51  1  0.48770696  0.49715907  0.25368402  1  0.382132  0  0.09173  0.199827  0  4.01845  0
C  C52  1  0.44949782  0.71868212  0.05111366  1  0.389766  0  0.10958  0.271438  0  4.050093  0
C  C53  1  0.49609520  0.28017582  0.10243961  1  0.000658  0  -0.077313  -0.082493  0  3.997364  0
C  C54  1  0.44388411  0.28125082  0.94877811  1  0.080585  0  -0.089445  -0.134978  0  3.993952  0
C  C55  1  0.44426023  0.28105717  0.89916295  1  -0.067867  0  -0.071452  -0.068191  0  3.985536  0
C  C56  1  0.49131055  0.49967824  0.59375689  1  1.593815  0  0.217171  0.597935  0  4.165342  0
C  C57  1  0.48873678  0.28049211  0.05294819  1  -0.016437  0  -0.087056  -0.124925  0  3.993248  0
C  C58  1  0.39797255  0.06416272  0.50317207  1  -0.114877  0  -0.072698  -0.022286  0  3.989828  0
C  C59  1  0.51085069  0.13117900  0.51014425  1  0.011764  0  -0.09434  -0.231352  0  3.894305  0
C  C60  1  0.39433106  0.93361654  0.50406604  1  -0.065393  0  -0.073478  -0.03019  0  3.992867  0
C  C61  1  0.49975233  0.86330558  0.49171351  1  0.045704  0  -0.08994  -0.221859  0  3.887621  0
C  C62  1  0.47895486  0.49805849  0.10132263  1  -0.042547  0  -0.005653  0.015922  0  4.028753  0
C  C63  1  0.91967390  0.41852760  0.51885453  1  0.686572  0  0.1204  0.130035  0  3.835174  0
C  C64  1  0.07021499  0.42275385  0.52213490  1  1.147491  0  0.242948  0.345436  0  4.086309  0
C  C65  1  0.47107425  0.61045665  0.17904565  1  1.283639  0  0.241873  0.438536  0  4.100842  0
C  C66  1  0.49544907  0.38609921  0.17945586  1  1.382036  0  0.240481  0.436612  0  4.107607  0
C  C67  1  0.36564584  0.50855826  0.27815863  1  -0.070586  0  -0.084468  -0.153283  0  3.983733  0
C  C68  1  0.36706448  0.50647528  0.32765515  1  0.042209  0  -0.079788  -0.074118  0  3.976658  0
C  C69  1  0.61133774  0.48063993  0.32763494  1  0.034697  0  -0.076718  -0.071852  0  3.963893  0
C  C70  1  0.46818192  0.60789776  0.12627083  1  0.003712  0  -0.009771  -0.047556  0  4.034339  0
C  C71  1  0.45035526  0.71419624  0.10146361  1  0.012513  0  -0.077783  -0.185848  0  3.928062  0
C  C72  1  0.48998147  0.38835982  0.12682973  1  -0.113514  0  -0.012129  -0.06637  0  4.012299  0
C  C73  1  0.48966114  0.49243522  0.35277589  1  -0.109281  0  -0.012932  -0.024842  0  3.946428  0
C  C74  1  0.49548090  0.49729855  0.64709642  1  0.002063  0  -0.015313  -0.033492  0  3.960452  0
N  N75  1  0.48580745  0.49838302  0.20228961  1  -1.197997  0  -0.230912  -0.225251  0  3.593108  0
N  N76  1  0.50593131  0.49207086  0.79761462  1  -1.199529  0  -0.231098  -0.210087  0  3.566858  0
N  N77  1  0.84531105  0.49994020  0.49954602  1  -1.233118  0  -0.445792  -0.377876  0  3.264219  0
N  N78  1  0.14893913  0.48857177  0.49502064  1  -0.832016  0  -0.266092  -0.186961  0  3.434048  0
N  N79  1  0.12431816  0.35246799  0.55740385  1  -1.235898  0  -0.561974  -0.609694  0  3.298596  0
N  N80  1  0.08986787  0.55699689  0.45751795  1  -0.757697  0  -0.497019  -0.475296  0  3.209132  0
N  N81  1  0.42578140  0.83011782  0.03030851  1  -1.226014  0  -0.584108  -0.59931  0  3.320685  0
O  O82  1  0.60929172  0.67762345  0.48680545  1  -1.157071  0  -0.325725  -0.548605  0  2.269653  0
O  O83  1  0.60054653  0.52485303  0.57205354  1  -1.162973  0  -0.313614  -0.547036  0  2.298506  0
O  O84  1  0.37677964  0.47595214  0.57379119  1  -1.186129  0  -0.319739  -0.56893  0  2.34193  0
O  O85  1  0.46145311  0.70422736  0.20162847  1  -1.09949  0  -0.281223  -0.437075  0  2.056716  0
O  O86  1  0.56523737  0.69260069  0.79685546  1  -1.100819  0  -0.284188  -0.442677  0  2.065438  0
O  O87  1  0.50725804  0.29243126  0.20278055  1  -1.093234  0  -0.277964  -0.432914  0  2.060455  0
O  O88  1  0.45273632  0.29036685  0.79857862  1  -1.101553  0  -0.285486  -0.44423  0  2.063553  0
O  O89  1  0.38419889  0.67808871  0.50492144  1  -1.16712  0  -0.324164  -0.551586  0  2.297128  0
O  O90  1  0.60262824  0.46783313  0.42713419  1  -1.164827  0  -0.318456  -0.549293  0  2.297136  0
O  O91  1  0.37814081  0.51438626  0.42663225  1  -1.179138  0  -0.321897  -0.566369  0  2.337274  0
O  O92  1  0.62413661  0.31718175  0.51333155  1  -1.164537  0  -0.326444  -0.562904  0  2.282534  0
O  O93  1  0.39820497  0.31642708  0.49602419  1  -1.175357  0  -0.324405  -0.559861  0  2.333531  0
