# generated using pymatgen
data_CaH8C10(BrN)2
_symmetry_space_group_name_H-M   'P 1'
_cell_length_a   7.55960858
_cell_length_b   9.80807500
_cell_length_c   9.60197033
_cell_angle_alpha   120.70692496
_cell_angle_beta   103.65457968
_cell_angle_gamma   89.98815360
_symmetry_Int_Tables_number   1
_chemical_formula_structural   CaH8C10(BrN)2
_chemical_formula_sum   'Ca2 H16 C20 Br4 N4'
_cell_volume   588.61627212
_cell_formula_units_Z   2
loop_
 _symmetry_equiv_pos_site_id
 _symmetry_equiv_pos_as_xyz
  1  'x, y, z'
loop_
 _atom_site_type_symbol
 _atom_site_label
 _atom_site_symmetry_multiplicity
 _atom_site_fract_x
 _atom_site_fract_y
 _atom_site_fract_z
 _atom_site_occupancy
 _atom_site_pbe_bader_spin_density
 _atom_site_pbe_cm5_charge
 _atom_site_pbe_ddec_charge
 _atom_site_pbe_ddec_spin_density
 _atom_site_pbe_ddec_sum_bond_order
 _atom_site_pbe_magmom
Ca  Ca0  1  0.74998696  0.90979890  0.99984519  1  0  0.549442  1.092093  0  1.765121  0
Ca  Ca1  1  0.25001144  0.09020040  0.00015384  1  0  0.549436  1.09212  0  1.765092  0
H  H2  1  0.83284454  0.41470658  0.11898518  1  0  0.102073  0.111277  0  1.037411  0
H  H3  1  0.66703884  0.29568920  0.88096200  1  0  0.102059  0.111698  0  1.038861  0
H  H4  1  0.16715519  0.58529274  0.88101620  1  0  0.102077  0.111289  0  1.037397  0
H  H5  1  0.33296363  0.70431009  0.11903885  1  0  0.102077  0.111722  0  1.038826  0
H  H6  1  0.06310050  0.56447720  0.39459843  1  0  0.102324  0.108064  0  0.993309  0
H  H7  1  0.43678427  0.16994683  0.60539560  1  0  0.102624  0.10829  0  0.994831  0
H  H8  1  0.93690399  0.43552563  0.60540149  1  0  0.102315  0.108057  0  0.993284  0
H  H9  1  0.56321431  0.83005371  0.39460721  1  0  0.102626  0.108288  0  0.994829  0
H  H10  1  0.18666052  0.85184159  0.51095754  1  0  0.094907  0.105766  0  1.05277  0
H  H11  1  0.31317502  0.34092779  0.48898310  1  0  0.094802  0.105593  0  1.05355  0
H  H12  1  0.81333972  0.14816002  0.48903781  1  0  0.094892  0.105753  0  1.052788  0
H  H13  1  0.68682199  0.65907157  0.51101881  1  0  0.094819  0.10562  0  1.053536  0
H  H14  1  0.06642700  0.97416922  0.33855429  1  0  0.110413  0.070827  0  1.03548  0
H  H15  1  0.43347329  0.63560868  0.66127131  1  0  0.110428  0.070527  0  1.035149  0
H  H16  1  0.93357028  0.02583125  0.66144199  1  0  0.110413  0.070786  0  1.035491  0
H  H17  1  0.56652646  0.36439062  0.33872902  1  0  0.110414  0.070511  0  1.035145  0
C  C18  1  0.82114060  0.61639178  0.08232576  1  0  0.123295  0.17509  0  3.976287  0
C  C19  1  0.67884264  0.53402498  0.91755133  1  0  0.123558  0.176301  0  3.977802  0
C  C20  1  0.17885780  0.38360752  0.91767326  1  0  0.123304  0.17509  0  3.976295  0
C  C21  1  0.32115712  0.46597431  0.08244796  1  0  0.123566  0.176305  0  3.977818  0
C  C22  1  0.88457496  0.53920336  0.16960845  1  0  -0.079742  -0.154157  0  3.930636  0
C  C23  1  0.61535745  0.36960149  0.83033713  1  0  -0.079884  -0.155635  0  3.935173  0
C  C24  1  0.11542322  0.46079476  0.83039097  1  0  -0.079722  -0.154138  0  3.930679  0
C  C25  1  0.38464500  0.63039781  0.16966476  1  0  -0.079933  -0.155664  0  3.935293  0
C  C26  1  0.01510729  0.62348734  0.32533967  1  0  -0.065758  -0.011544  0  3.945355  0
C  C27  1  0.48480426  0.29817285  0.67461333  1  0  -0.066277  -0.01185  0  3.950156  0
C  C28  1  0.98489290  0.37651434  0.67465987  1  0  -0.065787  -0.01158  0  3.945361  0
C  C29  1  0.51519548  0.70182647  0.32538805  1  0  -0.066296  -0.011878  0  3.950369  0
C  C30  1  0.08259975  0.78262609  0.39029327  1  0  -0.083521  -0.123911  0  3.959072  0
C  C31  1  0.41726698  0.39236432  0.60962951  1  0  -0.082873  -0.122437  0  3.960349  0
C  C32  1  0.91740024  0.21737437  0.60970457  1  0  -0.083481  -0.123892  0  3.959169  0
C  C33  1  0.58273139  0.60763501  0.39037161  1  0  -0.082905  -0.122502  0  3.960416  0
C  C34  1  0.01590514  0.85074452  0.29518972  1  0  0.052174  0.100711  0  3.966527  0
C  C35  1  0.48403221  0.55553413  0.70465259  1  0  0.051152  0.099009  0  3.969009  0
C  C36  1  0.98409213  0.14925597  0.70480865  1  0  0.052215  0.100848  0  3.966622  0
C  C37  1  0.51596638  0.44446638  0.29534814  1  0  0.051237  0.09912  0  3.9689  0
Br  Br38  1  0.00462722  0.19980310  0.21744273  1  0  -0.252086  -0.587869  0  1.095129  0
Br  Br39  1  0.49526260  0.98260258  0.78271386  1  0  -0.252213  -0.587913  0  1.095392  0
Br  Br40  1  0.99537254  0.80019619  0.78255655  1  0  -0.252087  -0.587879  0  1.095136  0
Br  Br41  1  0.50473798  0.01740151  0.21728907  1  0  -0.25222  -0.587917  0  1.095388  0
N  N42  1  0.88741169  0.77119381  0.14578721  1  0  -0.378643  -0.340248  0  3.436826  0
N  N43  1  0.61256474  0.62535447  0.85402413  1  0  -0.378247  -0.33968  0  3.438618  0
N  N44  1  0.11258808  0.22880547  0.85421102  1  0  -0.378706  -0.340356  0  3.436923  0
N  N45  1  0.38743523  0.37464602  0.14597581  1  0  -0.378262  -0.339707  0  3.438544  0
