# generated using pymatgen
data_Cu2Mo4H20C32N4O17
_symmetry_space_group_name_H-M   'P 1'
_cell_length_a   7.54139109
_cell_length_b   10.23837639
_cell_length_c   11.36777476
_cell_angle_alpha   78.13326836
_cell_angle_beta   87.14589134
_cell_angle_gamma   83.60195551
_symmetry_Int_Tables_number   1
_chemical_formula_structural   Cu2Mo4H20C32N4O17
_chemical_formula_sum   'Cu2 Mo4 H20 C32 N4 O17'
_cell_volume   853.28990937
_cell_formula_units_Z   1
loop_
 _symmetry_equiv_pos_site_id
 _symmetry_equiv_pos_as_xyz
  1  'x, y, z'
loop_
 _atom_site_type_symbol
 _atom_site_label
 _atom_site_symmetry_multiplicity
 _atom_site_fract_x
 _atom_site_fract_y
 _atom_site_fract_z
 _atom_site_occupancy
 _atom_site_hle17_ddec_charge
 _atom_site_hle17_ddec_spin_density
 _atom_site_hle17_ddec_sum_bond_order
 _atom_site_hle17_magmom
 _atom_site_hse06_10hf_ddec_charge
 _atom_site_hse06_10hf_ddec_spin_density
 _atom_site_hse06_10hf_ddec_sum_bond_order
 _atom_site_hse06_10hf_magmom
 _atom_site_hse06_ddec_charge
 _atom_site_hse06_ddec_spin_density
 _atom_site_hse06_ddec_sum_bond_order
 _atom_site_hse06_magmom
 _atom_site_pbe_cm5_charge
 _atom_site_pbe_ddec_charge
 _atom_site_pbe_ddec_spin_density
 _atom_site_pbe_ddec_sum_bond_order
 _atom_site_pbe_magmom
Cu  Cu0  1  0.55760837  0.29528439  0.73030886  1  0.937422  -0.735488  1.817439  -0.512  0.928203  -0.813011  2.214797  -0.626  1.015133  -0.892803  2.144394  -0.716  0.752806  0.877203  -0.751236  2.262661  -0.563
Cu  Cu1  1  0.44239454  0.70471133  0.26969366  1  0.937427  0.735489  1.817445  0.512  0.928195  0.813018  2.214816  0.626  1.015151  0.892807  2.144413  0.716  0.7528  0.8772  0.751239  2.26266  0.563
Mo  Mo2  1  0.36612406  0.00578923  0.86199728  1  2.280148  0.00642  4.039571  0.006  2.297007  -0.00673  4.558624  -0.009  2.404614  -0.00408  4.520954  -0.006  1.555366  2.223517  -0.010675  4.583631  -0.014
Mo  Mo3  1  0.63387737  0.99420655  0.13799825  1  2.28021  -0.006415  4.039401  -0.006  2.29704  0.006713  4.558463  0.009  2.404645  0.004079  4.520797  0.006  1.555394  2.223544  0.010674  4.583475  0.014
Mo  Mo4  1  0.93872475  0.05088611  0.85741660  1  2.226433  0.003417  4.021537  0.004  2.226099  0.00232  4.573748  0.003  2.328431  0.001815  4.532763  0.002  1.518183  2.150419  0.002812  4.610065  0.003
Mo  Mo5  1  0.06127891  0.94911269  0.14257830  1  2.226428  -0.003413  4.021547  -0.004  2.226099  -0.002326  4.573763  -0.003  2.328431  -0.001817  4.532778  -0.002  1.518211  2.150416  -0.002811  4.610079  -0.003
H  H6  1  0.64192544  0.06415465  0.58896429  1  0.102645  -0.001612  0.92784  -0.003  0.11481  -0.001175  0.981913  -0.002  0.116691  -0.000787  0.979838  -0.002  0.126607  0.113193  -0.001541  0.983744  -0.003
H  H7  1  0.35807502  0.93584815  0.41103090  1  0.102633  0.001612  0.927816  0.003  0.114788  0.001176  0.981899  0.002  0.116672  0.000788  0.97982  0.002  0.126606  0.113172  0.001542  0.983727  0.003
H  H8  1  0.81152546  0.04701572  0.39165364  1  0.124099  -0.000605  0.975747  -0.001  0.13339  -0.000534  1.035337  -0.001  0.137095  -0.000376  1.033796  0.0  0.108722  0.130782  -0.000646  1.036333  -0.001
H  H9  1  0.18846731  0.95299413  0.60833709  1  0.124139  0.000605  0.975652  0.001  0.133416  0.000534  1.035262  0.001  0.137112  0.000375  1.033716  0.0  0.108754  0.13076  0.000646  1.036321  0.001
H  H10  1  0.93048097  0.24931266  0.26972251  1  0.116252  -0.00038  0.929279  -0.001  0.126737  -5.1e-05  0.988729  0.0  0.128629  -4e-06  0.98817  0.0  0.116702  0.125193  -0.000118  0.989388  0.0
H  H11  1  0.06951697  0.75069914  0.73027470  1  0.116292  0.000382  0.929431  0.001  0.126775  5.1e-05  0.988869  0.0  0.128666  5e-06  0.98831  0.0  0.116747  0.125239  0.000118  0.989523  0.0
H  H12  1  0.97184853  0.50067220  0.24999649  1  0.104184  -0.000428  0.95669  -0.001  0.117647  -0.000274  1.011377  0.0  0.118809  -0.000163  1.013549  0.0  0.108196  0.116672  -0.000405  1.010115  0.0
H  H13  1  0.02815194  0.49934153  0.75000817  1  0.104165  0.000427  0.956766  0.001  0.117593  0.000273  1.011473  0.0  0.118754  0.000163  1.013645  0.0  0.108173  0.116619  0.000405  1.010215  0.0
H  H14  1  0.91475571  0.70736995  0.33107086  1  0.127995  -0.000394  0.951435  -0.001  0.136407  -0.000247  1.012803  0.0  0.139671  -0.000145  1.011585  0.0  0.109015  0.134159  -0.000336  1.013742  0.0
H  H15  1  0.08523215  0.29263971  0.66893946  1  0.128038  0.000395  0.951347  0.001  0.13644  0.000247  1.012744  0.0  0.139703  0.000145  1.011528  0.0  0.108972  0.134192  0.000336  1.013678  0.0
H  H16  1  0.79515827  0.81976884  0.50388087  1  0.107556  -0.000471  0.926814  -0.001  0.122679  -0.000128  0.978947  0.0  0.124808  -5.9e-05  0.978116  0.0  0.114605  0.121037  -0.000153  0.979638  0.0
H  H17  1  0.20484592  0.18022973  0.49613956  1  0.107657  0.000471  0.926746  0.001  0.122799  0.000128  0.978848  0.0  0.12493  5.8e-05  0.978015  0.0  0.1146  0.121157  0.000153  0.97954  0.0
H  H18  1  0.65390661  0.79212540  0.71303266  1  0.139538  -0.000522  0.959542  -0.001  0.149591  -0.000457  1.014224  -0.001  0.153042  -0.000316  1.012423  0.0  0.114128  0.146724  -0.000553  1.016158  -0.001
H  H19  1  0.34610298  0.20786315  0.28698935  1  0.139395  0.000521  0.959738  0.001  0.14958  0.000457  1.014288  0.001  0.153035  0.000316  1.01248  0.0  0.114101  0.146711  0.000553  1.016221  0.001
H  H20  1  0.54402597  0.57237080  0.80808705  1  0.099925  -0.001586  0.929651  -0.003  0.108873  -0.001145  0.989976  -0.002  0.11093  -0.000781  0.987051  -0.002  0.127792  0.106969  -0.001523  0.992507  -0.003
H  H21  1  0.45596460  0.42761884  0.19192148  1  0.099922  0.001586  0.929589  0.003  0.108889  0.001145  0.989896  0.002  0.110948  0.000781  0.986966  0.002  0.127806  0.106985  0.001524  0.992421  0.003
H  H22  1  0.29690541  0.57738031  0.93302918  1  0.107939  -5.9e-05  0.942505  0.0  0.118732  -1.6e-05  1.001419  0.0  0.122457  -1.5e-05  0.998717  0.0  0.106339  0.116157  5e-06  1.003258  0.0
H  H23  1  0.70309276  0.42261949  0.06696400  1  0.107946  6e-05  0.942433  0.0  0.118701  1.7e-05  1.001384  0.0  0.122419  1.5e-05  0.998694  0.0  0.106349  0.116129  -5e-06  1.003217  0.0
H  H24  1  0.94047528  0.26688248  0.99977792  1  0.109294  3.6e-05  0.98755  0.0  0.111527  3.1e-05  1.059932  0.0  0.115291  1.3e-05  1.056879  0.0  0.101777  0.108494  6.4e-05  1.062614  0.0
H  H25  1  0.05952738  0.73311429  0.00021914  1  0.109343  -3.6e-05  0.987536  0.0  0.11156  -3.1e-05  1.059911  0.0  0.115315  -1.3e-05  1.056879  0.0  0.101802  0.108528  -6.4e-05  1.062587  0.0
C  C26  1  0.69600477  0.15004128  0.53097674  1  0.152186  0.007156  3.653502  0.008  0.123013  0.000655  3.907579  0.002  0.134473  0.001883  3.924197  0.003  0.06372  0.115388  -0.000236  3.896461  0.001
C  C27  1  0.30399746  0.84995850  0.46901980  1  0.152134  -0.007147  3.653681  -0.008  0.12298  -0.000654  3.907737  -0.002  0.134441  -0.001884  3.924351  -0.003  0.063717  0.115357  0.000236  3.896609  -0.001
C  C28  1  0.79117288  0.14158110  0.42281470  1  -0.115372  -0.010492  3.694987  -0.011  -0.131216  -0.004713  3.949937  -0.006  -0.139556  -0.00397  3.970228  -0.005  -0.077698  -0.125381  -0.005361  3.935703  -0.006
C  C29  1  0.20882160  0.85842669  0.57718160  1  -0.115294  0.010482  3.694836  0.011  -0.13113  0.004712  3.949755  0.006  -0.139454  0.00397  3.970032  0.005  -0.077704  -0.125258  0.005361  3.935563  0.006
C  C30  1  0.85651138  0.25495956  0.35381767  1  -0.023914  0.008571  3.635234  0.008  -0.048562  0.002795  3.883551  0.003  -0.044759  0.003007  3.901184  0.003  -0.050878  -0.050995  0.00261  3.871671  0.002
C  C31  1  0.14348569  0.74504921  0.64618187  1  -0.024069  -0.008565  3.635494  -0.008  -0.048663  -0.002794  3.883784  -0.003  -0.044869  -0.003008  3.901439  -0.003  -0.05086  -0.051098  -0.002609  3.871887  -0.002
C  C32  1  0.82818002  0.37763023  0.39396286  1  0.022936  -0.005652  3.787484  -0.006  0.039163  -0.002726  4.01756  -0.003  0.035626  -0.002194  4.042189  -0.003  0.001571  0.041461  -0.003242  4.000761  -0.004
C  C33  1  0.17181886  0.62237550  0.60603979  1  0.023083  0.005643  3.787372  0.006  0.039217  0.002725  4.017577  0.003  0.035677  0.002194  4.042207  0.003  0.001519  0.04152  0.003241  4.000781  0.004
C  C34  1  0.89431281  0.50027154  0.33345873  1  -0.083864  -0.001663  3.715526  -0.001  -0.107536  -0.001135  3.970968  -0.001  -0.110275  -0.000937  3.995423  -0.001  -0.079399  -0.105805  -0.001314  3.954894  -0.001
C  C35  1  0.10568280  0.49973917  0.66654756  1  -0.083941  0.001676  3.715481  0.001  -0.107545  0.001137  3.970962  0.001  -0.110284  0.000936  3.99542  0.001  -0.079429  -0.105819  0.001314  3.954894  0.001
C  C36  1  0.86382020  0.61477296  0.37898565  1  -0.094664  -0.001378  3.680239  -0.001  -0.122273  -0.000999  3.949592  -0.001  -0.125778  -0.000863  3.969235  0.0  -0.079871  -0.120104  -0.001228  3.937105  -0.001
C  C37  1  0.13617177  0.38523571  0.62102380  1  -0.094691  0.001367  3.680089  0.001  -0.122323  0.000998  3.949408  0.001  -0.125829  0.000864  3.969052  0.0  -0.079833  -0.120149  0.001227  3.936924  0.001
C  C38  1  0.77006031  0.61460084  0.49183908  1  0.023368  -0.005559  3.806732  -0.006  0.034356  -0.002783  4.050778  -0.003  0.031979  -0.002356  4.073191  -0.002  -0.001228  0.035243  -0.003105  4.036512  -0.003
C  C39  1  0.22993644  0.38540183  0.50816949  1  0.023303  0.005567  3.806909  0.006  0.034352  0.002782  4.050815  0.003  0.031975  0.002357  4.073229  0.002  -0.001207  0.035232  0.003105  4.036565  0.003
C  C40  1  0.74701243  0.72527037  0.54946067  1  -0.035232  0.00878  3.666962  0.008  -0.060086  0.002938  3.915777  0.003  -0.056357  0.003092  3.93277  0.003  -0.057506  -0.063025  0.002755  3.904831  0.003
C  C41  1  0.25298663  0.27472623  0.45055505  1  -0.035394  -0.008791  3.666774  -0.008  -0.060246  -0.002937  3.91559  -0.003  -0.056519  -0.003093  3.932587  -0.003  -0.057541  -0.063187  -0.002755  3.904648  -0.003
C  C42  1  0.66921252  0.71081818  0.66358858  1  -0.109532  -0.010978  3.671487  -0.012  -0.122862  -0.004993  3.921126  -0.006  -0.130564  -0.004174  3.940617  -0.005  -0.076078  -0.117404  -0.005501  3.908053  -0.006
C  C43  1  0.33079106  0.28917442  0.33642679  1  -0.109359  0.01099  3.671488  0.012  -0.122869  0.004992  3.921154  0.006  -0.130571  0.004175  3.940639  0.005  -0.076037  -0.117417  0.005501  3.908097  0.006
C  C44  1  0.60803057  0.58719055  0.71900288  1  0.166921  0.007468  3.625443  0.008  0.136886  0.001028  3.884965  0.002  0.149205  0.002189  3.900569  0.003  0.069061  0.128985  5.3e-05  3.874664  0.001
C  C45  1  0.39196363  0.41280207  0.28100847  1  0.166961  -0.007475  3.625564  -0.008  0.136921  -0.001027  3.885092  -0.002  0.149239  -0.002189  3.900702  -0.003  0.069048  0.129019  -5.3e-05  3.874784  -0.001
C  C46  1  0.70587016  0.49417170  0.55459925  1  0.116102  0.000556  3.788541  0.001  0.109797  -0.001294  4.033912  -0.001  0.114935  -0.000339  4.05692  0.0  0.110424  0.106306  -0.002038  4.018877  -0.002
C  C47  1  0.29412656  0.50583099  0.44540755  1  0.116196  -0.000565  3.788607  -0.001  0.109911  0.001293  4.033896  0.001  0.115051  0.000339  4.056906  0.0  0.11045  0.106426  0.002038  4.018857  0.002
C  C48  1  0.73195671  0.37647424  0.50428042  1  0.126447  0.0009  3.78161  0.002  0.121455  -0.001201  4.020091  0.0  0.126969  -0.000164  4.043488  0.001  0.114301  0.117955  -0.001973  4.004464  -0.001
C  C49  1  0.26804116  0.62352948  0.49572439  1  0.126373  -0.000892  3.781497  -0.002  0.121344  0.001201  4.020091  0.0  0.126856  0.000164  4.043491  -0.001  0.11425  0.117838  0.001974  4.004465  0.001
C  C50  1  0.27087793  0.31588327  0.91121662  1  0.677656  0.002682  3.834655  0.007  0.642298  -0.001351  4.123335  0.001  0.682656  -0.000686  4.112436  0.001  0.223984  0.614885  -0.001972  4.129286  0.001
C  C51  1  0.72912363  0.68411246  0.08878507  1  0.677601  -0.002683  3.834525  -0.007  0.642316  0.001354  4.123147  -0.001  0.682649  0.000686  4.112253  -0.001  0.223965  0.614898  0.001972  4.129106  -0.001
C  C52  1  0.13564761  0.41062746  0.96184175  1  -0.06278  -0.014143  3.730555  -0.015  -0.041263  -0.006393  3.957008  -0.007  -0.048906  -0.004457  3.978667  -0.005  -0.014373  -0.036168  -0.008201  3.942348  -0.009
C  C53  1  0.86435880  0.58937130  0.03815744  1  -0.062825  0.014143  3.730306  0.015  -0.041421  0.006397  3.956864  0.007  -0.049001  0.004454  3.97844  0.005  -0.014393  -0.036324  0.008202  3.942207  0.009
C  C54  1  0.16736645  0.54280216  0.96245171  1  -0.07789  0.003859  3.724014  0.004  -0.100778  0.000882  3.973912  0.001  -0.101124  0.000813  3.993112  0.001  -0.084018  -0.100329  0.001022  3.96074  0.001
C  C55  1  0.83263729  0.45719661  0.03754670  1  -0.077734  -0.003859  3.723938  -0.004  -0.100552  -0.000886  3.97386  -0.001  -0.100916  -0.000813  3.99305  -0.001  -0.083941  -0.100102  -0.001023  3.960687  -0.001
C  C56  1  0.96716958  0.36879274  0.00033452  1  -0.058571  0.00184  3.691588  0.002  -0.08254  -0.00027  3.943614  0.0  -0.083217  8.8e-05  3.962971  0.0  -0.082591  -0.081765  -0.00054  3.931024  -0.001
C  C57  1  0.03283681  0.63120603  0.99966379  1  -0.058506  -0.00184  3.691431  -0.002  -0.082419  0.000268  3.943494  0.0  -0.083112  -8.6e-05  3.962826  0.0  -0.082585  -0.081645  0.00054  3.930905  0.001
N  N58  1  0.66691132  0.26506220  0.56954866  1  -0.31843  -0.089027  3.329715  -0.108  -0.276891  -0.062764  3.618383  -0.082  -0.308291  -0.051166  3.641595  -0.07  -0.33637  -0.257971  -0.069486  3.604484  -0.087
N  N59  1  0.33309217  0.73493856  0.43045117  1  -0.31837  0.089017  3.329894  0.108  -0.276817  0.06276  3.618547  0.082  -0.308224  0.051164  3.64177  0.07  -0.336335  -0.257899  0.069481  3.604651  0.087
N  N60  1  0.62486759  0.48213350  0.66541128  1  -0.330539  -0.082319  3.314508  -0.099  -0.29408  -0.056627  3.616637  -0.074  -0.324384  -0.046781  3.636819  -0.064  -0.339719  -0.276132  -0.061472  3.604888  -0.077
N  N61  1  0.37512857  0.51786320  0.33459311  1  -0.330598  0.082327  3.314551  0.099  -0.29411  0.056627  3.616623  0.074  -0.324419  0.046779  3.636804  0.064  -0.339702  -0.276163  0.061471  3.604872  0.077
O  O62  1  0.14660477  0.95208395  0.97577261  1  -1.017123  -0.006587  1.858285  -0.009  -1.007067  -0.003765  2.165671  -0.005  -1.051151  -0.002422  2.157112  -0.004  -0.615834  -0.973941  -0.005139  2.170943  -0.007
O  O63  1  0.85339425  0.04790984  0.02422162  1  -1.017077  0.006587  1.858263  0.009  -1.007033  0.003768  2.165678  0.005  -1.051117  0.002422  2.157109  0.004  -0.615794  -0.973907  0.005139  2.170944  0.007
O  O64  1  0.15013127  0.05251196  0.76130467  1  -0.907646  -0.001092  1.693796  -0.002  -0.902235  -0.000558  1.978047  -0.001  -0.942185  -0.000335  1.970638  -0.001  -0.592781  -0.873378  -0.000625  1.983357  -0.001
O  O65  1  0.84987091  0.94748785  0.23868923  1  -0.907589  0.001091  1.693701  0.002  -0.902185  0.000556  1.977948  0.001  -0.942137  0.000333  1.970544  0.001  -0.592753  -0.873332  0.000626  1.983264  0.001
O  O66  1  0.49999929  0.99999622  0.99999837  1  -0.894489  -0.0  1.797823  0.0  -0.907699  -7e-06  2.109795  0.0  -0.953276  -2e-06  2.103755  0.0  -0.589958  -0.87754  -0.0  2.114126  0.0
O  O67  1  0.22780388  0.19925152  0.91587329  1  -0.665007  -0.003349  2.180343  -0.005  -0.633702  -0.001551  2.442587  -0.003  -0.665048  -0.000545  2.43786  -0.001  -0.318068  -0.611236  -0.002578  2.444465  -0.004
O  O68  1  0.77219728  0.80074626  0.08412277  1  -0.665004  0.00335  2.180185  0.005  -0.633694  0.001549  2.442355  0.003  -0.665035  0.000548  2.437637  0.001  -0.318074  -0.611228  0.002579  2.444232  0.004
O  O69  1  0.48836602  0.11671052  0.75600487  1  -0.79647  -0.073078  1.768762  -0.092  -0.813049  -0.043754  2.101593  -0.059  -0.859437  -0.03422  2.088329  -0.049  -0.552302  -0.783418  -0.049613  2.111508  -0.065
O  O70  1  0.51163823  0.88328425  0.24399160  1  -0.796518  0.073086  1.768779  0.092  -0.813092  0.043756  2.101612  0.059  -0.859486  0.03423  2.088355  0.049  -0.552298  -0.783458  0.049617  2.111523  0.065
O  O71  1  0.42788911  0.85009833  0.83145713  1  -0.660093  -0.00564  1.395435  -0.007  -0.653466  -0.003682  1.618598  -0.005  -0.677626  -0.002444  1.608974  -0.003  -0.505596  -0.638212  -0.004164  1.625836  -0.005
O  O72  1  0.57210857  0.14989546  0.16853628  1  -0.660146  0.005635  1.395456  0.007  -0.653462  0.0037  1.618563  0.005  -0.677627  0.00244  1.60894  0.003  -0.505607  -0.638206  0.004163  1.625796  0.005
O  O73  1  0.83267849  0.21019994  0.80022046  1  -0.773014  -0.00041  1.528344  -0.002  -0.776612  6.8e-05  1.816088  -0.001  -0.808789  0.000255  1.800921  -0.001  -0.548359  -0.753883  -0.000192  1.827916  -0.001
O  O74  1  0.16732247  0.78979982  0.19977878  1  -0.772981  0.00041  1.528296  0.002  -0.776606  -6.6e-05  1.816063  0.001  -0.808785  -0.000254  1.800898  0.001  -0.548372  -0.753878  0.000192  1.827888  0.001
O  O75  1  0.82867296  0.93585242  0.80803365  1  -0.692659  0.001292  1.412419  0.002  -0.687194  0.000694  1.661837  0.001  -0.711724  0.000497  1.651021  0.001  -0.516983  -0.668763  0.000864  1.670492  0.001
O  O76  1  0.17133045  0.06414743  0.19195579  1  -0.692648  -0.001292  1.412479  -0.002  -0.687177  -0.000692  1.661895  -0.001  -0.71171  -0.000496  1.651082  -0.001  -0.516965  -0.668752  -0.000864  1.670557  -0.001
O  O77  1  0.41510990  0.36155793  0.86235382  1  -0.599137  -0.092424  2.040392  -0.119  -0.583567  -0.052411  2.325088  -0.074  -0.625781  -0.038274  2.3146  -0.057  -0.318757  -0.554205  -0.062812  2.331274  -0.085
O  O78  1  0.58489715  0.63843679  0.13764958  1  -0.59912  0.092417  2.040542  0.119  -0.583567  0.052408  2.325206  0.074  -0.625792  0.038271  2.314748  0.057  -0.318764  -0.554207  0.062809  2.331393  0.085
