# generated using pymatgen
data_Zn4H48C54O25
_symmetry_space_group_name_H-M   'P 1'
_cell_length_a   17.19511077
_cell_length_b   17.19508069
_cell_length_c   17.19511405
_cell_angle_alpha   92.68115814
_cell_angle_beta   92.68112835
_cell_angle_gamma   92.68120745
_symmetry_Int_Tables_number   1
_chemical_formula_structural   Zn4H48C54O25
_chemical_formula_sum   'Zn8 H96 C108 O50'
_cell_volume   5066.86493527
_cell_formula_units_Z   2
loop_
 _symmetry_equiv_pos_site_id
 _symmetry_equiv_pos_as_xyz
  1  'x, y, z'
loop_
 _atom_site_type_symbol
 _atom_site_label
 _atom_site_symmetry_multiplicity
 _atom_site_fract_x
 _atom_site_fract_y
 _atom_site_fract_z
 _atom_site_occupancy
 _atom_site_pbe_bader_charge
 _atom_site_pbe_bader_spin_density
 _atom_site_pbe_cm5_charge
 _atom_site_pbe_ddec_charge
 _atom_site_pbe_ddec_spin_density
 _atom_site_pbe_ddec_sum_bond_order
 _atom_site_pbe_magmom
Zn  Zn0  1  0.35709710  0.35709665  0.35709571  1  1.305968  0  0.666269  0.951409  0  2.391007  0
Zn  Zn1  1  0.64290443  0.64290378  0.64290398  1  1.306138  0  0.66628  0.951425  0  2.390997  0
Zn  Zn2  1  0.35131513  0.21626047  0.22995464  1  1.316211  0  0.670353  0.962648  0  2.394621  0
Zn  Zn3  1  0.22995659  0.35131383  0.21626113  1  1.316373  0  0.670391  0.962691  0  2.39427  0
Zn  Zn4  1  0.21626157  0.22995547  0.35131297  1  1.316284  0  0.670345  0.962584  0  2.394434  0
Zn  Zn5  1  0.64868523  0.78374049  0.77004735  1  1.316295  0  0.670328  0.962562  0  2.394543  0
Zn  Zn6  1  0.77004493  0.64868602  0.78374028  1  1.316263  0  0.670366  0.962671  0  2.394539  0
Zn  Zn7  1  0.78373820  0.77004604  0.64868728  1  1.316285  0  0.670409  0.962711  0  2.394238  0
H  H8  1  0.58775721  0.19005801  0.24208884  1  0.09484  0  0.102256  0.119181  0  1.041915  0
H  H9  1  0.24208875  0.58775869  0.19005506  1  0.094766  0  0.102209  0.119127  0  1.041948  0
H  H10  1  0.19005698  0.24208927  0.58775845  1  0.094792  0  0.102239  0.11917  0  1.04194  0
H  H11  1  0.41224315  0.80994236  0.75791254  1  0.094826  0  0.102242  0.119164  0  1.041931  0
H  H12  1  0.75791453  0.41224475  0.80994079  1  0.094819  0  0.102246  0.119157  0  1.04195  0
H  H13  1  0.80994338  0.75791343  0.41224246  1  0.094773  0  0.102228  0.119133  0  1.042008  0
H  H14  1  0.59168937  0.42875296  0.32609708  1  0.0926  0  0.105222  0.123524  0  1.031226  0
H  H15  1  0.32609386  0.59168703  0.42874986  1  0.09264  0  0.105263  0.123587  0  1.031155  0
H  H16  1  0.42875108  0.32609685  0.59168765  1  0.092614  0  0.105247  0.123548  0  1.031182  0
H  H17  1  0.40831041  0.57124855  0.67390142  1  0.092642  0  0.105232  0.123554  0  1.03124  0
H  H18  1  0.67390592  0.40831507  0.57124634  1  0.092534  0  0.10522  0.123511  0  1.031215  0
H  H19  1  0.57124870  0.67390524  0.40831379  1  0.092613  0  0.105244  0.12357  0  1.03114  0
H  H20  1  0.75870957  0.56269390  0.36272230  1  0.046565  0  0.106111  0.117928  0  0.983006  0
H  H21  1  0.36272139  0.75871065  0.56269223  1  0.046586  0  0.10609  0.117935  0  0.982983  0
H  H22  1  0.56269240  0.36272237  0.75870737  1  0.04664  0  0.106087  0.117914  0  0.982985  0
H  H23  1  0.24128962  0.43730700  0.63727731  1  0.046583  0  0.106114  0.117954  0  0.983019  0
H  H24  1  0.63727722  0.24129081  0.43730621  1  0.046586  0  0.106119  0.11793  0  0.98298  0
H  H25  1  0.43730796  0.63727917  0.24129116  1  0.046631  0  0.106119  0.117984  0  0.982955  0
H  H26  1  0.68106908  0.50708015  0.40345389  1  0.0528  0  0.097167  0.098485  0  0.986604  0
H  H27  1  0.40345266  0.68107056  0.50707846  1  0.052854  0  0.097195  0.09852  0  0.986575  0
H  H28  1  0.50708021  0.40345519  0.68106674  1  0.053032  0  0.097158  0.098451  0  0.986588  0
H  H29  1  0.31892953  0.49292130  0.59654513  1  0.05284  0  0.097179  0.098502  0  0.98656  0
H  H30  1  0.59654536  0.31893203  0.49291826  1  0.053056  0  0.097158  0.098467  0  0.986588  0
H  H31  1  0.49291957  0.59654632  0.31893234  1  0.053073  0  0.097165  0.098486  0  0.986608  0
H  H32  1  0.67211136  0.53645133  0.30426122  1  0.074008  0  0.097493  0.099186  0  1.020585  0
H  H33  1  0.30425985  0.67211238  0.53645064  1  0.074116  0  0.097456  0.09912  0  1.02064  0
H  H34  1  0.53645081  0.30426062  0.67210913  1  0.074118  0  0.097483  0.099168  0  1.020587  0
H  H35  1  0.32788666  0.46355068  0.69573723  1  0.074136  0  0.097483  0.09911  0  1.020771  0
H  H36  1  0.69573876  0.32788849  0.46354836  1  0.074031  0  0.097473  0.099144  0  1.020647  0
H  H37  1  0.46354955  0.69574034  0.32788995  1  0.074085  0  0.097459  0.099113  0  1.020662  0
H  H38  1  0.99001057  0.27734109  0.39776263  1  0.091544  0  0.102461  0.118428  0  1.039018  0
H  H39  1  0.39776534  0.99000982  0.27733636  1  0.090216  0  0.10245  0.118397  0  1.03899  0
H  H40  1  0.27734450  0.39776007  0.99001379  1  0.091552  0  0.102473  0.118481  0  1.039035  0
H  H41  1  0.00998454  0.72265786  0.60224134  1  0.091613  0  0.102484  0.118483  0  1.039006  0
H  H42  1  0.60223502  0.00999114  0.72266272  1  0.090236  0  0.102455  0.118427  0  1.039011  0
H  H43  1  0.72266227  0.60223538  0.00998999  1  0.091513  0  0.102447  0.118407  0  1.03902  0
H  H44  1  0.98592372  0.34944472  0.16252450  1  0.097521  0  0.10138  0.117954  0  1.038578  0
H  H45  1  0.16252871  0.98592148  0.34944503  1  0.097781  0  0.101415  0.117985  0  1.038711  0
H  H46  1  0.34944865  0.16252007  0.98592109  1  0.097869  0  0.101373  0.117898  0  1.038659  0
H  H47  1  0.01407955  0.65055172  0.83748033  1  0.097876  0  0.10137  0.117884  0  1.038621  0
H  H48  1  0.83747048  0.01407942  0.65055225  1  0.097886  0  0.101425  0.11798  0  1.038668  0
H  H49  1  0.65055755  0.83747361  0.01407676  1  0.09757  0  0.101379  0.118001  0  1.038621  0
H  H50  1  0.75168005  0.07382802  0.20039600  1  0.06589  0  0.109749  0.114461  0  0.974434  0
H  H51  1  0.20039646  0.75168297  0.07382704  1  0.066229  0  0.10979  0.114456  0  0.974417  0
H  H52  1  0.07382693  0.20039427  0.75168042  1  0.066282  0  0.109791  0.114486  0  0.974442  0
H  H53  1  0.24832031  0.92617236  0.79960597  1  0.066302  0  0.109764  0.11447  0  0.974392  0
H  H54  1  0.79960448  0.24831918  0.92617212  1  0.065881  0  0.109735  0.114467  0  0.974448  0
H  H55  1  0.92617285  0.79960550  0.24832033  1  0.06631  0  0.109746  0.114465  0  0.974434  0
H  H56  1  0.66641923  0.11908313  0.16340926  1  0.051661  0  0.097954  0.093681  0  0.990096  0
H  H57  1  0.16340942  0.66642191  0.11908351  1  0.051694  0  0.097944  0.093719  0  0.989988  0
H  H58  1  0.11908302  0.16340731  0.66641971  1  0.051614  0  0.097968  0.093722  0  0.990009  0
H  H59  1  0.33358055  0.88091605  0.83659204  1  0.05162  0  0.097939  0.093656  0  0.990094  0
H  H60  1  0.83659268  0.33358088  0.88091690  1  0.051616  0  0.097978  0.093723  0  0.990006  0
H  H61  1  0.88091734  0.83659306  0.33358225  1  0.051579  0  0.097966  0.093705  0  0.990046  0
H  H62  1  0.67353000  0.09241415  0.26327658  1  0.059935  0  0.098866  0.095004  0  0.990511  0
H  H63  1  0.26327710  0.67353271  0.09241440  1  0.059941  0  0.098829  0.09497  0  0.990496  0
H  H64  1  0.09241372  0.26327437  0.67352992  1  0.060222  0  0.098855  0.094991  0  0.990586  0
H  H65  1  0.32646977  0.90758562  0.73672649  1  0.060009  0  0.098865  0.094984  0  0.990577  0
H  H66  1  0.73672442  0.32647005  0.90758540  1  0.059957  0  0.098858  0.094999  0  0.990591  0
H  H67  1  0.90758547  0.73672479  0.32647077  1  0.060175  0  0.098831  0.094936  0  0.990572  0
H  H68  1  0.81744620  0.38336355  0.03764216  1  0.071742  0  0.107133  0.109295  0  0.991207  0
H  H69  1  0.03764656  0.81744541  0.38336420  1  0.072221  0  0.107144  0.109261  0  0.991274  0
H  H70  1  0.38336434  0.03764078  0.81744730  1  0.071726  0  0.107128  0.109288  0  0.99124  0
H  H71  1  0.18255532  0.61663688  0.96235870  1  0.071698  0  0.107122  0.109263  0  0.991213  0
H  H72  1  0.96235264  0.18255316  0.61663472  1  0.072258  0  0.107129  0.109269  0  0.991294  0
H  H73  1  0.61663660  0.96235671  0.18255223  1  0.071791  0  0.107115  0.109243  0  0.991237  0
H  H74  1  0.89689763  0.32254653  0.05969229  1  0.04761  0  0.100097  0.096627  0  0.988483  0
H  H75  1  0.05969795  0.89689688  0.32254553  1  0.047982  0  0.100076  0.096595  0  0.988475  0
H  H76  1  0.32254651  0.05969222  0.89689810  1  0.047596  0  0.100087  0.096615  0  0.988495  0
H  H77  1  0.10310390  0.67745449  0.94030743  1  0.047611  0  0.100115  0.096654  0  0.988446  0
H  H78  1  0.94030008  0.10310338  0.67745283  1  0.047982  0  0.100093  0.096636  0  0.988461  0
H  H79  1  0.67745443  0.94030469  0.10310140  1  0.047889  0  0.100086  0.096627  0  0.988457  0
H  H80  1  0.90408574  0.42439687  0.08909019  1  0.03037  0  0.099332  0.094663  0  0.98826  0
H  H81  1  0.08909394  0.90408497  0.42439652  1  0.030242  0  0.099346  0.09468  0  0.988237  0
H  H82  1  0.42439536  0.08909181  0.90408520  1  0.030333  0  0.099347  0.094688  0  0.988301  0
H  H83  1  0.09591637  0.57560417  0.91090840  1  0.030287  0  0.09935  0.094719  0  0.988178  0
H  H84  1  0.91090468  0.09591415  0.57560181  1  0.030166  0  0.099341  0.094672  0  0.988312  0
H  H85  1  0.57560384  0.91090735  0.09591200  1  0.030234  0  0.099327  0.094617  0  0.988266  0
H  H86  1  0.82654634  0.24685197  0.51953348  1  0.095259  0  0.106633  0.118925  0  1.016066  0
H  H87  1  0.51953783  0.82654924  0.24685270  1  0.095141  0  0.106641  0.118936  0  1.016023  0
H  H88  1  0.24685383  0.51953211  0.82654770  1  0.095297  0  0.106672  0.12127  0  1.013497  0
H  H89  1  0.17345227  0.75314716  0.48046776  1  0.095309  0  0.106644  0.12121  0  1.013474  0
H  H90  1  0.48046136  0.17345224  0.75314868  1  0.095172  0  0.106626  0.118924  0  1.016062  0
H  H91  1  0.75314712  0.48046305  0.17345056  1  0.09526  0  0.106626  0.118932  0  1.016002  0
H  H92  1  0.91360635  0.30464885  0.50401339  1  0.033356  0  0.097867  0.09514  0  0.981284  0
H  H93  1  0.50401630  0.91360886  0.30465005  1  0.033275  0  0.097861  0.095123  0  0.981318  0
H  H94  1  0.30464978  0.50401411  0.91360751  1  0.033266  0  0.097871  0.095123  0  0.981642  0
H  H95  1  0.08639110  0.69535021  0.49598604  1  0.033248  0  0.097863  0.095103  0  0.981606  0
H  H96  1  0.49598231  0.08639143  0.69535241  1  0.033281  0  0.097841  0.095108  0  0.981301  0
H  H97  1  0.69535000  0.49598566  0.08639033  1  0.033225  0  0.09789  0.095185  0  0.981221  0
H  H98  1  0.90228663  0.20569921  0.46490120  1  0.03756  0  0.095849  0.089636  0  0.99684  0
H  H99  1  0.46490302  0.90228705  0.20570069  1  0.037602  0  0.095855  0.089595  0  0.996953  0
H  H100  1  0.20570029  0.46490388  0.90228844  1  0.03756  0  0.095836  0.089532  0  0.997335  0
H  H101  1  0.09771023  0.79430158  0.53509596  1  0.037514  0  0.09583  0.089526  0  0.997244  0
H  H102  1  0.53509734  0.09771449  0.79430075  1  0.037548  0  0.09586  0.089628  0  0.996865  0
H  H103  1  0.79430007  0.53509649  0.09771120  1  0.037551  0  0.095834  0.08959  0  0.996949  0
C  C104  1  0.49694601  0.30252359  0.28750519  1  1.561156  0  0.225064  0.606744  0  4.14884  0
C  C105  1  0.28750376  0.49694571  0.30251684  1  1.56105  0  0.225021  0.606755  0  4.149115  0
C  C106  1  0.30251837  0.28750739  0.49694642  1  1.561065  0  0.225147  0.60696  0  4.148806  0
C  C107  1  0.50305144  0.69747780  0.71249494  1  1.561109  0  0.225129  0.606752  0  4.148834  0
C  C108  1  0.71249835  0.50305476  0.69747765  1  1.561094  0  0.225127  0.606835  0  4.148723  0
C  C109  1  0.69748257  0.71249708  0.50305577  1  1.561055  0  0.225028  0.606739  0  4.14924  0
C  C110  1  0.70334042  0.24814219  0.25782418  1  0.433521  0  0.085392  0.224244  0  4.055807  0
C  C111  1  0.25782463  0.70334224  0.24814146  1  0.433949  0  0.085439  0.224224  0  4.055743  0
C  C112  1  0.24814315  0.25782600  0.70334210  1  0.433526  0  0.085455  0.224309  0  4.055653  0
C  C113  1  0.29665878  0.75185638  0.74217474  1  0.433559  0  0.085412  0.22426  0  4.055509  0
C  C114  1  0.74217573  0.29666047  0.75185713  1  0.433548  0  0.085347  0.224227  0  4.05583  0
C  C115  1  0.75185604  0.74217723  0.29665820  1  0.43397  0  0.085359  0.224188  0  4.055686  0
C  C116  1  0.62213662  0.24322315  0.25914328  1  0.025602  0  -0.120209  -0.269456  0  4.024388  0
C  C117  1  0.25914278  0.62213764  0.24321972  1  0.025701  0  -0.120255  -0.269449  0  4.024267  0
C  C118  1  0.24322043  0.25914412  0.62213683  1  0.025615  0  -0.120265  -0.269469  0  4.024248  0
C  C119  1  0.37786374  0.75677722  0.74085694  1  0.025625  0  -0.120241  -0.269499  0  4.024337  0
C  C120  1  0.74085933  0.37786340  0.75677770  1  0.025608  0  -0.12025  -0.269473  0  4.024563  0
C  C121  1  0.75677993  0.74085916  0.37786353  1  0.025667  0  -0.120254  -0.269433  0  4.024293  0
C  C122  1  0.62414882  0.37926968  0.30683198  1  -0.036698  0  -0.114097  -0.257796  0  3.994729  0
C  C123  1  0.30682994  0.62414932  0.37926668  1  -0.036758  0  -0.114072  -0.257764  0  3.994794  0
C  C124  1  0.37926679  0.30683094  0.62414823  1  -0.036793  0  -0.114067  -0.257689  0  3.994922  0
C  C125  1  0.37584921  0.62073174  0.69316702  1  -0.036755  0  -0.114094  -0.257856  0  3.994929  0
C  C126  1  0.69317101  0.37585283  0.62073017  1  -0.036704  0  -0.114095  -0.257775  0  3.994751  0
C  C127  1  0.62073357  0.69317176  0.37585210  1  -0.036754  0  -0.114067  -0.257747  0  3.994879  0
C  C128  1  0.74595509  0.31816129  0.27997204  1  0.033821  0  -0.016665  -0.099963  0  3.97642  0
C  C129  1  0.27997245  0.74595503  0.31815961  1  0.03334  0  -0.016662  -0.099946  0  3.976468  0
C  C130  1  0.31816048  0.27997243  0.74595578  1  0.033774  0  -0.016632  -0.099882  0  3.97647  0
C  C131  1  0.25404236  0.68183952  0.72002573  1  0.033746  0  -0.016616  -0.099912  0  3.976446  0
C  C132  1  0.72002558  0.25404756  0.68183886  1  0.033865  0  -0.016514  -0.099768  0  3.976414  0
C  C133  1  0.68183929  0.72002849  0.25404502  1  0.033344  0  -0.016643  -0.099939  0  3.97655  0
C  C134  1  0.70549840  0.38365171  0.30408047  1  0.450695  0  0.08754  0.22144  0  4.063099  0
C  C135  1  0.30407983  0.70549752  0.38365190  1  0.450691  0  0.087503  0.221352  0  4.063272  0
C  C136  1  0.38365145  0.30408085  0.70549692  1  0.450701  0  0.087457  0.221306  0  4.063203  0
C  C137  1  0.29450021  0.61634858  0.69591792  1  0.450684  0  0.08751  0.221356  0  4.063405  0
C  C138  1  0.69591820  0.29450273  0.61634762  1  0.450626  0  0.087519  0.221397  0  4.063314  0
C  C139  1  0.61634774  0.69592063  0.29450330  1  0.450665  0  0.087516  0.221357  0  4.063214  0
C  C140  1  0.58341434  0.30894342  0.28416818  1  0.007585  0  -0.023446  0.001975  0  4.046898  0
C  C141  1  0.28416886  0.58341380  0.30894189  1  0.007634  0  -0.023425  0.001948  0  4.046884  0
C  C142  1  0.30894275  0.28417089  0.58341404  1  0.007682  0  -0.023503  0.00174  0  4.04716  0
C  C143  1  0.41658544  0.69105692  0.71583026  1  0.007632  0  -0.023407  0.002044  0  4.047026  0
C  C144  1  0.71583500  0.41658675  0.69105676  1  0.007673  0  -0.023457  0.00191  0  4.047031  0
C  C145  1  0.69105586  0.71583172  0.41658737  1  0.007681  0  -0.023454  0.001886  0  4.047067  0
C  C146  1  0.71245349  0.51734799  0.35023930  1  0.392226  0  -0.140679  -0.174896  0  3.910498  0
C  C147  1  0.35023730  0.71245515  0.51734519  1  0.392141  0  -0.140641  -0.174877  0  3.910554  0
C  C148  1  0.51734599  0.35023901  0.71245166  1  0.391858  0  -0.140633  -0.174809  0  3.9104  0
C  C149  1  0.28754512  0.48265288  0.64976202  1  0.392108  0  -0.140669  -0.174868  0  3.910634  0
C  C150  1  0.64976073  0.28754744  0.48265270  1  0.391928  0  -0.14067  -0.17485  0  3.910548  0
C  C151  1  0.48265496  0.64976198  0.28754746  1  0.391886  0  -0.140653  -0.174916  0  3.910546  0
C  C152  1  0.83224243  0.32043384  0.28043871  1  0.131287  0  -0.018378  -0.09636  0  3.978761  0
C  C153  1  0.28044176  0.83224105  0.32043214  1  0.131277  0  -0.018322  -0.096286  0  3.9787  0
C  C154  1  0.32043386  0.28043920  0.83224225  1  0.131347  0  -0.018343  -0.096376  0  3.978771  0
C  C155  1  0.16775793  0.67956712  0.71956154  1  0.131426  0  -0.01836  -0.096303  0  3.978761  0
C  C156  1  0.71955511  0.16776090  0.67956508  1  0.131162  0  -0.01842  -0.096374  0  3.978521  0
C  C157  1  0.67956650  0.71955943  0.16775847  1  0.131209  0  -0.018374  -0.096366  0  3.978708  0
C  C158  1  0.99438609  0.31256251  0.27995443  1  -0.011761  0  -0.024201  0.005467  0  4.042374  0
C  C159  1  0.27995657  0.99438545  0.31256039  1  -0.011772  0  -0.024231  0.005481  0  4.042293  0
C  C160  1  0.31256924  0.27995047  0.99439061  1  -0.011422  0  -0.024318  0.005168  0  4.04294  0
C  C161  1  0.00561136  0.68743131  0.72005115  1  -0.011386  0  -0.024195  0.005439  0  4.042714  0
C  C162  1  0.72004204  0.00561601  0.68743805  1  -0.011911  0  -0.024251  0.005415  0  4.042505  0
C  C163  1  0.68743870  0.72004562  0.00561326  1  -0.011586  0  -0.024216  0.00548  0  4.042224  0
C  C164  1  0.87514705  0.30025048  0.34757423  1  0.466771  0  0.087561  0.228055  0  4.054838  0
C  C165  1  0.34757846  0.87514565  0.30024970  1  0.46669  0  0.087423  0.227824  0  4.055049  0
C  C166  1  0.30025177  0.34757299  0.87514813  1  0.466849  0  0.087535  0.228052  0  4.054604  0
C  C167  1  0.12485098  0.69974978  0.65242761  1  0.466733  0  0.087521  0.227965  0  4.054691  0
C  C168  1  0.65242073  0.12485583  0.69974819  1  0.466292  0  0.087446  0.22798  0  4.054791  0
C  C169  1  0.69974976  0.65242453  0.12485433  1  0.466723  0  0.08752  0.227984  0  4.054842  0
C  C170  1  0.95598181  0.29507819  0.34738518  1  0.039238  0  -0.117085  -0.259347  0  4.007652  0
C  C171  1  0.34738734  0.95598162  0.29507619  1  0.040628  0  -0.117052  -0.259245  0  4.007596  0
C  C172  1  0.29508231  0.34738363  0.95598746  1  0.039019  0  -0.117074  -0.25931  0  4.007508  0
C  C173  1  0.04401214  0.70491953  0.65261693  1  0.038952  0  -0.117146  -0.259414  0  4.00759  0
C  C174  1  0.65260952  0.04402033  0.70492277  1  0.040509  0  -0.117114  -0.259382  0  4.007558  0
C  C175  1  0.70492388  0.65261296  0.04401693  1  0.039276  0  -0.117085  -0.259312  0  4.007404  0
C  C176  1  0.95358982  0.33568817  0.21330726  1  -0.040546  0  -0.118625  -0.262686  0  4.010648  0
C  C177  1  0.21330962  0.95359009  0.33568663  1  -0.040777  0  -0.118702  -0.262803  0  4.010809  0
C  C178  1  0.33569288  0.21330739  0.95359007  1  -0.041026  0  -0.118582  -0.26256  0  4.010719  0
C  C179  1  0.04641113  0.66430874  0.78669399  1  -0.041118  0  -0.118617  -0.262617  0  4.010794  0
C  C180  1  0.78668608  0.04641238  0.66431056  1  -0.040601  0  -0.11865  -0.262689  0  4.011033  0
C  C181  1  0.66431331  0.78669037  0.04641031  1  -0.040668  0  -0.118662  -0.26282  0  4.010717  0
C  C182  1  0.87242166  0.33801456  0.21370833  1  0.425121  0  0.083928  0.22263  0  4.050562  0
C  C183  1  0.21371174  0.87242247  0.33801288  1  0.425151  0  0.084037  0.222766  0  4.050373  0
C  C184  1  0.33801531  0.21370675  0.87242041  1  0.425125  0  0.083957  0.222753  0  4.050221  0
C  C185  1  0.12757928  0.66198642  0.78629195  1  0.425116  0  0.083958  0.222692  0  4.050424  0
C  C186  1  0.78628571  0.12757893  0.66198317  1  0.425137  0  0.083997  0.222671  0  4.050379  0
C  C187  1  0.66198622  0.78628845  0.12757904  1  0.425149  0  0.084032  0.222808  0  4.050289  0
C  C188  1  0.70657152  0.11433787  0.21470258  1  0.379715  0  -0.135121  -0.173944  0  3.957311  0
C  C189  1  0.21470335  0.70657365  0.11433730  1  0.379352  0  -0.135094  -0.173943  0  3.957166  0
C  C190  1  0.11433575  0.21470076  0.70657119  1  0.379042  0  -0.135149  -0.174014  0  3.957264  0
C  C191  1  0.29342942  0.88566370  0.78529947  1  0.379195  0  -0.135106  -0.173912  0  3.957269  0
C  C192  1  0.78529817  0.29342853  0.88566190  1  0.379748  0  -0.13513  -0.173979  0  3.957379  0
C  C193  1  0.88566344  0.78530014  0.29343016  1  0.379068  0  -0.135081  -0.173887  0  3.957162  0
C  C194  1  0.86416470  0.37231507  0.08066949  1  0.409026  0  -0.133419  -0.169924  0  3.940296  0
C  C195  1  0.08067457  0.86416261  0.37231718  1  0.408368  0  -0.133424  -0.169824  0  3.940372  0
C  C196  1  0.37231456  0.08066859  0.86416440  1  0.409054  0  -0.133465  -0.169999  0  3.940475  0
C  C197  1  0.13583799  0.62768659  0.91933032  1  0.409187  0  -0.133468  -0.170031  0  3.940278  0
C  C198  1  0.91932463  0.13583596  0.62768290  1  0.408413  0  -0.133423  -0.169859  0  3.94044  0
C  C199  1  0.62768580  0.91932829  0.13583449  1  0.408977  0  -0.133411  -0.169816  0  3.940258  0
C  C200  1  0.87154976  0.25915021  0.47832401  1  0.401909  0  -0.138227  -0.169317  0  3.907964  0
C  C201  1  0.47832700  0.87155044  0.25915185  1  0.402066  0  -0.138199  -0.1693  0  3.908125  0
C  C202  1  0.25915065  0.47832456  0.87155223  1  0.401922  0  -0.13827  -0.17117  0  3.907231  0
C  C203  1  0.12844711  0.74084999  0.52167545  1  0.401958  0  -0.138233  -0.171053  0  3.907008  0
C  C204  1  0.52167278  0.12845107  0.74084956  1  0.402059  0  -0.138191  -0.169343  0  3.908108  0
C  C205  1  0.74084913  0.52167404  0.12844729  1  0.402028  0  -0.138235  -0.169329  0  3.907982  0
C  C206  1  0.08017733  0.30353880  0.27879593  1  1.566354  0  0.225516  0.608829  0  4.139424  0
C  C207  1  0.27879829  0.08017648  0.30353566  1  1.565879  0  0.225548  0.608817  0  4.139126  0
C  C208  1  0.30354744  0.27879427  0.08017570  1  1.567164  0  0.225482  0.608711  0  4.139514  0
C  C209  1  0.91982303  0.69645400  0.72120683  1  1.567159  0  0.225432  0.608582  0  4.139673  0
C  C210  1  0.72120033  0.91982439  0.69646159  1  1.566224  0  0.225504  0.608819  0  4.139353  0
C  C211  1  0.69646225  0.72120308  0.91982540  1  1.566233  0  0.225527  0.608861  0  4.139436  0
O  O212  1  0.46249140  0.24011340  0.25723741  1  -1.182378  0  -0.319865  -0.549631  0  2.340324  0
O  O213  1  0.25724440  0.46249232  0.24011070  1  -1.18248  0  -0.319779  -0.549598  0  2.340737  0
O  O214  1  0.24011085  0.25725076  0.46249088  1  -1.182396  0  -0.319811  -0.549616  0  2.340539  0
O  O215  1  0.53750897  0.75988465  0.74276095  1  -1.182361  0  -0.319902  -0.549602  0  2.340433  0
O  O216  1  0.74276354  0.53750902  0.75988760  1  -1.18241  0  -0.319859  -0.549636  0  2.340308  0
O  O217  1  0.75988717  0.74275474  0.53750889  1  -1.182468  0  -0.319757  -0.549523  0  2.340765  0
O  O218  1  0.75096696  0.44921209  0.32454503  1  -1.07135  0  -0.187241  -0.160647  0  2.572344  0
O  O219  1  0.32454321  0.75096598  0.44921061  1  -1.071392  0  -0.187193  -0.160678  0  2.572759  0
O  O220  1  0.44920988  0.32454545  0.75096489  1  -1.071324  0  -0.187172  -0.160592  0  2.572442  0
O  O221  1  0.24903282  0.55079058  0.67545469  1  -1.071399  0  -0.187226  -0.160681  0  2.572683  0
O  O222  1  0.67545190  0.24903647  0.55078888  1  -1.071333  0  -0.187192  -0.160588  0  2.572503  0
O  O223  1  0.55078990  0.67545431  0.24903528  1  -1.071358  0  -0.187198  -0.160543  0  2.572468  0
O  O224  1  0.83181019  0.28474290  0.41006455  1  -1.080411  0  -0.182814  -0.153761  0  2.58546  0
O  O225  1  0.41006964  0.83180999  0.28474536  1  -1.080469  0  -0.182794  -0.153619  0  2.585551  0
O  O226  1  0.28474244  0.41006445  0.83181346  1  -1.080338  0  -0.182754  -0.153861  0  2.586333  0
O  O227  1  0.16818609  0.71525902  0.58993613  1  -1.080301  0  -0.182741  -0.153872  0  2.586375  0
O  O228  1  0.58992897  0.16818971  0.71525417  1  -1.080011  0  -0.182784  -0.153637  0  2.585527  0
O  O229  1  0.71525676  0.58993237  0.16819003  1  -1.080399  0  -0.182765  -0.153718  0  2.585557  0
O  O230  1  0.74704918  0.18694809  0.23607476  1  -1.076221  0  -0.186582  -0.154091  0  2.570296  0
O  O231  1  0.23607368  0.74705103  0.18694711  1  -1.0763  0  -0.18663  -0.154087  0  2.570321  0
O  O232  1  0.18694695  0.23607413  0.74705005  1  -1.076184  0  -0.186629  -0.154107  0  2.570169  0
O  O233  1  0.25295118  0.81305403  0.76392729  1  -1.076165  0  -0.186652  -0.154128  0  2.570115  0
O  O234  1  0.76392668  0.25295226  0.81305092  1  -1.076249  0  -0.186558  -0.154126  0  2.570341  0
O  O235  1  0.81305224  0.76392968  0.25295086  1  -1.076178  0  -0.186593  -0.154103  0  2.570078  0
O  O236  1  0.82628801  0.35575592  0.15035961  1  -1.07491  0  -0.186205  -0.161918  0  2.588971  0
O  O237  1  0.15036238  0.82628669  0.35575774  1  -1.074911  0  -0.186243  -0.162173  0  2.589353  0
O  O238  1  0.35575433  0.15035607  0.82628673  1  -1.074921  0  -0.186192  -0.161912  0  2.588829  0
O  O239  1  0.17371467  0.64424690  0.84964259  1  -1.074946  0  -0.186193  -0.161998  0  2.589188  0
O  O240  1  0.84963682  0.17371479  0.64423957  1  -1.074875  0  -0.186252  -0.162084  0  2.588946  0
O  O241  1  0.64424312  0.84964009  0.17371082  1  -1.075009  0  -0.186232  -0.162011  0  2.588822  0
O  O242  1  0.46385264  0.35941432  0.32080618  1  -1.177143  0  -0.319589  -0.547733  0  2.321521  0
O  O243  1  0.32080252  0.46385106  0.35941428  1  -1.177137  0  -0.319603  -0.547762  0  2.32134  0
O  O244  1  0.35941556  0.32080743  0.46385127  1  -1.177096  0  -0.319653  -0.547835  0  2.321268  0
O  O245  1  0.53614773  0.64058606  0.67919229  1  -1.17723  0  -0.319648  -0.547782  0  2.321345  0
O  O246  1  0.67919959  0.53615115  0.64058553  1  -1.177288  0  -0.319632  -0.547771  0  2.321508  0
O  O247  1  0.64058304  0.67919694  0.53614789  1  -1.177047  0  -0.319631  -0.547789  0  2.32131  0
O  O248  1  0.28789866  0.28789541  0.28789687  1  -1.231246  0  -0.577686  -1.029375  0  2.565044  0
O  O249  1  0.71210286  0.71210327  0.71210623  1  -1.231357  0  -0.577677  -1.029375  0  2.565046  0
O  O250  1  0.11022339  0.26382372  0.33249550  1  -1.184296  0  -0.318551  -0.547064  0  2.343017  0
O  O251  1  0.33250404  0.11022327  0.26381891  1  -1.184446  0  -0.318586  -0.54712  0  2.342716  0
O  O252  1  0.26383351  0.33248540  0.11022668  1  -1.184965  0  -0.318558  -0.546966  0  2.343314  0
O  O253  1  0.88977230  0.73616885  0.66751750  1  -1.184879  0  -0.318459  -0.546881  0  2.343419  0
O  O254  1  0.66749690  0.88977830  0.73617790  1  -1.184405  0  -0.318539  -0.547032  0  2.342787  0
O  O255  1  0.73617735  0.66750269  0.88977694  1  -1.184361  0  -0.318556  -0.54711  0  2.343079  0
O  O256  1  0.11668182  0.33506902  0.22421184  1  -1.172778  0  -0.319487  -0.549646  0  2.318016  0
O  O257  1  0.22421525  0.11668051  0.33506212  1  -1.172051  0  -0.319469  -0.549559  0  2.318151  0
O  O258  1  0.33508468  0.22420495  0.11667950  1  -1.17287  0  -0.319492  -0.549583  0  2.317727  0
O  O259  1  0.88332088  0.66491458  0.77579583  1  -1.172911  0  -0.319533  -0.549604  0  2.317738  0
O  O260  1  0.77578220  0.88332147  0.66493338  1  -1.172453  0  -0.319394  -0.549593  0  2.318295  0
O  O261  1  0.66493201  0.77578750  0.88332170  1  -1.17251  0  -0.31946  -0.549589  0  2.318077  0
