# generated using pymatgen
data_AgH14C15S(NO)3
_symmetry_space_group_name_H-M   'P 1'
_cell_length_a   6.73964334
_cell_length_b   9.04816742
_cell_length_c   24.24319162
_cell_angle_alpha   88.99619029
_cell_angle_beta   89.99923119
_cell_angle_gamma   89.99948740
_symmetry_Int_Tables_number   1
_chemical_formula_structural   AgH14C15S(NO)3
_chemical_formula_sum   'Ag4 H56 C60 S4 N12 O12'
_cell_volume   1478.15739659
_cell_formula_units_Z   4
loop_
 _symmetry_equiv_pos_site_id
 _symmetry_equiv_pos_as_xyz
  1  'x, y, z'
loop_
 _atom_site_type_symbol
 _atom_site_label
 _atom_site_symmetry_multiplicity
 _atom_site_fract_x
 _atom_site_fract_y
 _atom_site_fract_z
 _atom_site_occupancy
 _atom_site_hle17_bader_spin_density
 _atom_site_hle17_ddec_charge
 _atom_site_hle17_ddec_spin_density
 _atom_site_hle17_ddec_sum_bond_order
 _atom_site_hle17_magmom
 _atom_site_hse06_10hf_bader_spin_density
 _atom_site_hse06_10hf_ddec_charge
 _atom_site_hse06_10hf_ddec_spin_density
 _atom_site_hse06_10hf_ddec_sum_bond_order
 _atom_site_hse06_10hf_magmom
 _atom_site_hse06_bader_spin_density
 _atom_site_hse06_ddec_charge
 _atom_site_hse06_ddec_spin_density
 _atom_site_hse06_ddec_sum_bond_order
 _atom_site_hse06_magmom
 _atom_site_pbe_bader_spin_density
 _atom_site_pbe_cm5_charge
 _atom_site_pbe_ddec_charge
 _atom_site_pbe_ddec_spin_density
 _atom_site_pbe_ddec_sum_bond_order
 _atom_site_pbe_magmom
Ag  Ag0  1  0.89803355  0.93877702  0.66184505  1  0  0.565349  0  1.286524  0  0  0.429008  0  1.695629  0  0  0.45791  0  1.653169  0  0  0.476283  0.409295  0  1.724373  0
Ag  Ag1  1  0.39801697  0.06121603  0.83815373  1  0  0.565363  0  1.286444  0  0  0.429018  0  1.695545  0  0  0.457888  0  1.653138  0  0  0.476308  0.409305  0  1.724294  0
Ag  Ag2  1  0.10198804  0.06122829  0.33815559  1  0  0.565358  0  1.286514  0  0  0.429043  0  1.695556  0  0  0.45796  0  1.653066  0  0  0.476319  0.409324  0  1.724306  0
Ag  Ag3  1  0.60197940  0.93877609  0.16184446  1  0  0.565362  0  1.286514  0  0  0.429019  0  1.695634  0  0  0.457916  0  1.653175  0  0  0.476306  0.409304  0  1.724378  0
H  H4  1  0.22969662  0.26075466  0.90725943  1  0  0.094491  0  0.978445  0  0  0.101364  0  1.049769  0  0  0.105162  0  1.045874  0  0  0.09816  0.098362  0  1.053215  0
H  H5  1  0.72972184  0.73924942  0.59274078  1  0  0.094507  0  0.978742  0  0  0.101388  0  1.050029  0  0  0.105184  0  1.046135  0  0  0.098198  0.098383  0  1.053476  0
H  H6  1  0.77028788  0.73923069  0.09274290  1  0  0.094531  0  0.978477  0  0  0.101423  0  1.049761  0  0  0.105217  0  1.045869  0  0  0.098199  0.098422  0  1.053203  0
H  H7  1  0.27028343  0.26076133  0.40726232  1  0  0.094521  0  0.978645  0  0  0.101398  0  1.049955  0  0  0.105191  0  1.046065  0  0  0.098165  0.098394  0  1.053402  0
H  H8  1  0.44932270  0.47824992  0.90657415  1  0  0.10208  0  0.959426  0  0  0.108205  0  1.026978  0  0  0.111765  0  1.024931  0  0  0.102251  0.105565  0  1.028428  0
H  H9  1  0.94935936  0.52175403  0.59341864  1  0  0.101986  0  0.959367  0  0  0.10819  0  1.026841  0  0  0.111752  0  1.02479  0  0  0.102167  0.105542  0  1.028301  0
H  H10  1  0.55066773  0.52173529  0.09343272  1  0  0.102114  0  0.959311  0  0  0.108159  0  1.026952  0  0  0.111719  0  1.024907  0  0  0.10224  0.105516  0  1.028401  0
H  H11  1  0.05065333  0.47826128  0.40657991  1  0  0.10215  0  0.959311  0  0  0.108225  0  1.026902  0  0  0.111786  0  1.024853  0  0  0.102224  0.105581  0  1.028359  0
H  H12  1  0.34787505  0.70919335  0.85530600  1  0  0.076552  0  0.997634  0  0  0.083077  0  1.07162  0  0  0.08597  0  1.070127  0  0  0.092474  0.081429  0  1.072366  0
H  H13  1  0.84789271  0.29080693  0.64468470  1  0  0.076758  0  0.997699  0  0  0.083199  0  1.071744  0  0  0.086092  0  1.070256  0  0  0.092514  0.08155  0  1.072491  0
H  H14  1  0.65213318  0.29078863  0.14469798  1  0  0.076645  0  0.997828  0  0  0.083201  0  1.071746  0  0  0.086093  0  1.070256  0  0  0.092497  0.081551  0  1.072493  0
H  H15  1  0.15212443  0.70920511  0.35531262  1  0  0.076691  0  0.997745  0  0  0.083151  0  1.071795  0  0  0.086042  0  1.070308  0  0  0.092504  0.081505  0  1.072538  0
H  H16  1  0.10894151  0.84791326  0.80157815  1  0  0.100846  0  0.971063  0  0  0.108854  0  1.045972  0  0  0.113089  0  1.041917  0  0  0.095416  0.105963  0  1.047932  0
H  H17  1  0.60895972  0.15208955  0.69841797  1  0  0.100919  0  0.970954  0  0  0.108878  0  1.04593  0  0  0.113105  0  1.041886  0  0  0.095442  0.105993  0  1.047887  0
H  H18  1  0.89108305  0.15208424  0.19842456  1  0  0.100895  0  0.970921  0  0  0.108867  0  1.045932  0  0  0.113104  0  1.041866  0  0  0.095419  0.105982  0  1.047877  0
H  H19  1  0.39106187  0.84791147  0.30157855  1  0  0.100914  0  0.97098  0  0  0.108868  0  1.045961  0  0  0.1131  0  1.041905  0  0  0.095423  0.105977  0  1.047925  0
H  H20  1  0.55679839  0.64682953  0.75428771  1  0  0.107672  0  0.981805  0  0  0.117099  0  1.043364  0  0  0.119657  0  1.043487  0  0  0.101295  0.115217  0  1.043256  0
H  H21  1  0.05681542  0.35317909  0.74571024  1  0  0.107746  0  0.981873  0  0  0.117157  0  1.043446  0  0  0.119714  0  1.043571  0  0  0.101296  0.115273  0  1.043339  0
H  H22  1  0.44321133  0.35318569  0.24571373  1  0  0.107579  0  0.98197  0  0  0.117024  0  1.043512  0  0  0.119585  0  1.04363  0  0  0.101247  0.115142  0  1.043404  0
H  H23  1  0.94320172  0.64680866  0.25428630  1  0  0.107623  0  0.981915  0  0  0.117096  0  1.043467  0  0  0.119667  0  1.04356  0  0  0.101278  0.115211  0  1.043367  0
H  H24  1  0.65050092  0.41532116  0.80145164  1  0  0.107003  0  0.967899  0  0  0.115784  0  1.030303  0  0  0.118354  0  1.02977  0  0  0.103198  0.113779  0  1.030889  0
H  H25  1  0.15052488  0.58468891  0.69855051  1  0  0.106932  0  0.96814  0  0  0.115754  0  1.030495  0  0  0.118314  0  1.029972  0  0  0.103204  0.113754  0  1.031079  0
H  H26  1  0.34949248  0.58469076  0.19854940  1  0  0.107029  0  0.967966  0  0  0.115828  0  1.030378  0  0  0.118396  0  1.029843  0  0  0.103237  0.113824  0  1.030962  0
H  H27  1  0.84948187  0.41530093  0.30144975  1  0  0.107044  0  0.967932  0  0  0.115852  0  1.030318  0  0  0.118414  0  1.029792  0  0  0.10325  0.11385  0  1.030903  0
H  H28  1  0.22983190  0.14870837  0.61425213  1  0  0.094941  0  0.95463  0  0  0.100584  0  1.023751  0  0  0.10283  0  1.02309  0  0  0.114565  0.098869  0  1.024276  0
H  H29  1  0.72978687  0.85127142  0.88574731  1  0  0.094766  0  0.954631  0  0  0.100461  0  1.023693  0  0  0.10271  0  1.023033  0  0  0.11448  0.098745  0  1.024216  0
H  H30  1  0.77018524  0.85130681  0.38575055  1  0  0.094931  0  0.954564  0  0  0.100524  0  1.023712  0  0  0.102769  0  1.023052  0  0  0.114522  0.098809  0  1.024238  0
H  H31  1  0.27018131  0.14872272  0.11425665  1  0  0.094986  0  0.954591  0  0  0.100543  0  1.023783  0  0  0.10279  0  1.023121  0  0  0.114558  0.098828  0  1.024305  0
H  H32  1  0.73148778  0.18671057  0.47017748  1  0  0.091589  0  0.95693  0  0  0.098347  0  1.020197  0  0  0.101331  0  1.018153  0  0  0.114497  0.09606  0  1.021745  0
H  H33  1  0.23144144  0.81330715  0.02982741  1  0  0.091388  0  0.957017  0  0  0.098137  0  1.020297  0  0  0.101121  0  1.018254  0  0  0.114412  0.095857  0  1.021838  0
H  H34  1  0.26852639  0.81330225  0.52982974  1  0  0.091528  0  0.956882  0  0  0.098228  0  1.020216  0  0  0.101219  0  1.018174  0  0  0.114426  0.095948  0  1.021768  0
H  H35  1  0.76851487  0.18668618  0.97016747  1  0  0.091514  0  0.956824  0  0  0.098211  0  1.020171  0  0  0.101208  0  1.018125  0  0  0.114386  0.095924  0  1.021718  0
H  H36  1  0.68184619  0.01683814  0.55321547  1  0  0.109329  0  0.951371  0  0  0.121815  0  1.007466  0  0  0.12456  0  1.005599  0  0  0.120407  0.119592  0  1.009253  0
H  H37  1  0.18180459  0.98316854  0.94678244  1  0  0.109311  0  0.951341  0  0  0.121842  0  1.007379  0  0  0.124585  0  1.005513  0  0  0.120379  0.119582  0  1.009211  0
H  H38  1  0.31817837  0.98315943  0.44678518  1  0  0.109336  0  0.951327  0  0  0.121848  0  1.007378  0  0  0.124591  0  1.005513  0  0  0.120405  0.119624  0  1.009168  0
H  H39  1  0.81816062  0.01683474  0.05321242  1  0  0.109424  0  0.951275  0  0  0.121922  0  1.007349  0  0  0.124666  0  1.005481  0  0  0.120442  0.11968  0  1.009159  0
H  H40  1  0.35704487  0.38312489  0.49367697  1  0  0.125951  0  0.956581  0  0  0.148849  0  1.014144  0  0  0.149426  0  1.015018  0  0  0.097346  0.148424  0  1.013599  0
H  H41  1  0.85700297  0.61687438  0.00632543  1  0  0.125827  0  0.956803  0  0  0.148786  0  1.014302  0  0  0.149364  0  1.015176  0  0  0.097284  0.148362  0  1.013754  0
H  H42  1  0.64295446  0.61688922  0.50632489  1  0  0.125907  0  0.956593  0  0  0.148809  0  1.014155  0  0  0.149386  0  1.015029  0  0  0.097319  0.148384  0  1.013608  0
H  H43  1  0.14294146  0.38310553  0.99367401  1  0  0.125862  0  0.956643  0  0  0.148723  0  1.01426  0  0  0.1493  0  1.015135  0  0  0.097283  0.148298  0  1.013714  0
H  H44  1  0.42962897  0.33172226  0.56260728  1  0  0.11572  0  0.965159  0  0  0.135727  0  1.026334  0  0  0.136119  0  1.028518  0  0  0.091751  0.135359  0  1.024909  0
H  H45  1  0.92959403  0.66827496  0.93739261  1  0  0.115742  0  0.965238  0  0  0.135723  0  1.02642  0  0  0.136115  0  1.028603  0  0  0.091772  0.135358  0  1.024994  0
H  H46  1  0.57036888  0.66829741  0.43739332  1  0  0.115701  0  0.965197  0  0  0.135679  0  1.026382  0  0  0.136073  0  1.028564  0  0  0.091734  0.135311  0  1.024956  0
H  H47  1  0.07036525  0.33171266  0.06260807  1  0  0.115628  0  0.965256  0  0  0.135642  0  1.0264  0  0  0.136033  0  1.028587  0  0  0.091742  0.135274  0  1.024974  0
H  H48  1  0.25887307  0.47835671  0.55048395  1  0  0.133308  0  0.934078  0  0  0.154058  0  0.995987  0  0  0.154855  0  0.996087  0  0  0.101788  0.153516  0  0.995774  0
H  H49  1  0.75884966  0.52163715  0.94951865  1  0  0.13325  0  0.934107  0  0  0.154034  0  0.99603  0  0  0.154838  0  0.99612  0  0  0.10175  0.153488  0  0.995821  0
H  H50  1  0.74113220  0.52166287  0.44951955  1  0  0.133304  0  0.934116  0  0  0.154036  0  0.996025  0  0  0.154831  0  0.996127  0  0  0.101742  0.153496  0  0.995812  0
H  H51  1  0.24111703  0.47834405  0.05047544  1  0  0.133227  0  0.934121  0  0  0.153929  0  0.996094  0  0  0.154725  0  0.996196  0  0  0.101699  0.153387  0  0.995883  0
H  H52  1  0.62104272  0.88417368  0.73359746  1  0  0.29847  0  0.947934  0  0  0.284286  0  1.009184  0  0  0.291115  0  1.00427  0  0  0.283416  0.279351  0  1.012712  0
H  H53  1  0.12105118  0.11583786  0.76639943  1  0  0.29848  0  0.947846  0  0  0.284367  0  1.009021  0  0  0.291198  0  1.004109  0  0  0.283427  0.279433  0  1.012553  0
H  H54  1  0.37897442  0.11582936  0.26640483  1  0  0.29851  0  0.947795  0  0  0.2843  0  1.009103  0  0  0.291131  0  1.004182  0  0  0.283429  0.279365  0  1.012632  0
H  H55  1  0.87895854  0.88415876  0.23359628  1  0  0.298446  0  0.947903  0  0  0.284359  0  1.009069  0  0  0.29119  0  1.004152  0  0  0.283408  0.279426  0  1.012599  0
H  H56  1  0.79774359  0.98594121  0.76521900  1  0  0.305842  0  0.958867  0  0  0.290187  0  1.022104  0  0  0.297289  0  1.016757  0  0  0.28173  0.285144  0  1.025836  0
H  H57  1  0.29775032  0.01406255  0.73477683  1  0  0.305732  0  0.959024  0  0  0.290104  0  1.022246  0  0  0.297205  0  1.016898  0  0  0.28169  0.285061  0  1.025979  0
H  H58  1  0.20227503  0.01406189  0.23478123  1  0  0.305937  0  0.958711  0  0  0.290277  0  1.021953  0  0  0.297375  0  1.016606  0  0  0.281746  0.285234  0  1.025684  0
H  H59  1  0.70226534  0.98592852  0.26521971  1  0  0.305944  0  0.95879  0  0  0.290299  0  1.022002  0  0  0.297397  0  1.016658  0  0  0.281769  0.285257  0  1.025734  0
C  C60  1  0.00386032  0.36460883  0.85773083  1  0  -0.171175  0  3.732254  0  0  -0.146539  0  3.975682  0  0  -0.153953  0  3.998123  0  0  -0.022141  -0.141565  0  3.960723  0
C  C61  1  0.50388143  0.63539797  0.64226609  1  0  -0.171282  0  3.731966  0  0  -0.14663  0  3.975367  0  0  -0.154054  0  3.997795  0  0  -0.022352  -0.141651  0  3.960399  0
C  C62  1  0.99613309  0.63539213  0.14226734  1  0  -0.170991  0  3.732144  0  0  -0.146321  0  3.975548  0  0  -0.153741  0  3.997987  0  0  -0.022065  -0.141346  0  3.960589  0
C  C63  1  0.49613126  0.36460626  0.35773331  1  0  -0.171353  0  3.732092  0  0  -0.14668  0  3.975508  0  0  -0.154114  0  3.99794  0  0  -0.02226  -0.141704  0  3.960556  0
C  C64  1  0.18325048  0.36099958  0.88528565  1  0  -0.080634  0  3.788244  0  0  -0.106363  0  4.04253  0  0  -0.104671  0  4.060422  0  0  -0.094252  -0.109981  0  4.032867  0
C  C65  1  0.68328325  0.63900263  0.61471350  1  0  -0.080405  0  3.788075  0  0  -0.106148  0  4.042354  0  0  -0.104456  0  4.060242  0  0  -0.09406  -0.109764  0  4.032692  0
C  C66  1  0.81673254  0.63899126  0.11471791  1  0  -0.080811  0  3.788426  0  0  -0.106548  0  4.042755  0  0  -0.104852  0  4.060644  0  0  -0.094341  -0.110165  0  4.033092  0
C  C67  1  0.31672944  0.36100487  0.38528754  1  0  -0.080603  0  3.788051  0  0  -0.106346  0  4.042316  0  0  -0.104652  0  4.060213  0  0  -0.094139  -0.109965  0  4.032658  0
C  C68  1  0.30813024  0.48628313  0.88500054  1  0  -0.050928  0  3.748008  0  0  -0.066186  0  4.005103  0  0  -0.06846  0  4.024798  0  0  -0.089664  -0.063662  0  3.992729  0
C  C69  1  0.80816448  0.51371829  0.61499732  1  0  -0.0509  0  3.747759  0  0  -0.066265  0  4.004895  0  0  -0.068537  0  4.024591  0  0  -0.089576  -0.063741  0  3.992528  0
C  C70  1  0.69186168  0.51370213  0.11500467  1  0  -0.050784  0  3.74776  0  0  -0.066005  0  4.004937  0  0  -0.068279  0  4.024636  0  0  -0.089633  -0.063482  0  3.992567  0
C  C71  1  0.19184821  0.48629583  0.38500413  1  0  -0.05096  0  3.747701  0  0  -0.06618  0  4.004813  0  0  -0.068455  0  4.02451  0  0  -0.089638  -0.063659  0  3.99245  0
C  C72  1  0.25091644  0.61311811  0.85726005  1  0  -0.102358  0  3.733234  0  0  -0.123142  0  3.979686  0  0  -0.124388  0  4.000131  0  0  -0.090139  -0.124641  0  3.967584  0
C  C73  1  0.75093453  0.38687933  0.64273597  1  0  -0.102518  0  3.733564  0  0  -0.123253  0  3.97993  0  0  -0.124492  0  4.000352  0  0  -0.090161  -0.124755  0  3.967836  0
C  C74  1  0.74909477  0.38686390  0.14274311  1  0  -0.102643  0  3.733509  0  0  -0.123368  0  3.979993  0  0  -0.124614  0  4.000438  0  0  -0.090186  -0.12487  0  3.967895  0
C  C75  1  0.24907371  0.61312832  0.35726054  1  0  -0.102474  0  3.733468  0  0  -0.123213  0  3.979897  0  0  -0.124457  0  4.000337  0  0  -0.090184  -0.124712  0  3.967797  0
C  C76  1  0.06541613  0.62225331  0.82967518  1  0  0.068685  0  3.803433  0  0  0.087635  0  4.025613  0  0  0.08796  0  4.050672  0  0  -0.005677  0.087764  0  4.008624  0
C  C77  1  0.56544043  0.37775291  0.67032688  1  0  0.068612  0  3.803768  0  0  0.087785  0  4.025503  0  0  0.088099  0  4.050553  0  0  -0.005719  0.087915  0  4.008525  0
C  C78  1  0.93459359  0.37774196  0.17032795  1  0  0.068889  0  3.803387  0  0  0.087709  0  4.025739  0  0  0.088027  0  4.050798  0  0  -0.005629  0.087841  0  4.008755  0
C  C79  1  0.43457077  0.62225029  0.32967046  1  0  0.068589  0  3.803491  0  0  0.087597  0  4.025562  0  0  0.087906  0  4.050612  0  0  -0.005656  0.087728  0  4.008578  0
C  C80  1  0.00808362  0.75353546  0.80129584  1  0  -0.214367  0  3.691089  0  0  -0.236507  0  3.93701  0  0  -0.242817  0  3.956863  0  0  -0.100796  -0.232367  0  3.923084  0
C  C81  1  0.50809477  0.24646142  0.69869943  1  0  -0.214443  0  3.691285  0  0  -0.236588  0  3.937129  0  0  -0.242898  0  3.956987  0  0  -0.100844  -0.232435  0  3.923171  0
C  C82  1  0.99193797  0.24646317  0.19870604  1  0  -0.214351  0  3.691306  0  0  -0.236379  0  3.937286  0  0  -0.242691  0  3.957149  0  0  -0.100737  -0.232223  0  3.923329  0
C  C83  1  0.49192683  0.75353960  0.30129667  1  0  -0.214275  0  3.691265  0  0  -0.236386  0  3.937122  0  0  -0.242699  0  3.956989  0  0  -0.100771  -0.232247  0  3.923196  0
C  C84  1  0.82935619  0.76108155  0.77346560  1  0  0.277926  0  3.807024  0  0  0.275483  0  4.046941  0  0  0.283224  0  4.070252  0  0  0.077441  0.269437  0  4.031636  0
C  C85  1  0.32937252  0.23892416  0.72653176  1  0  0.27795  0  3.807159  0  0  0.27541  0  4.047221  0  0  0.283154  0  4.070528  0  0  0.077376  0.269369  0  4.031916  0
C  C86  1  0.17065947  0.23892701  0.22653668  1  0  0.277781  0  3.807323  0  0  0.275171  0  4.047472  0  0  0.28291  0  4.070791  0  0  0.077287  0.269125  0  4.032169  0
C  C87  1  0.67065056  0.76107360  0.27346270  1  0  0.277655  0  3.807421  0  0  0.275284  0  4.047337  0  0  0.283022  0  4.070657  0  0  0.077323  0.269242  0  4.032027  0
C  C88  1  0.70037381  0.63763149  0.77463600  1  0  -0.162746  0  3.730662  0  0  -0.177283  0  3.974291  0  0  -0.182849  0  3.996902  0  0  -0.096504  -0.172396  0  3.958539  0
C  C89  1  0.20039912  0.36238268  0.72536554  1  0  -0.162806  0  3.731141  0  0  -0.177291  0  3.974816  0  0  -0.182854  0  3.997423  0  0  -0.096405  -0.172402  0  3.959062  0
C  C90  1  0.29963740  0.36238373  0.22536544  1  0  -0.162617  0  3.730659  0  0  -0.177112  0  3.974343  0  0  -0.182675  0  3.996958  0  0  -0.096402  -0.172227  0  3.958592  0
C  C91  1  0.79961654  0.63761058  0.27463141  1  0  -0.162598  0  3.730832  0  0  -0.17723  0  3.974482  0  0  -0.182794  0  3.997102  0  0  -0.096479  -0.172342  0  3.958725  0
C  C92  1  0.75278323  0.50821276  0.80152035  1  0  -0.08796  0  3.734211  0  0  -0.107277  0  3.982137  0  0  -0.107913  0  4.002405  0  0  -0.088878  -0.107269  0  3.967887  0
C  C93  1  0.25280681  0.49179563  0.69847811  1  0  -0.087796  0  3.734946  0  0  -0.107196  0  3.982858  0  0  -0.107829  0  4.003101  0  0  -0.08894  -0.107191  0  3.968615  0
C  C94  1  0.24721907  0.49179918  0.19847986  1  0  -0.088002  0  3.734372  0  0  -0.107354  0  3.98233  0  0  -0.10799  0  4.002587  0  0  -0.088951  -0.107343  0  3.968085  0
C  C95  1  0.74721033  0.50820091  0.30152007  1  0  -0.088014  0  3.734506  0  0  -0.107369  0  3.982494  0  0  -0.108015  0  4.002742  0  0  -0.088959  -0.10736  0  3.968249  0
C  C96  1  0.93656238  0.49557913  0.82973020  1  0  0.036089  0  3.775166  0  0  0.044454  0  3.998547  0  0  0.044065  0  4.023036  0  0  -0.008543  0.046662  0  3.980339  0
C  C97  1  0.43659162  0.50443014  0.67027129  1  0  0.035913  0  3.775476  0  0  0.044285  0  3.998707  0  0  0.043939  0  4.023128  0  0  -0.008496  0.046479  0  3.980521  0
C  C98  1  0.06343695  0.50442505  0.17027085  1  0  0.035956  0  3.774996  0  0  0.044336  0  3.998485  0  0  0.043969  0  4.022942  0  0  -0.008553  0.046531  0  3.980295  0
C  C99  1  0.56342701  0.49557187  0.32972853  1  0  0.036157  0  3.77503  0  0  0.044507  0  3.998413  0  0  0.044175  0  4.022818  0  0  -0.008491  0.046701  0  3.980227  0
C  C100  1  0.11509802  0.16069798  0.58279817  1  0  0.014128  0  3.634508  0  0  -0.016976  0  3.873393  0  0  -0.015288  0  3.892695  0  0  0.048536  -0.018368  0  3.860776  0
C  C101  1  0.61504866  0.83928371  0.91720045  1  0  0.014479  0  3.63416  0  0  -0.016687  0  3.872998  0  0  -0.015006  0  3.89231  0  0  0.048649  -0.018072  0  3.860375  0
C  C102  1  0.88491615  0.83931835  0.41720327  1  0  0.01424  0  3.634426  0  0  -0.016799  0  3.873325  0  0  -0.015115  0  3.892637  0  0  0.048642  -0.018187  0  3.860696  0
C  C103  1  0.38491358  0.16070276  0.08280146  1  0  0.014329  0  3.63438  0  0  -0.016737  0  3.873284  0  0  -0.01505  0  3.892589  0  0  0.048634  -0.018125  0  3.860662  0
C  C104  1  0.13510397  0.26361571  0.53913121  1  0  0.257395  0  3.724905  0  0  0.274568  0  3.96712  0  0  0.277545  0  3.988647  0  0  0.130251  0.272377  0  3.952734  0
C  C105  1  0.63505670  0.73638016  0.96086896  1  0  0.257264  0  3.725151  0  0  0.274477  0  3.967373  0  0  0.277453  0  3.98891  0  0  0.130302  0.272285  0  3.952982  0
C  C106  1  0.86490576  0.73639951  0.46087023  1  0  0.257203  0  3.724919  0  0  0.274354  0  3.967167  0  0  0.27733  0  3.988696  0  0  0.130146  0.272166  0  3.952779  0
C  C107  1  0.36489960  0.26360083  0.03913173  1  0  0.257007  0  3.72492  0  0  0.274164  0  3.967156  0  0  0.27714  0  3.988682  0  0  0.130088  0.271973  0  3.95277  0
C  C108  1  0.84001797  0.18242563  0.50352719  1  0  0.08231  0  3.715375  0  0  0.060353  0  3.975483  0  0  0.061874  0  3.993682  0  0  0.050966  0.059326  0  3.963322  0
C  C109  1  0.33997744  0.81758651  0.99647425  1  0  0.082642  0  3.715512  0  0  0.060731  0  3.975546  0  0  0.06225  0  3.993748  0  0  0.051019  0.059703  0  3.963374  0
C  C110  1  0.15998730  0.81758165  0.49648046  1  0  0.082449  0  3.715469  0  0  0.06052  0  3.975549  0  0  0.062032  0  3.993751  0  0  0.051072  0.059483  0  3.963397  0
C  C111  1  0.65997886  0.18240355  0.00351941  1  0  0.082495  0  3.715489  0  0  0.060567  0  3.975568  0  0  0.062068  0  3.993786  0  0  0.051064  0.059544  0  3.963398  0
C  C112  1  0.81383360  0.08547890  0.54822790  1  0  0.044633  0  3.677168  0  0  0.010266  0  3.92848  0  0  0.012035  0  3.948612  0  0  0.040555  0.008845  0  3.915598  0
C  C113  1  0.31380296  0.91452669  0.95177612  1  0  0.044385  0  3.677521  0  0  0.009934  0  3.928833  0  0  0.011708  0  3.94896  0  0  0.040488  0.008541  0  3.915965  0
C  C114  1  0.18618354  0.91452846  0.45177727  1  0  0.044466  0  3.677187  0  0  0.010112  0  3.928487  0  0  0.011886  0  3.948618  0  0  0.040467  0.008688  0  3.915608  0
C  C115  1  0.68616225  0.08546877  0.04822124  1  0  0.044256  0  3.677683  0  0  0.009841  0  3.928974  0  0  0.011615  0  3.949103  0  0  0.04041  0.008435  0  3.916095  0
C  C116  1  0.30627567  0.36878880  0.53639602  1  0  -0.371268  0  3.690868  0  0  -0.452875  0  3.916029  0  0  -0.455302  0  3.926204  0  0  -0.236969  -0.450889  0  3.908904  0
C  C117  1  0.80623843  0.63120695  0.96360640  1  0  -0.371146  0  3.691134  0  0  -0.452808  0  3.916169  0  0  -0.455236  0  3.926349  0  0  -0.23695  -0.450824  0  3.909046  0
C  C118  1  0.69372218  0.63122975  0.46360500  1  0  -0.371175  0  3.690879  0  0  -0.452704  0  3.915971  0  0  -0.455129  0  3.926146  0  0  -0.236865  -0.450719  0  3.908848  0
C  C119  1  0.19371343  0.36877406  0.03639346  1  0  -0.370959  0  3.690938  0  0  -0.452469  0  3.916035  0  0  -0.454894  0  3.926212  0  0  -0.236818  -0.450486  0  3.908912  0
S  S120  1  0.86392914  0.19762961  0.85487024  1  0  1.280565  0  5.666842  0  0  1.182657  0  6.184415  0  0  1.230331  0  6.16115  0  0  0.497049  1.150131  0  6.198071  0
S  S121  1  0.36393379  0.80237251  0.64512823  1  0  1.280485  0  5.666702  0  0  1.182565  0  6.184264  0  0  1.230229  0  6.160998  0  0  0.496983  1.150039  0  6.197931  0
S  S122  1  0.13607020  0.80236698  0.14512628  1  0  1.280333  0  5.666696  0  0  1.182389  0  6.184325  0  0  1.230052  0  6.161068  0  0  0.496908  1.149863  0  6.197987  0
S  S123  1  0.63606999  0.19762838  0.35487200  1  0  1.280632  0  5.666609  0  0  1.182688  0  6.184199  0  0  1.230354  0  6.160946  0  0  0.497093  1.150161  0  6.197866  0
N  N124  1  0.76991383  0.89072346  0.74335699  1  0  -0.663898  0  3.242888  0  0  -0.594019  0  3.48855  0  0  -0.617054  0  3.487375  0  0  -0.629689  -0.577387  0  3.489462  0
N  N125  1  0.26992135  0.10928270  0.75663894  1  0  -0.663795  0  3.242695  0  0  -0.59399  0  3.488351  0  0  -0.617036  0  3.487181  0  0  -0.629687  -0.577361  0  3.489263  0
N  N126  1  0.23010331  0.10928295  0.25664365  1  0  -0.663991  0  3.242807  0  0  -0.593999  0  3.488406  0  0  -0.61704  0  3.487244  0  0  -0.629704  -0.577366  0  3.489315  0
N  N127  1  0.73009134  0.89071395  0.24335593  1  0  -0.663878  0  3.242912  0  0  -0.59415  0  3.488537  0  0  -0.617191  0  3.487367  0  0  -0.629698  -0.577517  0  3.489447  0
N  N128  1  0.95330449  0.07457381  0.58789121  1  0  -0.257432  0  3.372379  0  0  -0.17338  0  3.652814  0  0  -0.189008  0  3.670658  0  0  -0.33217  -0.163009  0  3.640701  0
N  N129  1  0.45325930  0.92541997  0.91210778  1  0  -0.257233  0  3.372074  0  0  -0.173148  0  3.652505  0  0  -0.188773  0  3.67035  0  0  -0.332023  -0.162777  0  3.640374  0
N  N130  1  0.04672453  0.92543361  0.41211231  1  0  -0.257347  0  3.372551  0  0  -0.173363  0  3.653009  0  0  -0.188994  0  3.670859  0  0  -0.332095  -0.162989  0  3.640894  0
N  N131  1  0.54671778  0.07457761  0.08789246  1  0  -0.257434  0  3.372555  0  0  -0.173306  0  3.652905  0  0  -0.188934  0  3.670749  0  0  -0.33215  -0.162933  0  3.640777  0
N  N132  1  0.99687451  0.27269389  0.49912690  1  0  -0.287516  0  2.985669  0  0  -0.257838  0  3.245617  0  0  -0.265836  0  3.261286  0  0  -0.289532  -0.252162  0  3.234679  0
N  N133  1  0.49683206  0.72730552  0.00087622  1  0  -0.287617  0  2.985663  0  0  -0.257961  0  3.245565  0  0  -0.265955  0  3.26123  0  0  -0.289578  -0.252288  0  3.234632  0
N  N134  1  0.00312780  0.72732010  0.50087826  1  0  -0.287446  0  2.985807  0  0  -0.257743  0  3.245747  0  0  -0.26574  0  3.261418  0  0  -0.289514  -0.252068  0  3.23481  0
N  N135  1  0.50311683  0.27267338  0.99912035  1  0  -0.287273  0  2.985429  0  0  -0.25756  0  3.245337  0  0  -0.265558  0  3.261012  0  0  -0.289346  -0.251885  0  3.234399  0
O  O136  1  0.66194747  0.23395212  0.87314278  1  0  -0.662668  0  2.026269  0  0  -0.604417  0  2.303807  0  0  -0.627321  0  2.288654  0  0  -0.340499  -0.587871  0  2.313197  0
O  O137  1  0.16196382  0.76603934  0.62685152  1  0  -0.662561  0  2.026246  0  0  -0.6044  0  2.303897  0  0  -0.627332  0  2.288813  0  0  -0.340527  -0.587832  0  2.313226  0
O  O138  1  0.33804593  0.76604567  0.12685086  1  0  -0.662497  0  2.026067  0  0  -0.6043  0  2.303696  0  0  -0.627202  0  2.288547  0  0  -0.340493  -0.587742  0  2.313049  0
O  O139  1  0.83803700  0.23395926  0.37315119  1  0  -0.66264  0  2.026106  0  0  -0.604439  0  2.303701  0  0  -0.627344  0  2.28855  0  0  -0.340548  -0.587873  0  2.313038  0
O  O140  1  0.86726777  0.15658430  0.79562190  1  0  -0.697947  0  2.014229  0  0  -0.63418  0  2.262562  0  0  -0.655666  0  2.248223  0  0  -0.344583  -0.618443  0  2.270844  0
O  O141  1  0.36726465  0.84342223  0.70437614  1  0  -0.697953  0  2.014163  0  0  -0.634157  0  2.262441  0  0  -0.655661  0  2.248162  0  0  -0.344626  -0.618424  0  2.270728  0
O  O142  1  0.13273453  0.84342110  0.20437544  1  0  -0.698005  0  2.014164  0  0  -0.634176  0  2.262413  0  0  -0.655692  0  2.248154  0  0  -0.344598  -0.618442  0  2.270698  0
O  O143  1  0.63273913  0.15656870  0.29562452  1  0  -0.698032  0  2.014207  0  0  -0.634176  0  2.262459  0  0  -0.655678  0  2.248161  0  0  -0.344639  -0.618446  0  2.270744  0
O  O144  1  0.96526368  0.08827406  0.89020054  1  0  -0.680012  0  1.964813  0  0  -0.635741  0  2.225659  0  0  -0.655972  0  2.210747  0  0  -0.349332  -0.62052  0  2.233569  0
O  O145  1  0.46527318  0.91172970  0.60979466  1  0  -0.679995  0  1.964733  0  0  -0.635654  0  2.225488  0  0  -0.655881  0  2.210578  0  0  -0.349207  -0.620446  0  2.233411  0
O  O146  1  0.03472082  0.91171815  0.10979476  1  0  -0.679927  0  1.964759  0  0  -0.635614  0  2.22555  0  0  -0.655843  0  2.210641  0  0  -0.349243  -0.620417  0  2.233497  0
O  O147  1  0.53473654  0.08827991  0.39020926  1  0  -0.67995  0  1.964731  0  0  -0.63568  0  2.225577  0  0  -0.655911  0  2.210673  0  0  -0.349262  -0.620457  0  2.233473  0
