# generated using pymatgen
data_Zn8H43C60NO26
_symmetry_space_group_name_H-M   'P 1'
_cell_length_a   18.41022838
_cell_length_b   18.64256602
_cell_length_c   18.48196234
_cell_angle_alpha   120.20560376
_cell_angle_beta   119.78037863
_cell_angle_gamma   90.06942444
_symmetry_Int_Tables_number   1
_chemical_formula_structural   Zn8H43C60NO26
_chemical_formula_sum   'Zn8 H43 C60 N1 O26'
_cell_volume   4483.53204340
_cell_formula_units_Z   1
loop_
 _symmetry_equiv_pos_site_id
 _symmetry_equiv_pos_as_xyz
  1  'x, y, z'
loop_
 _atom_site_type_symbol
 _atom_site_label
 _atom_site_symmetry_multiplicity
 _atom_site_fract_x
 _atom_site_fract_y
 _atom_site_fract_z
 _atom_site_occupancy
 _atom_site_pbe_bader_charge
 _atom_site_pbe_bader_spin_density
 _atom_site_pbe_cm5_charge
 _atom_site_pbe_ddec_charge
 _atom_site_pbe_ddec_spin_density
 _atom_site_pbe_ddec_sum_bond_order
 _atom_site_pbe_magmom
Zn  Zn0  1  0.45377723  0.53645037  0.58042320  1  1.300963  0  0.671336  0.95222  0  2.389265  0
Zn  Zn1  1  0.45326672  0.54254759  0.41116535  1  1.315271  0  0.670299  0.95683  0  2.375526  0
Zn  Zn2  1  0.45515406  0.36672881  0.40894253  1  1.294078  0  0.670824  0.958603  0  2.391693  0
Zn  Zn3  1  0.62778269  0.53631597  0.57623033  1  1.299473  0  0.666642  0.951475  0  2.386476  0
Zn  Zn4  1  0.04723298  0.95435668  0.41503061  1  1.319716  0  0.668507  0.958935  0  2.378516  0
Zn  Zn5  1  0.04195865  0.12675683  0.58243479  1  1.29908  0  0.668653  0.950346  0  2.39288  0
Zn  Zn6  1  0.04220759  0.95511511  0.58518111  1  1.300661  0  0.669351  0.956683  0  2.387239  0
Zn  Zn7  1  0.86971919  0.95505392  0.41198696  1  1.294512  0  0.669967  0.962669  0  2.380532  0
H  H8  1  0.69090835  0.78652354  0.08977048  1  0.093667  0  0.11337  0.112206  0  0.976705  0
H  H9  1  0.94556631  0.70104744  0.55044595  1  0.057735  0  0.098466  0.108675  0  0.980008  0
H  H10  1  0.85029417  0.81091765  0.07935974  1  0.077576  0  0.111903  0.130104  0  0.985204  0
H  H11  1  0.97364048  0.79373786  0.67033643  1  0.074513  0  0.099276  0.110808  0  0.979966  0
H  H12  1  0.84823705  0.60677551  0.55091438  1  0.045735  0  0.09402  0.099327  0  1.0146  0
H  H13  1  0.87636813  0.69855527  0.67132473  1  0.062685  0  0.098474  0.109923  0  0.98033  0
H  H14  1  0.29448697  0.18277763  0.09239622  1  0.086866  0  0.1071  0.11449  0  0.994325  0
H  H15  1  0.19778878  0.08770840  0.90216975  1  0.102158  0  0.106319  0.113096  0  0.995215  0
H  H16  1  0.24565368  0.37005964  0.90048092  1  0.039064  0  0.098723  0.109374  0  0.980462  0
H  H17  1  0.14884622  0.36993966  0.90040347  1  0.076717  0  0.097804  0.107737  0  0.981366  0
H  H18  1  0.34187254  0.46684788  0.09359481  1  0.052227  0  0.09877  0.108897  0  0.979637  0
H  H19  1  0.25557994  0.46254003  0.63045334  1  0.06395  0  0.098097  0.074641  0  0.965622  0
H  H20  1  0.24516704  0.46623800  0.09353799  1  0.051053  0  0.096978  0.105635  0  0.986744  0
H  H21  1  0.59714829  0.70721698  0.90173574  1  0.093209  0  0.112528  0.110907  0  0.977893  0
H  H22  1  0.24275266  0.84071163  0.65551136  1  0.116075  0  0.104332  0.1135  0  1.005207  0
H  H23  1  0.13205489  0.71856477  0.27358761  1  0.048283  0  0.097197  0.106889  0  0.981889  0
H  H24  1  0.22488324  0.81297073  0.34497958  1  0.041319  0  0.097845  0.10808  0  0.980195  0
H  H25  1  0.23260277  0.62625381  0.28068496  1  0.053624  0  0.095812  0.104197  0  0.987385  0
H  H26  1  0.32527827  0.72109534  0.35299447  1  0.040409  0  0.097554  0.10849  0  0.980839  0
H  H27  1  0.76751120  0.68424638  0.91310162  1  0.103773  0  0.112194  0.130808  0  0.984977  0
H  H28  1  0.34927869  0.19083166  0.44182920  1  0.080253  0  0.106166  0.112214  0  0.99428  0
H  H29  1  0.25893642  0.09519771  0.44563936  1  0.103315  0  0.106435  0.112784  0  0.993313  0
H  H30  1  0.59098585  0.18578401  0.42540604  1  0.079085  0  0.107091  0.113407  0  0.995014  0
H  H31  1  0.07965081  0.31643446  0.50558264  1  0.016612  0  0.097197  0.109866  0  0.990742  0
H  H32  1  0.16672117  0.36676625  0.63672437  1  0.046195  0  0.09693  0.110539  0  0.985148  0
H  H33  1  0.78453182  0.46273358  0.50255433  1  0.403171  0  0.276087  0.27009  0  0.993246  0
H  H34  1  0.88932510  0.48858670  0.54384120  1  0.388133  0  0.276623  0.259882  0  0.9876  0
H  H35  1  0.28313159  0.61719131  0.61770646  1  0.056306  0  0.086438  0.121777  0  1.022133  0
H  H36  1  0.32990315  0.68501214  0.75093142  1  0.024433  0  0.084012  0.10892  0  1.003373  0
H  H37  1  0.23212738  0.69202543  0.66438205  1  0.022682  0  0.081749  0.104237  0  1.015551  0
H  H38  1  0.41757536  0.74503709  0.71315560  1  0.060124  0  0.092626  0.095834  0  0.995417  0
H  H39  1  0.36643260  0.81927588  0.75885121  1  0.01928  0  0.090774  0.084461  0  0.976898  0
H  H40  1  0.04927602  0.44276345  0.50141476  1  0.02172  0  0.081884  0.106035  0  1.01672  0
H  H41  1  0.68667333  0.09177905  0.42897991  1  0.081633  0  0.106711  0.112682  0  0.993989  0
H  H42  1  0.14045641  0.53891586  0.57479916  1  0.033293  0  0.082788  0.106362  0  1.031995  0
H  H43  1  0.06083373  0.48873316  0.44228227  1  0.015327  0  0.086807  0.11404  0  0.999847  0
H  H44  1  0.19834425  0.44990057  0.46978256  1  0.02013  0  0.088611  0.083608  0  0.989127  0
H  H45  1  0.10877588  0.35455502  0.40005672  1  0.034814  0  0.088282  0.078462  0  0.976394  0
H  H46  1  0.97551251  0.37206944  0.65088179  1  0.040232  0  0.095001  0.109053  0  0.989765  0
H  H47  1  0.93244404  0.33480165  0.52248588  1  0.053223  0  0.099465  0.118964  0  0.987298  0
H  H48  1  0.87890909  0.46502271  0.65701401  1  0.022002  0  0.092768  0.031821  0  0.96815  0
H  H49  1  0.58858722  0.73035734  0.41471206  1  0.096308  0  0.106136  0.112947  0  0.99487  0
H  H50  1  0.68429748  0.82386764  0.41392493  1  0.089661  0  0.106225  0.112538  0  0.995188  0
C  C51  1  0.63552418  0.63582949  0.49518960  1  1.548209  0  0.226926  0.608481  0  4.176919  0
C  C52  1  0.20731418  0.40015400  0.55560504  1  -0.007732  0  -0.075686  -0.007293  0  3.823225  0
C  C53  1  0.78219469  0.33171648  0.53238936  1  -0.005841  0  -0.002129  0.004794  0  3.855695  0
C  C54  1  0.35797576  0.35642985  0.49280675  1  1.538602  0  0.227426  0.609205  0  4.171184  0
C  C55  1  0.69326334  0.30058148  0.49328552  1  0.05512  0  -0.010997  -0.062898  0  3.970337  0
C  C56  1  0.66022100  0.21239828  0.45629997  1  -0.072187  0  -0.08274  -0.100169  0  3.976197  0
C  C57  1  0.71395308  0.15980067  0.45848598  1  -0.010971  0  -0.081417  -0.095458  0  3.977147  0
C  C58  1  0.80389357  0.19198972  0.49770943  1  0.045509  0  -0.011608  -0.075221  0  3.968515  0
C  C59  1  0.83593687  0.27916902  0.53403476  1  -0.073048  0  0.001116  0.075618  0  3.894544  0
C  C60  1  0.91516369  0.34984054  0.57642823  1  -0.01095  0  -0.152214  -0.263244  0  3.851667  0
C  C61  1  0.85529298  0.41085455  0.57799139  1  0.377168  0  0.009614  0.170021  0  3.881612  0
C  C62  1  0.69776168  0.67829653  0.88083078  1  -0.017185  0  -0.086876  -0.227241  0  3.878854  0
C  C63  1  0.78310127  0.70397879  0.54045109  1  -0.017411  0  -0.003439  0.062957  0  3.88297  0
C  C64  1  0.69298059  0.69262680  0.49584655  1  -0.007387  0  -0.013976  -0.077477  0  3.980109  0
C  C65  1  0.65874697  0.73742376  0.45002834  1  -0.020391  0  -0.083215  -0.101133  0  3.985413  0
C  C66  1  0.37017478  0.64547118  0.51108711  1  1.530807  0  0.228238  0.609215  0  4.171578  0
C  C67  1  0.71235029  0.78977934  0.44951723  1  -0.078061  0  -0.083977  -0.0992  0  3.983112  0
C  C68  1  0.80353664  0.80045950  0.49442580  1  0.004952  0  -0.013136  -0.07775  0  3.977062  0
C  C69  1  0.83680335  0.75616003  0.53961937  1  -0.022114  0  -0.002039  0.064848  0  3.879917  0
C  C70  1  0.91880221  0.73655550  0.59475868  1  -0.012469  0  -0.150789  -0.200251  0  3.886566  0
C  C71  1  0.85795957  0.67741542  0.59552722  1  -0.063153  0  -0.152663  -0.200202  0  3.889237  0
C  C72  1  0.27242571  0.34030884  0.05051531  1  0.03336  0  -0.002293  0.065046  0  3.879833  0
C  C73  1  0.24719831  0.32766774  0.52592557  1  -0.002843  0  -0.003266  0.018701  0  3.868847  0
C  C74  1  0.30120996  0.30524823  0.10717465  1  -0.047654  0  -0.014211  -0.081373  0  3.982867  0
C  C75  1  0.27301108  0.21240572  0.05051776  1  0.047911  0  -0.083243  -0.09851  0  3.982566  0
C  C76  1  0.21888747  0.15914717  0.94391072  1  -0.154594  0  -0.083508  -0.099275  0  3.985565  0
C  C77  1  0.19012289  0.19521180  0.88706477  1  0.089277  0  -0.013805  -0.07977  0  3.980054  0
C  C78  1  0.63564863  0.35623506  0.48979397  1  1.561183  0  0.228238  0.607156  0  4.170934  0
C  C79  1  0.21880049  0.28685395  0.94353500  1  -0.113491  0  -0.002196  0.064923  0  3.879232  0
C  C80  1  0.21520634  0.36449184  0.93645778  1  0.011389  0  -0.151503  -0.201463  0  3.888255  0
C  C81  1  0.27566007  0.42497797  0.05751861  1  -0.071874  0  -0.151119  -0.199044  0  3.888124  0
C  C82  1  0.27795638  0.72128643  0.44213854  1  0.005109  0  -0.005593  0.064645  0  3.903116  0
C  C83  1  0.32000931  0.70850073  0.51972388  1  -0.092714  0  -0.013642  -0.138015  0  3.927329  0
C  C84  1  0.30340397  0.30005933  0.49537637  1  0.004475  0  -0.01298  -0.069616  0  3.976008  0
C  C85  1  0.30842139  0.75532162  0.60040107  1  0.024831  0  0.004487  0.113814  0  3.896916  0
C  C86  1  0.25217950  0.80599610  0.59417023  1  -0.027959  0  -0.08492  -0.162984  0  3.942827  0
C  C87  1  0.20654175  0.81473008  0.51286577  1  -0.004499  0  -0.015576  -0.073618  0  4.003332  0
C  C88  1  0.22280156  0.77237316  0.43800924  1  -0.018293  0  -0.006712  0.056919  0  3.899417  0
C  C89  1  0.20200813  0.75459955  0.33908919  1  -0.016429  0  -0.151849  -0.199032  0  3.889565  0
C  C90  1  0.35834210  0.36135659  0.22093359  1  1.607719  0  0.228495  0.610988  0  4.174791  0
C  C91  1  0.26477273  0.69674841  0.34369351  1  -0.002658  0  -0.152596  -0.19825  0  3.888726  0
C  C92  1  0.86026681  0.13491719  0.49787335  1  1.538472  0  0.227538  0.61056  0  4.176945  0
C  C93  1  0.14456973  0.86599303  0.50790129  1  1.553732  0  0.226848  0.609545  0  4.172223  0
C  C94  1  0.14393211  0.13269904  0.50138578  1  1.555438  0  0.227153  0.609958  0  4.174288  0
C  C95  1  0.30618595  0.21454593  0.46639351  1  -0.056083  0  -0.084255  -0.100754  0  3.979447  0
C  C96  1  0.86017753  0.85628085  0.49328199  1  1.571072  0  0.228188  0.609468  0  4.176387  0
C  C97  1  0.13264605  0.13741775  0.77326396  1  1.527859  0  0.227605  0.610146  0  4.173774  0
C  C98  1  0.86573524  0.86878471  0.22423254  1  1.53441  0  0.218882  0.640445  0  4.188469  0
C  C99  1  0.63794505  0.62358030  0.76786099  1  1.529141  0  0.218557  0.642049  0  4.187833  0
C  C100  1  0.72391724  0.77532570  0.05139099  1  -0.067701  0  -0.066099  -0.020749  0  3.97651  0
C  C101  1  0.81259414  0.81591037  0.11124019  1  -0.051366  0  -0.085814  -0.224069  0  3.875893  0
C  C102  1  0.66857298  0.71897088  0.94036024  1  0.021732  0  -0.065779  -0.018912  0  3.976034  0
C  C103  1  0.35327197  0.75423747  0.69407735  1  -0.014853  0  -0.163208  -0.146235  0  3.981032  0
C  C104  1  0.29618420  0.68281498  0.68096365  1  -0.082964  0  -0.244901  -0.348485  0  3.964019  0
C  C105  1  0.15283012  0.41807723  0.47542320  1  0.001385  0  -0.163055  -0.122448  0  3.972357  0
C  C106  1  0.25573146  0.16100272  0.46878592  1  -0.009546  0  -0.084177  -0.09993  0  3.981925  0
C  C107  1  0.09784728  0.47525708  0.49981737  1  -0.079122  0  -0.24599  -0.353077  0  3.986145  0
C  C108  1  0.19941907  0.18980701  0.50048415  1  -0.003541  0  -0.014117  -0.077652  0  3.976799  0
C  C109  1  0.19693061  0.27408454  0.52855224  1  -0.046443  0  -0.002641  0.068473  0  3.900947  0
C  C110  1  0.15208392  0.33968163  0.56085446  1  0.012957  0  -0.152432  -0.24162  0  3.868198  0
N  N111  1  0.83584338  0.43852786  0.51104686  1  -1.125581  0  -0.64099  -0.65735  0  3.194308  0
O  O112  1  0.49762845  0.49596079  0.49400836  1  -1.188527  0  -0.572981  -1.026415  0  2.544851  0
O  O113  1  0.94384078  0.87185401  0.54838243  1  -1.172075  0  -0.312625  -0.542493  0  2.325462  0
O  O114  1  0.11604883  0.17610493  0.72879293  1  -1.168798  0  -0.311725  -0.541245  0  2.329558  0
O  O115  1  0.67587306  0.61113064  0.55372388  1  -1.164704  0  -0.31349  -0.542792  0  2.331231  0
O  O116  1  0.82455027  0.88403365  0.26656334  1  -1.169997  0  -0.319157  -0.555386  0  2.317959  0
O  O117  1  0.10480550  0.05467816  0.72977708  1  -1.170362  0  -0.316087  -0.546761  0  2.33705  0
O  O118  1  0.94999864  0.89408979  0.26958450  1  -1.154933  0  -0.320179  -0.54991  0  2.290813  0
O  O119  1  0.13463771  0.05081037  0.45410822  1  -1.174417  0  -0.316649  -0.547781  0  2.32229  0
O  O120  1  0.82097662  0.88381907  0.43788565  1  -1.169778  0  -0.315  -0.545375  0  2.335505  0
O  O121  1  0.94394084  0.17449197  0.55431608  1  -1.176516  0  -0.310993  -0.53772  0  2.330756  0
O  O122  1  0.12913717  0.89668641  0.57621693  1  -1.181464  0  -0.31586  -0.545331  0  2.332106  0
O  O123  1  0.38746811  0.61578737  0.56473694  1  -1.16228  0  -0.305895  -0.537717  0  2.390263  0
O  O124  1  0.37210941  0.43928359  0.54678942  1  -1.170483  0  -0.311014  -0.543914  0  2.331779  0
O  O125  1  0.38976671  0.62362812  0.44702458  1  -1.163427  0  -0.311017  -0.540871  0  2.338933  0
O  O126  1  0.55268649  0.31847060  0.44018482  1  -1.173381  0  -0.312646  -0.54103  0  2.335687  0
O  O127  1  0.37727080  0.44459461  0.26529482  1  -1.159803  0  -0.312321  -0.542278  0  2.327185  0
O  O128  1  0.67672213  0.59867715  0.72217713  1  -1.171424  0  -0.321837  -0.552133  0  2.293015  0
O  O129  1  0.38343642  0.32182403  0.26445647  1  -1.177199  0  -0.315784  -0.546557  0  2.344172  0
O  O130  1  0.55434464  0.60605398  0.72562160  1  -1.16684  0  -0.320116  -0.555975  0  2.32163  0
O  O131  1  0.67442256  0.43823931  0.53728309  1  -1.176084  0  -0.311322  -0.544792  0  2.331523  0
O  O132  1  0.55171216  0.61617048  0.43670393  1  -1.165474  0  -0.314843  -0.54539  0  2.333462  0
O  O133  1  0.38630025  0.31789668  0.43743286  1  -1.163101  0  -0.313578  -0.542725  0  2.335141  0
O  O134  1  0.99987816  0.99749554  0.49822121  1  -1.188442  0  -0.573113  -1.02837  0  2.543414  0
O  O135  1  0.82088312  0.05194675  0.44192042  1  -1.16758  0  -0.316079  -0.548566  0  2.330179  0
O  O136  1  0.11106611  0.87433871  0.43426461  1  -1.163362  0  -0.312514  -0.542398  0  2.325795  0
O  O137  1  0.10932386  0.17119860  0.54949741  1  -1.174582  0  -0.312261  -0.54035  0  2.335401  0
