# generated using pymatgen
data_Na3InH6(CO2)6
_symmetry_space_group_name_H-M   'P 1'
_cell_length_a   6.43410311
_cell_length_b   14.20966452
_cell_length_c   14.59809988
_cell_angle_alpha   89.99984363
_cell_angle_beta   89.99985979
_cell_angle_gamma   90.00018431
_symmetry_Int_Tables_number   1
_chemical_formula_structural   Na3InH6(CO2)6
_chemical_formula_sum   'Na12 In4 H24 C24 O48'
_cell_volume   1334.65240075
_cell_formula_units_Z   4
loop_
 _symmetry_equiv_pos_site_id
 _symmetry_equiv_pos_as_xyz
  1  'x, y, z'
loop_
 _atom_site_type_symbol
 _atom_site_label
 _atom_site_symmetry_multiplicity
 _atom_site_fract_x
 _atom_site_fract_y
 _atom_site_fract_z
 _atom_site_occupancy
 _atom_site_hle17_bader_spin_density
 _atom_site_hle17_ddec_charge
 _atom_site_hle17_ddec_spin_density
 _atom_site_hle17_ddec_sum_bond_order
 _atom_site_hle17_magmom
 _atom_site_hse06_10hf_bader_spin_density
 _atom_site_hse06_10hf_ddec_charge
 _atom_site_hse06_10hf_ddec_spin_density
 _atom_site_hse06_10hf_ddec_sum_bond_order
 _atom_site_hse06_10hf_magmom
 _atom_site_hse06_bader_spin_density
 _atom_site_hse06_ddec_charge
 _atom_site_hse06_ddec_spin_density
 _atom_site_hse06_ddec_sum_bond_order
 _atom_site_hse06_magmom
 _atom_site_pbe_bader_spin_density
 _atom_site_pbe_cm5_charge
 _atom_site_pbe_ddec_charge
 _atom_site_pbe_ddec_spin_density
 _atom_site_pbe_ddec_sum_bond_order
 _atom_site_pbe_magmom
Na  Na0  1  0.27037116  0.21788570  0.50225809  1  0  0.91223  0  0.375535  0  0  0.86631  0  0.533826  0  0  0.878408  0  0.509886  0  0  0.676592  0.857277  0  0.551067  0
Na  Na1  1  0.22962594  0.21788638  0.99774245  1  0  0.91223  0  0.375533  0  0  0.866315  0  0.533815  0  0  0.878413  0  0.509876  0  0  0.676597  0.857287  0  0.551056  0
Na  Na2  1  0.77036960  0.28211278  0.49774208  1  0  0.912232  0  0.375548  0  0  0.86631  0  0.53384  0  0  0.878414  0  0.509895  0  0  0.6766  0.857276  0  0.551079  0
Na  Na3  1  0.72962717  0.28211345  0.00225844  1  0  0.912237  0  0.375531  0  0  0.866309  0  0.533823  0  0  0.878406  0  0.509885  0  0  0.676586  0.857274  0  0.551063  0
Na  Na4  1  0.72962756  0.78211400  0.49774144  1  0  0.912225  0  0.375544  0  0  0.866304  0  0.533838  0  0  0.878401  0  0.509899  0  0  0.676591  0.857275  0  0.551079  0
Na  Na5  1  0.77037278  0.78211473  0.00225775  1  0  0.91224  0  0.375523  0  0  0.866312  0  0.533826  0  0  0.878409  0  0.509888  0  0  0.676582  0.857273  0  0.551065  0
Na  Na6  1  0.22963067  0.71788622  0.50225882  1  0  0.912222  0  0.375554  0  0  0.866305  0  0.533846  0  0  0.878405  0  0.509904  0  0  0.676595  0.857281  0  0.551089  0
Na  Na7  1  0.27037310  0.71788625  0.99774177  1  0  0.912237  0  0.375528  0  0  0.86632  0  0.533819  0  0  0.878418  0  0.50988  0  0  0.676596  0.857288  0  0.551058  0
Na  Na8  1  0.75000145  0.92337104  0.24999941  1  0  0.900162  0  0.371561  0  0  0.843148  0  0.536193  0  0  0.857116  0  0.511592  0  0  0.666441  0.832987  0  0.553697  0
Na  Na9  1  0.25000060  0.57662850  0.75000014  1  0  0.900173  0  0.371556  0  0  0.843157  0  0.53619  0  0  0.857126  0  0.511589  0  0  0.666438  0.832996  0  0.553699  0
Na  Na10  1  0.24999882  0.07662866  0.74999943  1  0  0.900167  0  0.371564  0  0  0.843149  0  0.536206  0  0  0.857117  0  0.511604  0  0  0.66644  0.832979  0  0.553724  0
Na  Na11  1  0.74999967  0.42337050  0.25000007  1  0  0.900179  0  0.371547  0  0  0.843149  0  0.536209  0  0  0.857117  0  0.511608  0  0  0.666451  0.832994  0  0.553707  0
In  In12  1  0.25000018  0.06475646  0.25000013  1  0  1.673916  0  2.175195  0  0  1.499287  0  2.645754  0  0  1.569763  0  2.588928  0  0  0.759086  1.449471  0  2.684263  0
In  In13  1  0.74999986  0.43524270  0.75000006  1  0  1.673924  0  2.175214  0  0  1.499292  0  2.645779  0  0  1.569771  0  2.588949  0  0  0.759085  1.449479  0  2.684282  0
In  In14  1  0.75000008  0.93524395  0.75000008  1  0  1.673908  0  2.175248  0  0  1.499278  0  2.645798  0  0  1.569752  0  2.588973  0  0  0.759081  1.449451  0  2.684333  0
In  In15  1  0.25000041  0.56475560  0.25000015  1  0  1.673905  0  2.175186  0  0  1.499274  0  2.645738  0  0  1.569754  0  2.588911  0  0  0.759088  1.449455  0  2.684249  0
H  H16  1  0.17165777  0.92632402  0.41273802  1  0  0.00773  0  0.958503  0  0  0.015773  0  1.030119  0  0  0.016231  0  1.026294  0  0  0.119645  0.015193  0  1.033009  0
H  H17  1  0.32834563  0.92632459  0.08726133  1  0  0.007752  0  0.9585  0  0  0.015794  0  1.030119  0  0  0.016255  0  1.026292  0  0  0.11965  0.015223  0  1.033016  0
H  H18  1  0.67165889  0.57367612  0.58726161  1  0  0.007765  0  0.958509  0  0  0.015808  0  1.03012  0  0  0.016267  0  1.026295  0  0  0.119672  0.015233  0  1.033011  0
H  H19  1  0.82834181  0.57367648  0.91273677  1  0  0.007725  0  0.958382  0  0  0.01576  0  1.030025  0  0  0.01622  0  1.026196  0  0  0.119638  0.015185  0  1.032915  0
H  H20  1  0.82834250  0.07367709  0.58726219  1  0  0.007697  0  0.958452  0  0  0.015742  0  1.03008  0  0  0.0162  0  1.026255  0  0  0.119637  0.015167  0  1.032968  0
H  H21  1  0.67165619  0.07367511  0.91273751  1  0  0.007745  0  0.958416  0  0  0.015779  0  1.030059  0  0  0.016239  0  1.026231  0  0  0.11964  0.015203  0  1.032948  0
H  H22  1  0.32833517  0.42632218  0.41273791  1  0  0.007733  0  0.958379  0  0  0.015784  0  1.029993  0  0  0.016242  0  1.026168  0  0  0.119649  0.01521  0  1.03288  0
H  H23  1  0.17165690  0.42632393  0.08726139  1  0  0.007722  0  0.958509  0  0  0.015772  0  1.030119  0  0  0.016231  0  1.026294  0  0  0.119646  0.015198  0  1.033009  0
H  H24  1  0.50283644  0.24370812  0.22454713  1  0  0.007602  0  0.940748  0  0  0.016178  0  1.012263  0  0  0.016861  0  1.00852  0  0  0.121476  0.015431  0  1.015051  0
H  H25  1  0.99717093  0.24370841  0.27545349  1  0  0.00763  0  0.940806  0  0  0.016185  0  1.012335  0  0  0.016878  0  1.008596  0  0  0.121456  0.015439  0  1.015129  0
H  H26  1  0.00283518  0.25628997  0.77545401  1  0  0.007613  0  0.94077  0  0  0.016174  0  1.012307  0  0  0.016862  0  1.008565  0  0  0.121463  0.015428  0  1.0151  0
H  H27  1  0.49716374  0.25628899  0.72454712  1  0  0.007604  0  0.940785  0  0  0.016176  0  1.01231  0  0  0.01686  0  1.00857  0  0  0.121492  0.015427  0  1.015104  0
H  H28  1  0.49716693  0.75629228  0.77545445  1  0  0.007669  0  0.940711  0  0  0.016221  0  1.012248  0  0  0.016914  0  1.008505  0  0  0.121461  0.01547  0  1.015039  0
H  H29  1  0.00283555  0.75629059  0.72454672  1  0  0.007593  0  0.940773  0  0  0.016161  0  1.012308  0  0  0.016845  0  1.008565  0  0  0.121464  0.015411  0  1.015103  0
H  H30  1  0.99716664  0.74370692  0.22454689  1  0  0.007631  0  0.940751  0  0  0.016202  0  1.012271  0  0  0.016886  0  1.008528  0  0  0.121477  0.015456  0  1.015058  0
H  H31  1  0.50283342  0.74371141  0.27545309  1  0  0.007572  0  0.940813  0  0  0.016144  0  1.012328  0  0  0.016831  0  1.008589  0  0  0.121465  0.015395  0  1.015121  0
H  H32  1  0.72084081  0.06890727  0.41245937  1  0  0.020058  0  0.925064  0  0  0.028756  0  0.994619  0  0  0.029332  0  0.98999  0  0  0.124724  0.0281  0  0.998113  0
H  H33  1  0.77915910  0.06890847  0.08754102  1  0  0.020064  0  0.925063  0  0  0.028701  0  0.994682  0  0  0.029273  0  0.99006  0  0  0.124712  0.028046  0  0.998176  0
H  H34  1  0.22084030  0.43109255  0.58754085  1  0  0.020058  0  0.925048  0  0  0.028758  0  0.994603  0  0  0.029333  0  0.989975  0  0  0.124731  0.028104  0  0.998099  0
H  H35  1  0.27915987  0.43109213  0.91245776  1  0  0.020057  0  0.925042  0  0  0.028748  0  0.994604  0  0  0.029321  0  0.98998  0  0  0.124727  0.028096  0  0.998098  0
H  H36  1  0.27915790  0.93109314  0.58754152  1  0  0.020075  0  0.925069  0  0  0.028732  0  0.99467  0  0  0.029307  0  0.990043  0  0  0.124726  0.028077  0  0.998164  0
H  H37  1  0.22084117  0.93109193  0.91245850  1  0  0.020072  0  0.925046  0  0  0.028763  0  0.994605  0  0  0.029337  0  0.989978  0  0  0.124723  0.028103  0  0.9981  0
H  H38  1  0.77915686  0.56890786  0.41245799  1  0  0.020054  0  0.925076  0  0  0.028689  0  0.994702  0  0  0.029261  0  0.990078  0  0  0.124714  0.028034  0  0.998198  0
H  H39  1  0.72084040  0.56890616  0.08754176  1  0  0.020055  0  0.925016  0  0  0.028749  0  0.994578  0  0  0.029322  0  0.989952  0  0  0.124741  0.028095  0  0.998075  0
C  C40  1  0.33669086  0.91146948  0.39695028  1  0  0.600437  0  3.910962  0  0  0.533181  0  4.216549  0  0  0.565981  0  4.207662  0  0  0.160747  0.510935  0  4.221981  0
C  C41  1  0.16331088  0.91147047  0.10304842  1  0  0.600425  0  3.911074  0  0  0.533167  0  4.21666  0  0  0.565966  0  4.207774  0  0  0.160756  0.510899  0  4.222121  0
C  C42  1  0.83669200  0.58853089  0.60304918  1  0  0.600508  0  3.911091  0  0  0.533253  0  4.21667  0  0  0.566055  0  4.207782  0  0  0.160787  0.511  0  4.222112  0
C  C43  1  0.66330881  0.58853035  0.89694916  1  0  0.600487  0  3.910829  0  0  0.533235  0  4.216413  0  0  0.566034  0  4.207527  0  0  0.160748  0.510978  0  4.221856  0
C  C44  1  0.66330630  0.08853022  0.60304993  1  0  0.60049  0  3.911006  0  0  0.533227  0  4.216607  0  0  0.566027  0  4.207721  0  0  0.16074  0.51097  0  4.222048  0
C  C45  1  0.83669250  0.08852994  0.89695042  1  0  0.60044  0  3.910964  0  0  0.533186  0  4.216545  0  0  0.565985  0  4.207659  0  0  0.160744  0.510933  0  4.221983  0
C  C46  1  0.16330050  0.41146811  0.39695035  1  0  0.600347  0  3.91075  0  0  0.533071  0  4.216381  0  0  0.565871  0  4.207494  0  0  0.160659  0.51081  0  4.221832  0
C  C47  1  0.33669146  0.41146935  0.10304967  1  0  0.600486  0  3.91106  0  0  0.533215  0  4.216674  0  0  0.566015  0  4.207788  0  0  0.160763  0.510955  0  4.222123  0
C  C48  1  0.50321544  0.23945106  0.30056799  1  0  0.584528  0  3.918109  0  0  0.517786  0  4.224546  0  0  0.550165  0  4.217193  0  0  0.155539  0.495893  0  4.22888  0
C  C49  1  0.99679190  0.23945085  0.19943333  1  0  0.584311  0  3.918516  0  0  0.517571  0  4.224947  0  0  0.549936  0  4.217619  0  0  0.155473  0.495676  0  4.229285  0
C  C50  1  0.00321464  0.26054845  0.69943315  1  0  0.584393  0  3.918159  0  0  0.517655  0  4.224589  0  0  0.550029  0  4.217248  0  0  0.155507  0.49576  0  4.228927  0
C  C51  1  0.49678431  0.26054796  0.80056796  1  0  0.584506  0  3.918283  0  0  0.517759  0  4.224715  0  0  0.550138  0  4.217366  0  0  0.15553  0.495871  0  4.229048  0
C  C52  1  0.49678949  0.76055005  0.69943359  1  0  0.584319  0  3.918359  0  0  0.51758  0  4.224794  0  0  0.549949  0  4.21746  0  0  0.155474  0.495701  0  4.22911  0
C  C53  1  0.00321614  0.76054885  0.80056757  1  0  0.58445  0  3.918237  0  0  0.517698  0  4.224689  0  0  0.550078  0  4.217336  0  0  0.155485  0.495807  0  4.229018  0
C  C54  1  0.99678718  0.73944914  0.30056706  1  0  0.58439  0  3.918216  0  0  0.51764  0  4.224667  0  0  0.55002  0  4.217317  0  0  0.155492  0.49575  0  4.228996  0
C  C55  1  0.50321285  0.73945245  0.19943224  1  0  0.584489  0  3.918218  0  0  0.517745  0  4.224648  0  0  0.550119  0  4.217305  0  0  0.15551  0.495855  0  4.22898  0
C  C56  1  0.88431204  0.08686280  0.39568036  1  0  0.605925  0  3.911402  0  0  0.53747  0  4.221776  0  0  0.570621  0  4.212183  0  0  0.162487  0.514944  0  4.227734  0
C  C57  1  0.61568800  0.08686442  0.10431998  1  0  0.605973  0  3.911408  0  0  0.537555  0  4.221784  0  0  0.570707  0  4.212186  0  0  0.162517  0.515031  0  4.227743  0
C  C58  1  0.38431286  0.41313656  0.60431968  1  0  0.605966  0  3.911382  0  0  0.53751  0  4.221762  0  0  0.570661  0  4.212167  0  0  0.162514  0.514984  0  4.227723  0
C  C59  1  0.11568718  0.41313665  0.89568034  1  0  0.60599  0  3.911334  0  0  0.537544  0  4.221708  0  0  0.570696  0  4.212113  0  0  0.162529  0.515014  0  4.227673  0
C  C60  1  0.11568823  0.91313761  0.60431985  1  0  0.605869  0  3.911435  0  0  0.537434  0  4.221816  0  0  0.570586  0  4.212219  0  0  0.162429  0.514911  0  4.22777  0
C  C61  1  0.38431226  0.91313739  0.89567954  1  0  0.605914  0  3.911404  0  0  0.537466  0  4.221778  0  0  0.570617  0  4.212183  0  0  0.162496  0.514946  0  4.227732  0
C  C62  1  0.61568741  0.58686385  0.39567916  1  0  0.605984  0  3.911351  0  0  0.53757  0  4.221719  0  0  0.570724  0  4.212119  0  0  0.162521  0.515047  0  4.22768  0
C  C63  1  0.88431153  0.58686234  0.10432055  1  0  0.605934  0  3.911315  0  0  0.537479  0  4.221707  0  0  0.570633  0  4.212107  0  0  0.16243  0.514948  0  4.227674  0
O  O64  1  0.41924662  0.95839403  0.33035726  1  0  -0.681128  0  2.076153  0  0  -0.611885  0  2.341437  0  0  -0.642101  0  2.328983  0  0  -0.341093  -0.590842  0  2.34928  0
O  O65  1  0.08075545  0.95839542  0.16964063  1  0  -0.681166  0  2.076225  0  0  -0.61192  0  2.3415  0  0  -0.642134  0  2.329045  0  0  -0.341122  -0.590871  0  2.349349  0
O  O66  1  0.91924550  0.54160575  0.66964142  1  0  -0.681208  0  2.076268  0  0  -0.611965  0  2.341547  0  0  -0.642181  0  2.329091  0  0  -0.34114  -0.59092  0  2.349392  0
O  O67  1  0.58075342  0.54160458  0.83035704  1  0  -0.681174  0  2.076175  0  0  -0.611929  0  2.341457  0  0  -0.642147  0  2.329004  0  0  -0.3411  -0.590884  0  2.349304  0
O  O68  1  0.58075365  0.04160567  0.66964227  1  0  -0.681131  0  2.076266  0  0  -0.611883  0  2.341545  0  0  -0.642097  0  2.329088  0  0  -0.341078  -0.590836  0  2.349393  0
O  O69  1  0.91924793  0.04160358  0.83035889  1  0  -0.681166  0  2.076215  0  0  -0.611919  0  2.341496  0  0  -0.642134  0  2.329041  0  0  -0.341103  -0.590868  0  2.349338  0
O  O70  1  0.08074700  0.45839324  0.33035741  1  0  -0.681095  0  2.075993  0  0  -0.611843  0  2.341278  0  0  -0.642057  0  2.328822  0  0  -0.341082  -0.590791  0  2.349124  0
O  O71  1  0.41924685  0.45839442  0.16964180  1  0  -0.681171  0  2.076228  0  0  -0.611923  0  2.341524  0  0  -0.642139  0  2.329068  0  0  -0.341106  -0.590879  0  2.349372  0
O  O72  1  0.39046746  0.17415381  0.33747225  1  0  -0.679827  0  2.074764  0  0  -0.616526  0  2.344018  0  0  -0.646277  0  2.332337  0  0  -0.323112  -0.595744  0  2.351182  0
O  O73  1  0.10953680  0.17415456  0.16252840  1  0  -0.67972  0  2.074832  0  0  -0.616423  0  2.344095  0  0  -0.64617  0  2.332411  0  0  -0.323068  -0.595639  0  2.351254  0
O  O74  1  0.89046529  0.32584555  0.66252847  1  0  -0.679744  0  2.07474  0  0  -0.616448  0  2.344006  0  0  -0.646196  0  2.332316  0  0  -0.323078  -0.595664  0  2.351165  0
O  O75  1  0.60953365  0.32584510  0.83747194  1  0  -0.679811  0  2.074806  0  0  -0.616516  0  2.344079  0  0  -0.646263  0  2.332385  0  0  -0.323107  -0.595735  0  2.351239  0
O  O76  1  0.60953747  0.82584730  0.66252933  1  0  -0.679745  0  2.074824  0  0  -0.616436  0  2.344059  0  0  -0.646187  0  2.332384  0  0  -0.323081  -0.595662  0  2.351224  0
O  O77  1  0.89046658  0.82584655  0.83747113  1  0  -0.679791  0  2.074779  0  0  -0.616479  0  2.344019  0  0  -0.646231  0  2.33234  0  0  -0.323077  -0.595694  0  2.351176  0
O  O78  1  0.10953187  0.67415204  0.33747242  1  0  -0.679764  0  2.074752  0  0  -0.616459  0  2.344002  0  0  -0.64621  0  2.332321  0  0  -0.323079  -0.595682  0  2.351166  0
O  O79  1  0.39046662  0.67415531  0.16252827  1  0  -0.679777  0  2.074806  0  0  -0.616478  0  2.344065  0  0  -0.646228  0  2.332382  0  0  -0.323094  -0.595696  0  2.351223  0
O  O80  1  0.95471661  0.04371978  0.32418341  1  0  -0.69313  0  2.096923  0  0  -0.623667  0  2.367528  0  0  -0.653479  0  2.35389  0  0  -0.352883  -0.602909  0  2.376221  0
O  O81  1  0.54528623  0.04372039  0.17581774  1  0  -0.69314  0  2.096844  0  0  -0.623672  0  2.367425  0  0  -0.653485  0  2.353785  0  0  -0.352912  -0.602912  0  2.37612  0
O  O82  1  0.45471578  0.45628038  0.67581725  1  0  -0.693149  0  2.096853  0  0  -0.623688  0  2.367464  0  0  -0.653501  0  2.353824  0  0  -0.352908  -0.602928  0  2.376157  0
O  O83  1  0.04528456  0.45627988  0.82418266  1  0  -0.693163  0  2.096872  0  0  -0.623699  0  2.367477  0  0  -0.653512  0  2.353837  0  0  -0.352904  -0.602936  0  2.376171  0
O  O84  1  0.04528365  0.95628063  0.67581749  1  0  -0.693089  0  2.096865  0  0  -0.623619  0  2.367453  0  0  -0.65343  0  2.353812  0  0  -0.352848  -0.602857  0  2.376147  0
O  O85  1  0.45471559  0.95628142  0.82418247  1  0  -0.693159  0  2.096904  0  0  -0.623695  0  2.367506  0  0  -0.653508  0  2.353867  0  0  -0.352904  -0.602934  0  2.3762  0
O  O86  1  0.54528293  0.54371932  0.32418228  1  0  -0.693159  0  2.096842  0  0  -0.623686  0  2.367415  0  0  -0.6535  0  2.353774  0  0  -0.352889  -0.602926  0  2.37611  0
O  O87  1  0.95471571  0.54371983  0.17581686  1  0  -0.693091  0  2.096878  0  0  -0.623624  0  2.367485  0  0  -0.653436  0  2.353843  0  0  -0.352865  -0.602865  0  2.376184  0
O  O88  1  0.43114968  0.85099093  0.44263433  1  0  -0.661049  0  2.006062  0  0  -0.615851  0  2.261037  0  0  -0.637197  0  2.246906  0  0  -0.418937  -0.600892  0  2.270344  0
O  O89  1  0.06885318  0.85099191  0.05736521  1  0  -0.661019  0  2.006103  0  0  -0.615839  0  2.261117  0  0  -0.637185  0  2.246987  0  0  -0.418923  -0.600857  0  2.270403  0
O  O90  1  0.93114995  0.64901029  0.55736639  1  0  -0.661085  0  2.00607  0  0  -0.61589  0  2.26105  0  0  -0.637237  0  2.246919  0  0  -0.418952  -0.600915  0  2.270331  0
O  O91  1  0.56884973  0.64900878  0.94263179  1  0  -0.661072  0  2.006086  0  0  -0.615871  0  2.261045  0  0  -0.637216  0  2.246914  0  0  -0.418936  -0.600913  0  2.270364  0
O  O92  1  0.56884903  0.14900878  0.55736587  1  0  -0.661071  0  2.00609  0  0  -0.615871  0  2.261061  0  0  -0.637219  0  2.246933  0  0  -0.418936  -0.600902  0  2.270356  0
O  O93  1  0.93114864  0.14900920  0.94263295  1  0  -0.661032  0  2.006105  0  0  -0.615825  0  2.261059  0  0  -0.637171  0  2.24693  0  0  -0.418912  -0.600864  0  2.270368  0
O  O94  1  0.06884255  0.35099082  0.44263450  1  0  -0.661006  0  2.006116  0  0  -0.615793  0  2.261077  0  0  -0.637141  0  2.246949  0  0  -0.418894  -0.600834  0  2.270405  0
O  O95  1  0.43114898  0.35099022  0.05736705  1  0  -0.661071  0  2.006109  0  0  -0.615866  0  2.26109  0  0  -0.637212  0  2.246959  0  0  -0.418941  -0.600898  0  2.270391  0
O  O96  1  0.60920699  0.29710479  0.34520928  1  0  -0.645451  0  1.967878  0  0  -0.599511  0  2.216617  0  0  -0.620922  0  2.204193  0  0  -0.388081  -0.584634  0  2.22478  0
O  O97  1  0.89080077  0.29710526  0.15479188  1  0  -0.645342  0  1.968089  0  0  -0.599389  0  2.216805  0  0  -0.620798  0  2.204389  0  0  -0.388018  -0.584507  0  2.224966  0
O  O98  1  0.10920758  0.20289487  0.65479106  1  0  -0.645385  0  1.967866  0  0  -0.599443  0  2.216601  0  0  -0.620852  0  2.204177  0  0  -0.388067  -0.584562  0  2.224762  0
O  O99  1  0.39079097  0.20289410  0.84521021  1  0  -0.645432  0  1.967946  0  0  -0.59949  0  2.216685  0  0  -0.620899  0  2.204261  0  0  -0.388074  -0.58461  0  2.224844  0
O  O100  1  0.39080105  0.70289421  0.65479162  1  0  -0.645351  0  1.968045  0  0  -0.599404  0  2.216763  0  0  -0.620814  0  2.204345  0  0  -0.388022  -0.584533  0  2.22492  0
O  O101  1  0.10920727  0.70289515  0.84520970  1  0  -0.645411  0  1.967975  0  0  -0.599465  0  2.216709  0  0  -0.620874  0  2.204286  0  0  -0.388042  -0.584586  0  2.224867  0
O  O102  1  0.89079736  0.79710413  0.34520915  1  0  -0.645384  0  1.967974  0  0  -0.599439  0  2.216701  0  0  -0.620848  0  2.204276  0  0  -0.388049  -0.584562  0  2.224862  0
O  O103  1  0.60920464  0.79710771  0.15479000  1  0  -0.645418  0  1.967845  0  0  -0.599474  0  2.216579  0  0  -0.620882  0  2.204157  0  0  -0.388046  -0.584597  0  2.224739  0
O  O104  1  0.98013587  0.14437014  0.44406050  1  0  -0.664983  0  2.033908  0  0  -0.619238  0  2.290114  0  0  -0.641075  0  2.277617  0  0  -0.40988  -0.603997  0  2.298297  0
O  O105  1  0.51986302  0.14437105  0.05594106  1  0  -0.665014  0  2.033977  0  0  -0.619263  0  2.290164  0  0  -0.641097  0  2.277661  0  0  -0.409868  -0.604024  0  2.298346  0
O  O106  1  0.48013500  0.35563006  0.55594012  1  0  -0.664993  0  2.033948  0  0  -0.619248  0  2.290155  0  0  -0.641085  0  2.277654  0  0  -0.409878  -0.604008  0  2.298339  0
O  O107  1  0.01986308  0.35563059  0.94406074  1  0  -0.665005  0  2.033906  0  0  -0.619257  0  2.290103  0  0  -0.641092  0  2.277601  0  0  -0.40989  -0.604016  0  2.298289  0
O  O108  1  0.01986284  0.85563097  0.55594039  1  0  -0.66496  0  2.033968  0  0  -0.619208  0  2.290154  0  0  -0.641043  0  2.277653  0  0  -0.409854  -0.603972  0  2.298337  0
O  O109  1  0.48013725  0.85563006  0.94405915  1  0  -0.664966  0  2.033964  0  0  -0.619215  0  2.290163  0  0  -0.641049  0  2.277664  0  0  -0.40987  -0.603978  0  2.298344  0
O  O110  1  0.51986216  0.64437105  0.44405803  1  0  -0.665002  0  2.033938  0  0  -0.619256  0  2.290132  0  0  -0.641091  0  2.277629  0  0  -0.409893  -0.60402  0  2.298319  0
O  O111  1  0.98013564  0.64437053  0.05594015  1  0  -0.665023  0  2.033899  0  0  -0.619274  0  2.290104  0  0  -0.64111  0  2.277602  0  0  -0.409857  -0.604031  0  2.298283  0
