# generated using pymatgen
data_Cd2H20C31(N2O3)3
_symmetry_space_group_name_H-M   'P 1'
_cell_length_a   13.71913715
_cell_length_b   13.74635205
_cell_length_c   21.16170358
_cell_angle_alpha   89.99971548
_cell_angle_beta   103.39398237
_cell_angle_gamma   90.00007477
_symmetry_Int_Tables_number   1
_chemical_formula_structural   Cd2H20C31(N2O3)3
_chemical_formula_sum   'Cd8 H80 C124 N24 O36'
_cell_volume   3882.29509715
_cell_formula_units_Z   4
loop_
 _symmetry_equiv_pos_site_id
 _symmetry_equiv_pos_as_xyz
  1  'x, y, z'
loop_
 _atom_site_type_symbol
 _atom_site_label
 _atom_site_symmetry_multiplicity
 _atom_site_fract_x
 _atom_site_fract_y
 _atom_site_fract_z
 _atom_site_occupancy
 _atom_site_pbe_bader_charge
 _atom_site_pbe_bader_spin_density
 _atom_site_pbe_cm5_charge
 _atom_site_pbe_ddec_charge
 _atom_site_pbe_ddec_spin_density
 _atom_site_pbe_ddec_sum_bond_order
 _atom_site_pbe_magmom
Cd  Cd0  1  0.32771882  0.47236704  0.35230562  1  1.234289  0  0.770417  0.856  0  2.193288  0
Cd  Cd1  1  0.67229587  0.97238078  0.14770491  1  1.234354  0  0.770404  0.856088  0  2.193139  0
Cd  Cd2  1  0.67229209  0.52763428  0.64769945  1  1.234287  0  0.770374  0.855939  0  2.193418  0
Cd  Cd3  1  0.32770907  0.02763800  0.85229986  1  1.234103  0  0.770411  0.856002  0  2.193293  0
Cd  Cd4  1  0.02666621  0.32031160  0.71768998  1  1.242043  0  0.7742  0.927908  0  2.056482  0
Cd  Cd5  1  0.97333790  0.82031161  0.78230793  1  1.241949  0  0.77423  0.927911  0  2.056455  0
Cd  Cd6  1  0.97333362  0.67967444  0.28230278  1  1.241858  0  0.774257  0.927945  0  2.056453  0
Cd  Cd7  1  0.02666547  0.17967588  0.21769522  1  1.241957  0  0.77425  0.92795  0  2.056395  0
H  H8  1  0.94306832  0.42721979  0.78859032  1  0.646122  0  0.281072  0.372824  0  0.97075  0
H  H9  1  0.05693829  0.92721870  0.71141106  1  0.646091  0  0.281028  0.372752  0  0.970835  0
H  H10  1  0.05693683  0.57277644  0.21140455  1  0.645385  0  0.281049  0.372797  0  0.970787  0
H  H11  1  0.94306823  0.07276807  0.28859533  1  0.645479  0  0.281032  0.372763  0  0.970829  0
H  H12  1  0.93075185  0.49778766  0.72513650  1  0.638634  0  0.284466  0.390805  0  0.947582  0
H  H13  1  0.06925224  0.99778936  0.77486318  1  0.63876  0  0.284435  0.390804  0  0.947592  0
H  H14  1  0.06925408  0.50220929  0.27485894  1  0.638809  0  0.284477  0.39083  0  0.947543  0
H  H15  1  0.93075562  0.00220396  0.22514055  1  0.63879  0  0.28444  0.390795  0  0.947601  0
H  H16  1  0.16600177  0.39507066  0.52442560  1  0.124311  0  0.107217  0.119802  0  1.003554  0
H  H17  1  0.83398977  0.89507295  0.97557687  1  0.124235  0  0.107208  0.119772  0  1.003573  0
H  H18  1  0.83399078  0.60493503  0.47557001  1  0.124152  0  0.107252  0.119839  0  1.003509  0
H  H19  1  0.16600329  0.10493782  0.02442827  1  0.124279  0  0.107207  0.119815  0  1.003513  0
H  H20  1  0.85236328  0.33589631  0.50138417  1  0.058662  0  0.100257  0.10447  0  1.027984  0
H  H21  1  0.14762731  0.83590390  0.99860908  1  0.058656  0  0.100171  0.104385  0  1.027944  0
H  H22  1  0.14763340  0.66408391  0.49860536  1  0.058584  0  0.10018  0.104372  0  1.027982  0
H  H23  1  0.85235871  0.16407850  0.00138947  1  0.058654  0  0.10017  0.104373  0  1.028006  0
H  H24  1  0.96819293  0.40857198  0.33412254  1  0.11555  0  0.108515  0.119727  0  1.007899  0
H  H25  1  0.03180796  0.90857399  0.16587572  1  0.115602  0  0.108524  0.119727  0  1.007906  0
H  H26  1  0.03180468  0.59142716  0.66587041  1  0.115629  0  0.108569  0.119864  0  1.007919  0
H  H27  1  0.96819383  0.09143024  0.83412581  1  0.11568  0  0.108508  0.119743  0  1.007949  0
H  H28  1  0.68952091  0.25305823  0.22134927  1  0.071577  0  0.093681  0.089009  0  1.058176  0
H  H29  1  0.31047789  0.75306049  0.27864636  1  0.071745  0  0.093675  0.088963  0  1.058178  0
H  H30  1  0.31047461  0.74692345  0.77864625  1  0.07163  0  0.093675  0.088953  0  1.058209  0
H  H31  1  0.68952749  0.24694592  0.72135280  1  0.071567  0  0.093684  0.089003  0  1.058095  0
H  H32  1  0.53501510  0.31602089  0.25117061  1  0.068411  0  0.096931  0.104936  0  1.008817  0
H  H33  1  0.46498447  0.81602942  0.24883041  1  0.068447  0  0.096957  0.104936  0  1.008806  0
H  H34  1  0.46498194  0.68396588  0.74882558  1  0.068454  0  0.096888  0.104897  0  1.008806  0
H  H35  1  0.53501644  0.18398645  0.75116864  1  0.068399  0  0.096928  0.104908  0  1.008921  0
H  H36  1  0.71456418  0.43289561  0.42811400  1  0.110783  0  0.106594  0.119752  0  0.999634  0
H  H37  1  0.28544066  0.93290762  0.07188509  1  0.110593  0  0.106623  0.11982  0  0.999745  0
H  H38  1  0.28544009  0.56709625  0.57187839  1  0.11051  0  0.106635  0.119835  0  0.999826  0
H  H39  1  0.71455204  0.06710024  0.92811338  1  0.110735  0  0.106606  0.119833  0  0.999698  0
H  H40  1  0.47203898  0.60162845  0.47538600  1  0.199684  0  0.145407  0.130706  0  0.98886  0
H  H41  1  0.52797156  0.10163538  0.02461489  1  0.199911  0  0.145424  0.130723  0  0.988725  0
H  H42  1  0.52796882  0.39836632  0.52461678  1  0.199863  0  0.145396  0.130698  0  0.988784  0
H  H43  1  0.47201786  0.89838558  0.97539167  1  0.199767  0  0.145464  0.130699  0  0.988983  0
H  H44  1  0.20889963  0.69511017  0.34247758  1  0.17348  0  0.122365  0.126274  0  1.021822  0
H  H45  1  0.79110420  0.19512617  0.15752330  1  0.173395  0  0.122376  0.126336  0  1.021745  0
H  H46  1  0.79110986  0.30489843  0.65752872  1  0.173482  0  0.122403  0.126323  0  1.02153  0
H  H47  1  0.20889568  0.80489697  0.84247042  1  0.173451  0  0.122377  0.126261  0  1.021705  0
H  H48  1  0.26176713  0.83435272  0.43769882  1  0.135612  0  0.130975  0.131948  0  0.988859  0
H  H49  1  0.73823178  0.33436986  0.06230106  1  0.13582  0  0.130999  0.131905  0  0.989011  0
H  H50  1  0.73825723  0.16565514  0.56230751  1  0.135655  0  0.131016  0.13191  0  0.988868  0
H  H51  1  0.26174972  0.66565983  0.93769644  1  0.135643  0  0.130959  0.131872  0  0.989041  0
H  H52  1  0.58177267  0.72952163  0.52579325  1  0.121724  0  0.124751  0.14688  0  0.986678  0
H  H53  1  0.41823406  0.22953486  0.97421123  1  0.122366  0  0.124818  0.146997  0  0.986675  0
H  H54  1  0.41824366  0.27047459  0.47421582  1  0.122538  0  0.124827  0.147042  0  0.9866  0
H  H55  1  0.58174617  0.77049628  0.02579037  1  0.122518  0  0.124767  0.146873  0  0.986588  0
H  H56  1  0.56860525  0.91345916  0.68908866  1  0.104919  0  0.120025  0.136531  0  0.992252  0
H  H57  1  0.43139436  0.41346366  0.81090906  1  0.104825  0  0.120053  0.136636  0  0.992154  0
H  H58  1  0.43140297  0.08653125  0.31092174  1  0.105076  0  0.12004  0.136519  0  0.992272  0
H  H59  1  0.56859956  0.58654493  0.18908436  1  0.105155  0  0.119976  0.136427  0  0.992353  0
H  H60  1  0.29612812  0.83086438  0.55237168  1  0.06824  0  0.122425  0.140077  0  0.994469  0
H  H61  1  0.70387452  0.33087716  0.94762504  1  0.068432  0  0.122485  0.140111  0  0.994396  0
H  H62  1  0.70388488  0.16913039  0.44763082  1  0.068562  0  0.122429  0.140037  0  0.994442  0
H  H63  1  0.29611170  0.66913652  0.05237732  1  0.068188  0  0.122422  0.139985  0  0.994467  0
H  H64  1  0.73583946  0.81150141  0.54065635  1  0.131018  0  0.131872  0.133035  0  0.987741  0
H  H65  1  0.26416168  0.31150476  0.95934314  1  0.131034  0  0.131914  0.133069  0  0.987816  0
H  H66  1  0.26416328  0.18849336  0.45934909  1  0.13083  0  0.131861  0.133002  0  0.987872  0
H  H67  1  0.73582862  0.68851038  0.04065219  1  0.131038  0  0.13181  0.132912  0  0.987893  0
H  H68  1  0.92584713  0.80451272  0.62366571  1  0.155576  0  0.124534  0.132012  0  1.015687  0
H  H69  1  0.07415611  0.30450720  0.87633219  1  0.155708  0  0.124486  0.131919  0  1.015815  0
H  H70  1  0.07416063  0.19548133  0.37633611  1  0.155744  0  0.124493  0.131869  0  1.015751  0
H  H71  1  0.92583634  0.69549048  0.12366152  1  0.155831  0  0.124463  0.131862  0  1.015701  0
H  H72  1  0.70929386  0.80467854  0.73660013  1  0.160002  0  0.149416  0.122234  0  0.964882  0
H  H73  1  0.29071478  0.30467528  0.76340130  1  0.160121  0  0.149425  0.122239  0  0.964984  0
H  H74  1  0.29072242  0.19531404  0.26340799  1  0.160127  0  0.149459  0.122162  0  0.965009  0
H  H75  1  0.70928382  0.69532531  0.23659604  1  0.160183  0  0.149447  0.122214  0  0.964956  0
H  H76  1  0.44488994  0.89346661  0.75843269  1  0.154345  0  0.143417  0.109331  0  0.975394  0
H  H77  1  0.55510436  0.39346887  0.74156589  1  0.154261  0  0.143406  0.109294  0  0.9754  0
H  H78  1  0.55511885  0.10654271  0.24157447  1  0.154218  0  0.143405  0.109283  0  0.975462  0
H  H79  1  0.44489214  0.60654336  0.25843401  1  0.154048  0  0.143384  0.10924  0  0.975413  0
H  H80  1  0.18044421  0.05480283  0.68867639  1  0.119631  0  0.128525  0.123626  0  0.981605  0
H  H81  1  0.81955214  0.55480604  0.81131268  1  0.119411  0  0.12847  0.123511  0  0.981693  0
H  H82  1  0.81954831  0.94517812  0.31131875  1  0.119492  0  0.128447  0.123527  0  0.981625  0
H  H83  1  0.18045716  0.44518582  0.18869029  1  0.119211  0  0.128494  0.123571  0  0.981554  0
H  H84  1  0.25208398  0.99096663  0.58339318  1  0.107374  0  0.129945  0.12873  0  0.99212  0
H  H85  1  0.74791528  0.49097986  0.91660072  1  0.107421  0  0.129928  0.12866  0  0.99214  0
H  H86  1  0.74791629  0.00900632  0.41660768  1  0.107159  0  0.129954  0.128708  0  0.991992  0
H  H87  1  0.25208726  0.50901782  0.08340091  1  0.107386  0  0.129901  0.128632  0  0.992211  0
C  C88  1  0.07574330  0.40459569  0.42615381  1  -0.068074  0  -0.020205  -0.038156  0  3.998646  0
C  C89  1  0.92425542  0.90459834  0.07384609  1  -0.068049  0  -0.020204  -0.038255  0  3.998807  0
C  C90  1  0.92425212  0.59540853  0.57383981  1  -0.069172  0  -0.020255  -0.038085  0  3.99855  0
C  C91  1  0.07574275  0.09540734  0.92615734  1  -0.068626  0  -0.020296  -0.038205  0  3.99846  0
C  C92  1  0.09108883  0.38890128  0.49318721  1  0.0154  0  -0.073145  -0.100459  0  3.914191  0
C  C93  1  0.90890456  0.88890261  0.00681257  1  0.015204  0  -0.073174  -0.10038  0  3.914362  0
C  C94  1  0.90890509  0.61110222  0.50680622  1  0.01614  0  -0.073173  -0.100353  0  3.913946  0
C  C95  1  0.09108843  0.11110162  0.99319113  1  0.015709  0  -0.073137  -0.100409  0  3.913908  0
C  C96  1  0.01019185  0.36501811  0.51989073  1  -0.051695  0  -0.018289  -0.022538  0  3.979012  0
C  C97  1  0.98979921  0.86502009  0.98010713  1  -0.051493  0  -0.018349  -0.022711  0  3.979221  0
C  C98  1  0.98980429  0.63497738  0.48010251  1  -0.05157  0  -0.018344  -0.022981  0  3.979327  0
C  C99  1  0.01018920  0.13497322  0.01989457  1  -0.051668  0  -0.018302  -0.022851  0  3.9791  0
C  C100  1  0.91394304  0.35607892  0.47939119  1  -0.006635  0  -0.073369  -0.120558  0  3.898325  0
C  C101  1  0.08605061  0.85608501  0.02060457  1  -0.00641  0  -0.073153  -0.12035  0  3.898073  0
C  C102  1  0.08605380  0.64391003  0.52060119  1  -0.006462  0  -0.073083  -0.120044  0  3.898173  0
C  C103  1  0.91393992  0.14390685  0.97939504  1  -0.006785  0  -0.073239  -0.120254  0  3.898166  0
C  C104  1  0.89758645  0.36989211  0.41218426  1  0.034528  0  -0.00589  0.069439  0  4.000608  0
C  C105  1  0.10241328  0.86989733  0.08781172  1  0.034693  0  -0.005883  0.06955  0  4.000309  0
C  C106  1  0.10241261  0.63009975  0.58780793  1  0.035163  0  -0.005989  0.069406  0  4.000665  0
C  C107  1  0.89758319  0.13010180  0.91218770  1  0.034614  0  -0.005876  0.069498  0  4.000422  0
C  C108  1  0.97932928  0.39597876  0.38617772  1  -0.020042  0  -0.07353  -0.123406  0  3.889954  0
C  C109  1  0.02067074  0.89598233  0.11382004  1  -0.020069  0  -0.073567  -0.123465  0  3.889865  0
C  C110  1  0.02066758  0.60402037  0.61381514  1  -0.020056  0  -0.073658  -0.123765  0  3.890291  0
C  C111  1  0.97932805  0.10402044  0.88618111  1  -0.020083  0  -0.073573  -0.123542  0  3.889956  0
C  C112  1  0.79737853  0.35398569  0.36862990  1  -0.01792  0  -0.002138  0.046677  0  3.957638  0
C  C113  1  0.20262332  0.85399240  0.13136646  1  -0.018827  0  -0.002191  0.046772  0  3.957283  0
C  C114  1  0.20262063  0.64600180  0.63136420  1  -0.019284  0  -0.002194  0.046611  0  3.957421  0
C  C115  1  0.79737610  0.14600964  0.86863240  1  -0.017946  0  -0.002148  0.046683  0  3.957296  0
C  C116  1  0.78843898  0.30078690  0.31035560  1  -0.000319  0  -0.006354  -0.042349  0  3.892632  0
C  C117  1  0.21156165  0.80078915  0.18963950  1  -0.000486  0  -0.006401  -0.042398  0  3.892579  0
C  C118  1  0.21155726  0.69919623  0.68963954  1  0.000195  0  -0.006371  -0.042163  0  3.892498  0
C  C119  1  0.78843997  0.19920999  0.81035870  1  -0.000545  0  -0.006377  -0.042189  0  3.892375  0
C  C120  1  0.69480754  0.29119850  0.26713592  1  -0.029227  0  -0.099907  -0.116994  0  4.031103  0
C  C121  1  0.30519232  0.79120228  0.23286008  1  -0.029332  0  -0.09988  -0.116974  0  4.031159  0
C  C122  1  0.30518945  0.70878464  0.73285932  1  -0.029447  0  -0.099904  -0.11704  0  4.031264  0
C  C123  1  0.69481005  0.20880413  0.76713821  1  -0.029478  0  -0.099892  -0.117088  0  4.031123  0
C  C124  1  0.60884046  0.32633828  0.28328758  1  -0.071183  0  -0.101073  -0.11834  0  4.027179  0
C  C125  1  0.39116053  0.82634587  0.21671072  1  -0.071134  0  -0.101133  -0.118333  0  4.027239  0
C  C126  1  0.39115722  0.67364921  0.71670680  1  -0.071085  0  -0.101057  -0.118268  0  4.027062  0
C  C127  1  0.60883958  0.17366636  0.78328729  1  -0.070937  0  -0.101045  -0.118245  0  4.0273  0
C  C128  1  0.61562870  0.37459323  0.34250510  1  -0.072697  0  -0.030307  -0.03598  0  4.008866  0
C  C129  1  0.38437351  0.87460525  0.15749496  1  -0.072773  0  -0.030249  -0.03594  0  4.008955  0
C  C130  1  0.38437121  0.62539645  0.65748910  1  -0.070342  0  -0.030299  -0.036001  0  4.00894  0
C  C131  1  0.61562514  0.12540770  0.84250333  1  -0.072692  0  -0.03027  -0.035917  0  4.008755  0
C  C132  1  0.71000965  0.39082484  0.38374449  1  -0.040972  0  -0.081833  -0.137679  0  3.917239  0
C  C133  1  0.28999333  0.89083607  0.11625367  1  -0.039929  0  -0.081872  -0.137867  0  3.917608  0
C  C134  1  0.28999096  0.60916411  0.61624885  1  -0.039828  0  -0.081824  -0.137763  0  3.9176  0
C  C135  1  0.71000385  0.10917252  0.88374490  1  -0.040481  0  -0.08188  -0.137883  0  3.917354  0
C  C136  1  0.16370192  0.42545767  0.39789651  1  1.530288  0  0.194938  0.567156  0  4.20116  0
C  C137  1  0.83629923  0.92546234  0.10210405  1  1.530267  0  0.195032  0.567331  0  4.20092  0
C  C138  1  0.83629652  0.57454656  0.60209797  1  1.530279  0  0.194942  0.567009  0  4.201329  0
C  C139  1  0.16370200  0.07454698  0.89790072  1  1.530245  0  0.195047  0.567235  0  4.201146  0
C  C140  1  0.02549476  0.34643566  0.59124882  1  1.528546  0  0.184096  0.556006  0  4.239451  0
C  C141  1  0.97449317  0.84643705  0.90874875  1  1.528575  0  0.184083  0.555929  0  4.23913  0
C  C142  1  0.97450505  0.65355256  0.40874347  1  1.528569  0  0.18416  0.556101  0  4.239221  0
C  C143  1  0.02548484  0.15354535  0.09125303  1  1.528696  0  0.18415  0.555949  0  4.238814  0
C  C144  1  0.87438662  0.24403265  0.29493676  1  1.589714  0  0.202505  0.576531  0  4.246061  0
C  C145  1  0.12561350  0.74403401  0.20505720  1  1.589487  0  0.202565  0.576642  0  4.246054  0
C  C146  1  0.12561202  0.75595048  0.70506153  1  1.589569  0  0.202535  0.576407  0  4.246391  0
C  C147  1  0.87438796  0.25596149  0.79493814  1  1.589743  0  0.202518  0.576503  0  4.246123  0
C  C148  1  0.52095469  0.40683555  0.35997057  1  1.532964  0  0.177264  0.544409  0  4.256249  0
C  C149  1  0.47905021  0.90685277  0.14003342  1  1.533259  0  0.177529  0.544706  0  4.255932  0
C  C150  1  0.47904832  0.59315777  0.64002591  1  1.53056  0  0.177398  0.544577  0  4.256005  0
C  C151  1  0.52094921  0.09316164  0.85996544  1  1.533106  0  0.177301  0.544368  0  4.256297  0
C  C152  1  0.40981206  0.64643110  0.45048653  1  0.964386  0  0.153196  0.115511  0  3.86306  0
C  C153  1  0.59019583  0.14644050  0.04951375  1  0.964348  0  0.153271  0.115687  0  3.862781  0
C  C154  1  0.59019727  0.35356731  0.54951691  1  0.964759  0  0.153256  0.115605  0  3.862972  0
C  C155  1  0.40979566  0.85358046  0.95048977  1  0.964546  0  0.153086  0.115464  0  3.863379  0
C  C156  1  0.27262092  0.69648122  0.38371334  1  0.438289  0  0.009902  0.004764  0  3.973736  0
C  C157  1  0.72738222  0.19649840  0.11628839  1  0.439259  0  0.009904  0.004688  0  3.973471  0
C  C158  1  0.72738998  0.30352374  0.61629172  1  0.438012  0  0.00984  0.004656  0  3.973671  0
C  C159  1  0.27261268  0.80352693  0.88370942  1  0.438857  0  0.009948  0.004801  0  3.973767  0
C  C160  1  0.29676909  0.76576787  0.43106995  1  0.25588  0  0.004062  -0.101539  0  3.895517  0
C  C161  1  0.70323083  0.26578451  0.06893094  1  0.255463  0  0.004083  -0.101346  0  3.89532  0
C  C162  1  0.70324773  0.23423782  0.56893445  1  0.256711  0  0.004082  -0.101301  0  3.895423  0
C  C163  1  0.29675304  0.73424373  0.93106923  1  0.255664  0  0.004068  -0.101312  0  3.895496  0
C  C164  1  0.43444055  0.78105580  0.53089108  1  0.350549  0  0.108872  0.214254  0  4.034567  0
C  C165  1  0.56556341  0.28106877  0.96910989  1  0.35142  0  0.109009  0.214391  0  4.034554  0
C  C166  1  0.56557335  0.21893970  0.46911437  1  0.301459  0  0.108974  0.214429  0  4.034665  0
C  C167  1  0.43442139  0.71895583  0.03089371  1  0.350795  0  0.108819  0.214096  0  4.0347  0
C  C168  1  0.53829405  0.77320754  0.55233451  1  0.041601  0  -0.08199  -0.255196  0  3.911189  0
C  C169  1  0.46170993  0.27322049  0.94766794  1  0.040702  0  -0.082108  -0.255444  0  3.911476  0
C  C170  1  0.46172000  0.22678650  0.44767380  1  0.089855  0  -0.082119  -0.255532  0  3.911451  0
C  C171  1  0.53827477  0.72680556  0.05233376  1  0.040521  0  -0.081969  -0.255124  0  3.910963  0
C  C172  1  0.58508981  0.81910318  0.61025483  1  0.314866  0  0.109066  0.222304  0  4.026919  0
C  C173  1  0.41491297  0.31911211  0.88974623  1  0.314891  0  0.109098  0.22242  0  4.026737  0
C  C174  1  0.41492058  0.18088940  0.38975442  1  0.314808  0  0.10909  0.222335  0  4.026822  0
C  C175  1  0.58507746  0.68090593  0.11025147  1  0.314972  0  0.109206  0.222587  0  4.026434  0
C  C176  1  0.53049587  0.87369530  0.64588829  1  0.084899  0  -0.085586  -0.262075  0  3.92257  0
C  C177  1  0.46950430  0.37370461  0.85411163  1  0.085074  0  -0.085629  -0.262309  0  3.922587  0
C  C178  1  0.46951382  0.12629584  0.35412182  1  0.085163  0  -0.085677  -0.262094  0  3.922562  0
C  C179  1  0.53048753  0.62630980  0.14588436  1  0.084993  0  -0.085613  -0.262158  0  3.922592  0
C  C180  1  0.42642246  0.87852311  0.62384070  1  0.304456  0  0.105833  0.213033  0  4.036611  0
C  C181  1  0.57357771  0.37853463  0.87615873  1  0.304042  0  0.105926  0.213231  0  4.036613  0
C  C182  1  0.57358780  0.12146948  0.37616618  1  0.3041  0  0.105951  0.213162  0  4.036588  0
C  C183  1  0.42641282  0.62148051  0.12384088  1  0.303897  0  0.105877  0.213165  0  4.036559  0
C  C184  1  0.37760429  0.83220846  0.56666029  1  0.072896  0  -0.085827  -0.263775  0  3.939192  0
C  C185  1  0.62239853  0.33222325  0.93333976  1  0.072776  0  -0.085979  -0.263924  0  3.939202  0
C  C186  1  0.62240889  0.16778486  0.43334554  1  0.072424  0  -0.085899  -0.263925  0  3.939207  0
C  C187  1  0.37758769  0.66779771  0.06666261  1  0.072908  0  -0.085886  -0.26374  0  3.939124  0
C  C188  1  0.75929553  0.81036283  0.59312621  1  0.280106  0  0.006542  -0.092828  0  3.906273  0
C  C189  1  0.24070708  0.31036273  0.90687300  1  0.280165  0  0.006468  -0.093021  0  3.906556  0
C  C190  1  0.24071166  0.18963194  0.40687885  1  0.280673  0  0.006435  -0.093219  0  3.906592  0
C  C191  1  0.75928395  0.68964659  0.09312195  1  0.280802  0  0.00651  -0.092921  0  3.906325  0
C  C192  1  0.85212666  0.80584568  0.63428407  1  0.418007  0  0.006484  -0.012926  0  3.96447  0
C  C193  1  0.14787661  0.30584186  0.86571430  1  0.417974  0  0.006579  -0.012757  0  3.964416  0
C  C194  1  0.14788117  0.19414837  0.36571918  1  0.417695  0  0.006591  -0.012622  0  3.964334  0
C  C195  1  0.85211586  0.69415801  0.13427989  1  0.417365  0  0.006681  -0.012607  0  3.964147  0
C  C196  1  0.74366865  0.80735697  0.69538578  1  0.952412  0  0.155488  0.111415  0  3.889679  0
C  C197  1  0.25633771  0.30735682  0.80461440  1  0.952149  0  0.155481  0.111332  0  3.889525  0
C  C198  1  0.25634380  0.19263416  0.30462043  1  0.952116  0  0.155569  0.111482  0  3.889459  0
C  C199  1  0.74365784  0.69264668  0.19538160  1  0.952  0  0.155491  0.111387  0  3.889416  0
C  C200  1  0.38285472  0.93034279  0.72629763  1  1.008742  0  0.149495  0.108629  0  3.913569  0
C  C201  1  0.61714128  0.43034535  0.77369953  1  1.008766  0  0.14948  0.108656  0  3.913537  0
C  C202  1  0.61715172  0.06965925  0.27370734  1  1.008718  0  0.149437  0.108656  0  3.913856  0
C  C203  1  0.38285677  0.56966179  0.22630152  1  1.008834  0  0.149531  0.108833  0  3.913445  0
C  C204  1  0.24645578  0.01199853  0.68770104  1  0.469056  0  0.01071  -0.003439  0  3.990808  0
C  C205  1  0.75354265  0.51200145  0.81229139  1  0.469232  0  0.010735  -0.003345  0  3.990826  0
C  C206  1  0.75354291  0.98798824  0.31229820  1  0.46937  0  0.010856  -0.003283  0  3.990518  0
C  C207  1  0.24646288  0.48799550  0.18771062  1  0.469396  0  0.010745  -0.003328  0  3.990638  0
C  C208  1  0.28058505  0.98119884  0.63514309  1  0.284213  0  0.004154  -0.100187  0  3.911973  0
C  C209  1  0.71941339  0.48120793  0.86485076  1  0.284003  0  0.004198  -0.100045  0  3.91171  0
C  C210  1  0.71941524  0.01878211  0.36485824  1  0.284037  0  0.004191  -0.100081  0  3.911599  0
C  C211  1  0.28058840  0.51879266  0.13515077  1  0.284031  0  0.004181  -0.100005  0  3.911814  0
N  N212  1  0.34354749  0.62322954  0.39635030  1  -1.234133  0  -0.35838  -0.293736  0  3.539214  0
N  N213  1  0.65646100  0.12324211  0.10365067  1  -1.234372  0  -0.358424  -0.293874  0  3.539149  0
N  N214  1  0.65645962  0.37677178  0.60365334  1  -1.234493  0  -0.358364  -0.293766  0  3.539129  0
N  N215  1  0.34353847  0.87677885  0.89634914  1  -1.234105  0  -0.358337  -0.293737  0  3.539163  0
N  N216  1  0.38424204  0.73358957  0.47330808  1  -1.269815  0  -0.225264  0.001177  0  3.79569  0
N  N217  1  0.61576209  0.23360173  0.02669260  1  -1.270983  0  -0.225379  0.000952  0  3.795381  0
N  N218  1  0.61577404  0.26641029  0.52669623  1  -1.270739  0  -0.225331  0.001053  0  3.795604  0
N  N219  1  0.38422049  0.76642432  0.97331119  1  -1.27047  0  -0.225226  0.001177  0  3.795616  0
N  N220  1  0.69063751  0.81205368  0.63221214  1  -1.255611  0  -0.221177  0.004727  0  3.785346  0
N  N221  1  0.30936591  0.31205678  0.86778811  1  -1.255713  0  -0.221142  0.00494  0  3.78514  0
N  N222  1  0.30937202  0.18793891  0.36779511  1  -1.255825  0  -0.221232  0.00499  0  3.785244  0
N  N223  1  0.69062667  0.68795472  0.13220798  1  -1.256002  0  -0.221244  0.00477  0  3.785033  0
N  N224  1  0.84100883  0.80343488  0.69768359  1  -1.173387  0  -0.350204  -0.285748  0  3.547313  0
N  N225  1  0.15899664  0.30343102  0.80231461  1  -1.173304  0  -0.350299  -0.285817  0  3.547011  0
N  N226  1  0.15900275  0.19655626  0.30232015  1  -1.173111  0  -0.350305  -0.285787  0  3.54704  0
N  N227  1  0.84099883  0.69656521  0.19767996  1  -1.172863  0  -0.350292  -0.285803  0  3.547006  0
N  N228  1  0.36808360  0.92955938  0.66015615  1  -1.313342  0  -0.223277  0.004394  0  3.790442  0
N  N229  1  0.63191386  0.42956834  0.83984073  1  -1.312941  0  -0.223247  0.004391  0  3.790202  0
N  N230  1  0.63192209  0.07043248  0.33984872  1  -1.31285  0  -0.22323  0.004459  0  3.790333  0
N  N231  1  0.36808267  0.57043952  0.16015965  1  -1.312751  0  -0.223265  0.004179  0  3.790383  0
N  N232  1  0.31031348  0.97904104  0.74400295  1  -1.205866  0  -0.347437  -0.28316  0  3.497726  0
N  N233  1  0.68968276  0.47903948  0.75599157  1  -1.205945  0  -0.347466  -0.283225  0  3.498035  0
N  N234  1  0.68968832  0.02095955  0.25599858  1  -1.205881  0  -0.347487  -0.283267  0  3.497942  0
N  N235  1  0.31032056  0.52096111  0.24401062  1  -1.205891  0  -0.347448  -0.283262  0  3.498047  0
O  O236  1  0.15065818  0.44749049  0.33733757  1  -1.18158  0  -0.331289  -0.574318  0  2.230865  0
O  O237  1  0.84934692  0.94748994  0.16266431  1  -1.181699  0  -0.331271  -0.574394  0  2.230956  0
O  O238  1  0.84934325  0.55251229  0.66265729  1  -1.181404  0  -0.33131  -0.574279  0  2.230941  0
O  O239  1  0.15065660  0.05251210  0.83734170  1  -1.181453  0  -0.331332  -0.574369  0  2.230843  0
O  O240  1  0.25155548  0.41845551  0.43430768  1  -1.161613  0  -0.335358  -0.550514  0  2.168172  0
O  O241  1  0.74844419  0.91847025  0.06569415  1  -1.161555  0  -0.335423  -0.550533  0  2.167937  0
O  O242  1  0.74844084  0.58154872  0.56568889  1  -1.161604  0  -0.335297  -0.550408  0  2.168242  0
O  O243  1  0.25155548  0.08155435  0.93430947  1  -1.161495  0  -0.335364  -0.550512  0  2.168346  0
O  O244  1  0.11215986  0.35193282  0.62899935  1  -1.16331  0  -0.350225  -0.576255  0  2.093572  0
O  O245  1  0.88782741  0.85192753  0.87099905  1  -1.163684  0  -0.350154  -0.576162  0  2.093538  0
O  O246  1  0.88783917  0.64806996  0.37099237  1  -1.163431  0  -0.350238  -0.576254  0  2.093543  0
O  O247  1  0.11215292  0.14807815  0.12900444  1  -1.16322  0  -0.350174  -0.576172  0  2.093461  0
O  O248  1  0.94709348  0.32478319  0.61197898  1  -1.147476  0  -0.339172  -0.562308  0  2.228471  0
O  O249  1  0.05289651  0.82479076  0.88801852  1  -1.147153  0  -0.339225  -0.5623  0  2.228203  0
O  O250  1  0.05291157  0.67518539  0.38801399  1  -1.147397  0  -0.339231  -0.562289  0  2.228318  0
O  O251  1  0.94707403  0.17515673  0.11198278  1  -1.147552  0  -0.339278  -0.562225  0  2.22791  0
O  O252  1  0.90658326  0.17206944  0.33083258  1  -1.185455  0  -0.327589  -0.572813  0  2.154911  0
O  O253  1  0.09341627  0.67207103  0.16916079  1  -1.185602  0  -0.327617  -0.572849  0  2.154904  0
O  O254  1  0.09341549  0.82791660  0.66916761  1  -1.185134  0  -0.327635  -0.572844  0  2.155079  0
O  O255  1  0.90658431  0.32792737  0.83083207  1  -1.185701  0  -0.327622  -0.572833  0  2.154918  0
O  O256  1  0.90387106  0.27060398  0.24426141  1  -1.160324  0  -0.338103  -0.563954  0  2.222884  0
O  O257  1  0.09612854  0.77060260  0.25573280  1  -1.160102  0  -0.338153  -0.564048  0  2.222812  0
O  O258  1  0.09613061  0.72937988  0.75573774  1  -1.160739  0  -0.338083  -0.563879  0  2.222929  0
O  O259  1  0.90387147  0.22938854  0.74426330  1  -1.160319  0  -0.338064  -0.563942  0  2.222867  0
O  O260  1  0.52264359  0.46586064  0.40599375  1  -1.173871  0  -0.342047  -0.574044  0  2.120435  0
O  O261  1  0.47736201  0.96588809  0.09401470  1  -1.173962  0  -0.342214  -0.574306  0  2.120343  0
O  O262  1  0.47736241  0.53413122  0.59400312  1  -1.174143  0  -0.342161  -0.574218  0  2.120247  0
O  O263  1  0.52263746  0.03412778  0.90598511  1  -1.17388  0  -0.342143  -0.574154  0  2.120448  0
O  O264  1  0.43885757  0.37112672  0.32469044  1  -1.154246  0  -0.35328  -0.583708  0  2.269524  0
O  O265  1  0.56114689  0.87113901  0.17531040  1  -1.15452  0  -0.35338  -0.583803  0  2.269508  0
O  O266  1  0.56114324  0.62886878  0.67530670  1  -1.154242  0  -0.353277  -0.583692  0  2.269535  0
O  O267  1  0.43885246  0.12887322  0.82468704  1  -1.154419  0  -0.353273  -0.583625  0  2.269584  0
O  O268  1  0.97959422  0.46286331  0.76004960  1  -1.254801  0  -0.597365  -0.758072  0  2.027402  0
O  O269  1  0.02041031  0.96286536  0.73994940  1  -1.2549  0  -0.597278  -0.757964  0  2.027428  0
O  O270  1  0.02041008  0.53712855  0.23994327  1  -1.254325  0  -0.597374  -0.758078  0  2.027347  0
O  O271  1  0.97959765  0.03712359  0.26005623  1  -1.254398  0  -0.597329  -0.758046  0  2.02739  0
