# generated using pymatgen
data_PrH27C16O9
_symmetry_space_group_name_H-M   'P 1'
_cell_length_a   8.43586760
_cell_length_b   8.87341141
_cell_length_c   13.02506303
_cell_angle_alpha   99.66527599
_cell_angle_beta   102.91586494
_cell_angle_gamma   98.41702704
_symmetry_Int_Tables_number   1
_chemical_formula_structural   PrH27C16O9
_chemical_formula_sum   'Pr2 H54 C32 O18'
_cell_volume   919.51368581
_cell_formula_units_Z   2
loop_
 _symmetry_equiv_pos_site_id
 _symmetry_equiv_pos_as_xyz
  1  'x, y, z'
loop_
 _atom_site_type_symbol
 _atom_site_label
 _atom_site_symmetry_multiplicity
 _atom_site_fract_x
 _atom_site_fract_y
 _atom_site_fract_z
 _atom_site_occupancy
 _atom_site_pbe_bader_spin_density
 _atom_site_pbe_cm5_charge
 _atom_site_pbe_ddec_charge
 _atom_site_pbe_ddec_spin_density
 _atom_site_pbe_ddec_sum_bond_order
 _atom_site_pbe_magmom
Pr  Pr0  1  0.24903835  0.51544227  0.49663602  1  0  1.51001  2.150366  0  2.110063  0
Pr  Pr1  1  0.75096118  0.48455692  0.50336323  1  0  1.510021  2.150403  0  2.110063  0
H  H2  1  0.73160447  0.29244927  0.22456524  1  0  0.108433  0.12895  0  1.017725  0
H  H3  1  0.26839749  0.70754991  0.77543515  1  0  0.108436  0.128938  0  1.017691  0
H  H4  1  0.78982405  0.11718582  0.24946068  1  0  0.103323  0.118811  0  0.987275  0
H  H5  1  0.21017520  0.88281217  0.75054069  1  0  0.103323  0.118771  0  0.987272  0
H  H6  1  0.96970914  0.12383062  0.12033715  1  0  0.08358  0.06936  0  1.019625  0
H  H7  1  0.03028990  0.87616622  0.87966328  1  0  0.083594  0.069416  0  1.019572  0
H  H8  1  0.92793131  0.30654770  0.10057646  1  0  0.091949  0.086925  0  0.99257  0
H  H9  1  0.07206895  0.69344915  0.89942339  1  0  0.091961  0.086936  0  0.992539  0
H  H10  1  0.62437154  0.18868301  0.02631185  1  0  0.083832  0.068328  0  1.015994  0
H  H11  1  0.37562774  0.81131501  0.97368799  1  0  0.083827  0.068312  0  1.016  0
H  H12  1  0.66656020  0.00513319  0.04426289  1  0  0.086353  0.075417  0  1.013471  0
H  H13  1  0.33343907  0.99486481  0.95573771  1  0  0.086362  0.075444  0  1.013475  0
H  H14  1  0.80920074  0.19645636  0.89884311  1  0  0.088598  0.08302  0  1.001879  0
H  H15  1  0.19079853  0.80354165  0.10115750  1  0  0.088579  0.082987  0  1.001911  0
H  H16  1  0.84668132  0.01050526  0.91518592  1  0  0.085248  0.073629  0  1.011343  0
H  H17  1  0.15331674  0.98949275  0.08481450  1  0  0.085251  0.073649  0  1.011339  0
H  H18  1  0.50316789  0.08406819  0.82827836  1  0  0.085954  0.069446  0  1.017178  0
H  H19  1  0.49683187  0.91593216  0.17172184  1  0  0.085943  0.069441  0  1.017186  0
H  H20  1  0.54379615  0.89828709  0.84291282  1  0  0.092624  0.083322  0  1.006696  0
H  H21  1  0.45620092  0.10171208  0.15708760  1  0  0.092628  0.083335  0  1.006691  0
H  H22  1  0.67933199  0.09521893  0.69789287  1  0  0.104272  0.125164  0  0.992957  0
H  H23  1  0.32066753  0.90478025  0.30210715  1  0  0.104278  0.125164  0  0.993009  0
H  H24  1  0.72037727  0.90574699  0.71080985  1  0  0.107938  0.131823  0  0.989592  0
H  H25  1  0.27962102  0.09425219  0.28919075  1  0  0.107945  0.131824  0  0.989579  0
H  H26  1  0.26328505  0.94807637  0.53653550  1  0  0.299503  0.350796  0  0.993131  0
H  H27  1  0.73671495  0.05192514  0.46346487  1  0  0.299506  0.350776  0  0.993169  0
H  H28  1  0.57185425  0.34081914  0.80847610  1  0  0.100926  0.115032  0  0.987381  0
H  H29  1  0.42815086  0.65918355  0.19152441  1  0  0.100919  0.115041  0  0.987377  0
H  H30  1  0.73855929  0.44132219  0.76862303  1  0  0.104932  0.119196  0  1.020585  0
H  H31  1  0.26144315  0.55867934  0.23137694  1  0  0.104959  0.119228  0  1.020577  0
H  H32  1  0.52234417  0.59944724  0.89823922  1  0  0.08745  0.076729  0  1.011057  0
H  H33  1  0.47765852  0.40055546  0.10176016  1  0  0.087438  0.07672  0  1.011029  0
H  H34  1  0.69891513  0.69378913  0.86557738  1  0  0.09298  0.091235  0  0.985387  0
H  H35  1  0.30108710  0.30621125  0.13442089  1  0  0.092985  0.091244  0  0.985376  0
H  H36  1  0.87580367  0.54047806  0.97290367  1  0  0.084452  0.069406  0  1.018948  0
H  H37  1  0.12419900  0.45952462  0.02709725  1  0  0.084467  0.069387  0  1.018965  0
H  H38  1  0.70093093  0.45271316  0.00934625  1  0  0.086541  0.079536  0  1.001109  0
H  H39  1  0.29907055  0.54728954  0.99065295  1  0  0.086555  0.079533  0  1.001035  0
H  H40  1  0.66871700  0.71509995  0.10012644  1  0  0.083118  0.072635  0  0.998427  0
H  H41  1  0.33128447  0.28490274  0.89987352  1  0  0.083101  0.072679  0  0.998403  0
H  H42  1  0.83955760  0.80410524  0.06001906  1  0  0.085481  0.076709  0  1.000115  0
H  H43  1  0.16044483  0.19589628  0.93998167  1  0  0.085504  0.076746  0  1.00009  0
H  H44  1  0.85018754  0.57228915  0.21077894  1  0  0.096348  0.101043  0  0.998515  0
H  H45  1  0.14981345  0.42771121  0.78922067  1  0  0.09634  0.101035  0  0.998527  0
H  H46  1  0.02100676  0.64949048  0.16590911  1  0  0.083689  0.067304  0  1.025038  0
H  H47  1  0.97899566  0.35051102  0.83409239  1  0  0.083694  0.067314  0  1.025056  0
H  H48  1  0.83357045  0.83417943  0.30392258  1  0  0.104074  0.12535  0  0.99185  0
H  H49  1  0.16642809  0.16582092  0.69607743  1  0  0.104078  0.125365  0  0.99184  0
H  H50  1  0.98845047  0.92317486  0.25126241  1  0  0.09791  0.109255  0  0.996017  0
H  H51  1  0.01154831  0.07682665  0.74873778  1  0  0.097892  0.1092  0  0.996047  0
H  H52  1  0.15284867  0.13468409  0.47373718  1  0  0.312244  0.419646  0  0.898405  0
H  H53  1  0.84714621  0.86531625  0.52626305  1  0  0.312237  0.419655  0  0.898388  0
H  H54  1  0.32963270  0.20924378  0.54577299  1  0  0.318883  0.407832  0  0.907657  0
H  H55  1  0.67036193  0.79076123  0.45422699  1  0  0.318924  0.407937  0  0.907506  0
C  C56  1  0.97608353  0.31779831  0.31836263  1  0  0.218721  0.682104  0  4.093822  0
C  C57  1  0.02391720  0.68220088  0.68163757  1  0  0.218733  0.682118  0  4.093766  0
C  C58  1  0.83331387  0.22730182  0.22675688  1  0  -0.163127  -0.3103  0  3.912723  0
C  C59  1  0.16668685  0.77269736  0.77324409  1  0  -0.163099  -0.310175  0  3.912679  0
C  C60  1  0.87354849  0.19576386  0.11757127  1  0  -0.166586  -0.120699  0  3.957068  0
C  C61  1  0.12645176  0.80423298  0.88242934  1  0  -0.166614  -0.120811  0  3.957091  0
C  C62  1  0.72029042  0.11617881  0.02715612  1  0  -0.167916  -0.154015  0  3.96871  0
C  C63  1  0.27970885  0.88381920  0.97284449  1  0  -0.167916  -0.153986  0  3.96879  0
C  C64  1  0.75370379  0.08589061  0.91584174  1  0  -0.166884  -0.14535  0  3.94532  0
C  C65  1  0.24629548  0.91410739  0.08415886  1  0  -0.166877  -0.145371  0  3.945378  0
C  C66  1  0.59722426  0.01007341  0.82698663  1  0  -0.161153  -0.124373  0  3.946796  0
C  C67  1  0.40277429  0.98992694  0.17301338  1  0  -0.161138  -0.124364  0  3.946766  0
C  C68  1  0.63033723  0.98286247  0.71468119  1  0  -0.163442  -0.317975  0  3.901393  0
C  C69  1  0.36966228  0.01713670  0.28531959  1  0  -0.16344  -0.317947  0  3.901407  0
C  C70  1  0.47362506  0.90831556  0.62935130  1  0  0.254076  0.694772  0  4.029485  0
C  C71  1  0.52637422  0.09168245  0.37064931  1  0  0.253985  0.694634  0  4.0295  0
C  C72  1  0.49751780  0.46942865  0.69017420  1  0  0.221275  0.680052  0  4.095894  0
C  C73  1  0.50247929  0.53056469  0.30982629  1  0  0.221333  0.680177  0  4.095847  0
C  C74  1  0.62075832  0.45187475  0.78891354  1  0  -0.158334  -0.295331  0  3.899297  0
C  C75  1  0.37924411  0.54812677  0.21108720  1  0  -0.158371  -0.295416  0  3.899397  0
C  C76  1  0.64439944  0.58519445  0.88534595  1  0  -0.163704  -0.121825  0  3.942801  0
C  C77  1  0.35560178  0.41480708  0.11465384  1  0  -0.163684  -0.121822  0  3.942761  0
C  C78  1  0.75609183  0.56008267  0.98808212  1  0  -0.165839  -0.145429  0  3.953092  0
C  C79  1  0.24391085  0.43992002  0.01191803  1  0  -0.16587  -0.145352  0  3.953006  0
C  C80  1  0.78791031  0.69694613  0.08317084  1  0  -0.165305  -0.139753  0  3.94957  0
C  C81  1  0.21209092  0.30305539  0.91682895  1  0  -0.165307  -0.139882  0  3.949607  0
C  C82  1  0.90532363  0.67444333  0.18464266  1  0  -0.169503  -0.128114  0  3.953047  0
C  C83  1  0.09467614  0.32555703  0.81535677  1  0  -0.169523  -0.128143  0  3.953127  0
C  C84  1  0.94539759  0.81565849  0.27698244  1  0  -0.16382  -0.305138  0  3.921428  0
C  C85  1  0.05460242  0.18434303  0.72301717  1  0  -0.163773  -0.305068  0  3.921438  0
C  C86  1  0.07489624  0.80591224  0.37606453  1  0  0.23844  0.67795  0  4.11107  0
C  C87  1  0.92510475  0.19408812  0.62393509  1  0  0.238446  0.67796  0  4.111017  0
O  O88  1  0.94539972  0.37476083  0.40905289  1  0  -0.457156  -0.774912  0  2.335076  0
O  O89  1  0.05460030  0.62524071  0.59094596  1  0  -0.457186  -0.774982  0  2.335048  0
O  O90  1  0.12277994  0.33778562  0.30872826  1  0  -0.351996  -0.597397  0  2.16134  0
O  O91  1  0.87722104  0.66221473  0.69127212  1  0  -0.352003  -0.597411  0  2.161329  0
O  O92  1  0.37420393  0.00367246  0.60136731  1  0  -0.322895  -0.511765  0  2.306382  0
O  O93  1  0.62579458  0.99632786  0.39863424  1  0  -0.322844  -0.511674  0  2.306482  0
O  O94  1  0.43967935  0.76576363  0.59119655  1  0  -0.35552  -0.629919  0  2.299739  0
O  O95  1  0.56032187  0.23423790  0.40880323  1  0  -0.355492  -0.629875  0  2.299615  0
O  O96  1  0.53187070  0.44518001  0.59741298  1  0  -0.444844  -0.761356  0  2.354769  0
O  O97  1  0.46813028  0.55482033  0.40258740  1  0  -0.444875  -0.761402  0  2.35478  0
O  O98  1  0.35943059  0.50384381  0.69656756  1  0  -0.351128  -0.605828  0  2.196403  0
O  O99  1  0.64056797  0.49615070  0.30343253  1  0  -0.351142  -0.605881  0  2.196331  0
O  O100  1  0.12469550  0.92889112  0.45117201  1  0  -0.312002  -0.567163  0  2.301176  0
O  O101  1  0.87530746  0.07111277  0.54882602  1  0  -0.312007  -0.567141  0  2.301183  0
O  O102  1  0.12864411  0.68102312  0.38075014  1  0  -0.391923  -0.672322  0  2.315515  0
O  O103  1  0.87135588  0.31897839  0.61925023  1  0  -0.391952  -0.672376  0  2.315501  0
O  O104  1  0.22554012  0.23619606  0.51117337  1  0  -0.640091  -0.852177  0  2.105638  0
O  O105  1  0.77445233  0.76380427  0.48882649  1  0  -0.640119  -0.85229  0  2.105568  0
