# generated using pymatgen
data_InH3C8(O3F2)2
_symmetry_space_group_name_H-M   'P 1'
_cell_length_a   11.17643547
_cell_length_b   11.17641019
_cell_length_c   14.37427824
_cell_angle_alpha   71.92955503
_cell_angle_beta   71.92967783
_cell_angle_gamma   85.56485921
_symmetry_Int_Tables_number   1
_chemical_formula_structural   InH3C8(O3F2)2
_chemical_formula_sum   'In4 H12 C32 O24 F16'
_cell_volume   1622.41558268
_cell_formula_units_Z   4
loop_
 _symmetry_equiv_pos_site_id
 _symmetry_equiv_pos_as_xyz
  1  'x, y, z'
loop_
 _atom_site_type_symbol
 _atom_site_label
 _atom_site_symmetry_multiplicity
 _atom_site_fract_x
 _atom_site_fract_y
 _atom_site_fract_z
 _atom_site_occupancy
 _atom_site_pbe_bader_charge
 _atom_site_pbe_bader_spin_density
 _atom_site_pbe_cm5_charge
 _atom_site_pbe_ddec_charge
 _atom_site_pbe_ddec_spin_density
 _atom_site_pbe_ddec_sum_bond_order
 _atom_site_pbe_magmom
In  In0  1  0.00000188  0.00000004  0.49999772  1  1.927541  0  0.755894  1.515057  0  2.694149  0
In  In1  1  0.99999911  0.99999812  0.00000201  1  1.927552  0  0.75592  1.515091  0  2.694177  0
In  In2  1  0.93736756  0.06263254  0.24999993  1  1.925072  0  0.76686  1.559918  0  2.720405  0
In  In3  1  0.06263161  0.93736734  0.74999996  1  1.925035  0  0.766876  1.559953  0  2.720348  0
H  H4  1  0.85187482  0.90408317  0.43723664  1  0.659307  0  0.289635  0.376614  0  0.969189  0
H  H5  1  0.09591769  0.14812538  0.06276254  1  0.659318  0  0.28961  0.3766  0  0.969192  0
H  H6  1  0.14812247  0.09591672  0.56276370  1  0.659305  0  0.289619  0.376623  0  0.969171  0
H  H7  1  0.90408339  0.85187544  0.93723597  1  0.65931  0  0.289627  0.376636  0  0.969149  0
H  H8  1  0.96410263  0.24938220  0.32326280  1  0.654888  0  0.301168  0.388973  0  0.954474  0
H  H9  1  0.75061959  0.03589986  0.17673530  1  0.654697  0  0.301212  0.388986  0  0.954454  0
H  H10  1  0.03590219  0.75061767  0.67673574  1  0.654717  0  0.301218  0.388987  0  0.954455  0
H  H11  1  0.24938142  0.96409814  0.82326390  1  0.654716  0  0.301196  0.388971  0  0.954477  0
H  H12  1  0.97601423  0.31988103  0.20464187  1  0.633733  0  0.350875  0.426386  0  0.834898  0
H  H13  1  0.68012254  0.02399177  0.29535493  1  0.633807  0  0.350838  0.426297  0  0.834955  0
H  H14  1  0.02399254  0.68012166  0.79535552  1  0.633801  0  0.350857  0.426306  0  0.834963  0
H  H15  1  0.31987758  0.97600811  0.70464474  1  0.633799  0  0.35083  0.426287  0  0.835002  0
C  C16  1  0.08958363  0.28255283  0.43293339  1  1.608722  0  0.234993  0.63161  0  4.157963  0
C  C17  1  0.71744510  0.91041774  0.06707101  1  1.608307  0  0.235083  0.631847  0  4.157916  0
C  C18  1  0.91040987  0.71744612  0.56707157  1  1.608649  0  0.234951  0.631606  0  4.157944  0
C  C19  1  0.28255797  0.08958778  0.93292937  1  1.60818  0  0.235048  0.631796  0  4.157994  0
C  C20  1  0.06939401  0.41759456  0.37756270  1  0.060525  0  -0.029453  -0.229438  0  4.045649  0
C  C21  1  0.58240550  0.93060403  0.12244052  1  0.060669  0  -0.029505  -0.229672  0  4.045838  0
C  C22  1  0.93059860  0.58240628  0.62243924  1  0.060621  0  -0.029476  -0.229588  0  4.045788  0
C  C23  1  0.41759569  0.06940150  0.87755684  1  0.061024  0  -0.029508  -0.229675  0  4.045885  0
C  C24  1  0.94815153  0.46640786  0.39642426  1  0.503549  0  0.088754  0.144845  0  4.110334  0
C  C25  1  0.53359486  0.05184696  0.10357516  1  0.503616  0  0.08879  0.144941  0  4.110178  0
C  C26  1  0.05184015  0.53359393  0.60357628  1  0.503708  0  0.088915  0.145111  0  4.110061  0
C  C27  1  0.46640631  0.94815763  0.89642104  1  0.503559  0  0.088875  0.145114  0  4.109994  0
C  C28  1  0.92513362  0.58763300  0.34115996  1  0.61027  0  0.097427  0.174128  0  4.085533  0
C  C29  1  0.41236830  0.07486560  0.15883885  1  0.610352  0  0.097403  0.174046  0  4.085463  0
C  C30  1  0.07486560  0.41236876  0.65883668  1  0.610357  0  0.097365  0.17388  0  4.085609  0
C  C31  1  0.58763085  0.92513334  0.84116197  1  0.610328  0  0.097266  0.173778  0  4.085635  0
C  C32  1  0.02343982  0.66408354  0.26451148  1  -0.012858  0  -0.024572  -0.212592  0  3.991537  0
C  C33  1  0.33591650  0.97656008  0.23548835  1  -0.012667  0  -0.024564  -0.212528  0  3.991526  0
C  C34  1  0.97656309  0.33591539  0.73548774  1  -0.012776  0  -0.024582  -0.212478  0  3.9914  0
C  C35  1  0.66408353  0.02343604  0.76451224  1  -0.012771  0  -0.024603  -0.212417  0  3.991402  0
C  C36  1  0.14467844  0.61527687  0.24547382  1  0.602484  0  0.09567  0.163629  0  4.084569  0
C  C37  1  0.38472388  0.85532351  0.25452543  1  0.602382  0  0.095636  0.163582  0  4.084686  0
C  C38  1  0.85532539  0.38472112  0.75452262  1  0.601862  0  0.095688  0.163684  0  4.08439  0
C  C39  1  0.61527809  0.14467543  0.74547471  1  0.602408  0  0.095679  0.163577  0  4.08452  0
C  C40  1  0.16767104  0.49446486  0.30219543  1  0.587113  0  0.09478  0.163089  0  4.094138  0
C  C41  1  0.50553422  0.83232778  0.19780715  1  0.587153  0  0.094838  0.163222  0  4.09417  0
C  C42  1  0.83232430  0.50553221  0.69780467  1  0.5876  0  0.09486  0.163222  0  4.094178  0
C  C43  1  0.49446693  0.16767586  0.80219206  1  0.587015  0  0.094855  0.163315  0  4.094241  0
C  C44  1  0.99952290  0.79607975  0.20694309  1  1.642599  0  0.244836  0.656992  0  4.156336  0
C  C45  1  0.20391918  0.00047595  0.29305631  1  1.642628  0  0.244847  0.657011  0  4.156235  0
C  C46  1  0.00047811  0.20391825  0.79305403  1  1.642637  0  0.244849  0.656979  0  4.156066  0
C  C47  1  0.79608174  0.99951827  0.70694869  1  1.642629  0  0.244892  0.65701  0  4.156132  0
O  O48  1  0.02563462  0.20318052  0.41524814  1  -1.16592  0  -0.290279  -0.59779  0  2.328918  0
O  O49  1  0.79681969  0.97436606  0.08475170  1  -1.165937  0  -0.290299  -0.59786  0  2.328957  0
O  O50  1  0.97436176  0.79682031  0.58475150  1  -1.165828  0  -0.290276  -0.597848  0  2.328916  0
O  O51  1  0.20318056  0.02563947  0.91524796  1  -1.165903  0  -0.290311  -0.597916  0  2.328886  0
O  O52  1  0.15921597  0.25526409  0.48817831  1  -1.104543  0  -0.270692  -0.476729  0  2.136916  0
O  O53  1  0.74473307  0.84078136  0.01182730  1  -1.104168  0  -0.270729  -0.476839  0  2.136876  0
O  O54  1  0.84077473  0.74473582  0.51182710  1  -1.104345  0  -0.270651  -0.476657  0  2.136779  0
O  O55  1  0.25527370  0.15922133  0.98817078  1  -1.104319  0  -0.270696  -0.476777  0  2.137032  0
O  O56  1  0.04628390  0.82955254  0.11017755  1  -1.13158  0  -0.272797  -0.546536  0  2.266811  0
O  O57  1  0.17044735  0.95371432  0.38982334  1  -1.131604  0  -0.272837  -0.546599  0  2.266679  0
O  O58  1  0.95372459  0.17044355  0.88982170  1  -1.131457  0  -0.272845  -0.546582  0  2.266737  0
O  O59  1  0.82955624  0.04627332  0.61017913  1  -1.131426  0  -0.272837  -0.546552  0  2.266687  0
O  O60  1  0.93417898  0.86170292  0.26190816  1  -1.179485  0  -0.288244  -0.600484  0  2.335606  0
O  O61  1  0.13829782  0.06581884  0.23809168  1  -1.1795  0  -0.288242  -0.60048  0  2.335624  0
O  O62  1  0.06582297  0.13829508  0.73808873  1  -1.17963  0  -0.288246  -0.600493  0  2.335549  0
O  O63  1  0.86170310  0.93417539  0.76191193  1  -1.179646  0  -0.288296  -0.600577  0  2.335657  0
O  O64  1  0.87744385  0.99508756  0.41163877  1  -1.231816  0  -0.528566  -0.8821  0  2.010394  0
O  O65  1  0.00491291  0.12255635  0.08836047  1  -1.23181  0  -0.528525  -0.882037  0  2.010355  0
O  O66  1  0.12255533  0.00491232  0.58836112  1  -1.231777  0  -0.528558  -0.882105  0  2.010367  0
O  O67  1  0.99508723  0.87744447  0.91163966  1  -1.231747  0  -0.528544  -0.882089  0  2.010336  0
O  O68  1  0.92623168  0.25709183  0.26571699  1  -1.224528  0  -0.525396  -0.737044  0  2.019836  0
O  O69  1  0.74291113  0.07377506  0.23427909  1  -1.224394  0  -0.525386  -0.736925  0  2.019866  0
O  O70  1  0.07377507  0.74290991  0.73427994  1  -1.224389  0  -0.525395  -0.73693  0  2.019875  0
O  O71  1  0.25708992  0.92622482  0.76572035  1  -1.2244  0  -0.525363  -0.736901  0  2.019936  0
F  F72  1  0.85083264  0.39488604  0.46916825  1  -0.614518  0  -0.08292  -0.095759  0  1.38709  0
F  F73  1  0.60511685  0.14916540  0.03083261  1  -0.614621  0  -0.082941  -0.095774  0  1.387032  0
F  F74  1  0.14915911  0.60511857  0.53083368  1  -0.614882  0  -0.083099  -0.095918  0  1.386743  0
F  F75  1  0.39488057  0.85084014  0.96916564  1  -0.614605  0  -0.083071  -0.095901  0  1.38672  0
F  F76  1  0.80595396  0.62791919  0.35931994  1  -0.605784  0  -0.081795  -0.091507  0  1.382423  0
F  F77  1  0.37208213  0.19404520  0.14067949  1  -0.606059  0  -0.081803  -0.091486  0  1.382399  0
F  F78  1  0.19404918  0.37208916  0.64067487  1  -0.605983  0  -0.081762  -0.091433  0  1.382419  0
F  F79  1  0.62790842  0.80594811  0.85932545  1  -0.605998  0  -0.081672  -0.09138  0  1.382459  0
F  F80  1  0.24239911  0.68550059  0.17266390  1  -0.61145  0  -0.080858  -0.097149  0  1.411927  0
F  F81  1  0.31450053  0.75760522  0.32733749  1  -0.611228  0  -0.080844  -0.097155  0  1.41192  0
F  F82  1  0.75760759  0.31449927  0.82733836  1  -0.611233  0  -0.080873  -0.097216  0  1.411796  0
F  F83  1  0.68550055  0.24239560  0.67266311  1  -0.611447  0  -0.08088  -0.097219  0  1.411914  0
F  F84  1  0.28577615  0.45076074  0.28068494  1  -0.607155  0  -0.083943  -0.096643  0  1.353046  0
F  F85  1  0.54923810  0.71422260  0.21931918  1  -0.607165  0  -0.083936  -0.096629  0  1.353033  0
F  F86  1  0.71422008  0.54923444  0.71932235  1  -0.607085  0  -0.083923  -0.096626  0  1.353148  0
F  F87  1  0.45076871  0.28578197  0.78067705  1  -0.607112  0  -0.083942  -0.096668  0  1.353122  0
