# generated using pymatgen
data_Gd2MnH32C36N6(ClO8)2
_symmetry_space_group_name_H-M   'P 1'
_cell_length_a   9.38360316
_cell_length_b   15.56662412
_cell_length_c   18.27693955
_cell_angle_alpha   89.99988110
_cell_angle_beta   90.87339650
_cell_angle_gamma   89.99994085
_symmetry_Int_Tables_number   1
_chemical_formula_structural   Gd2MnH32C36N6(ClO8)2
_chemical_formula_sum   'Gd4 Mn2 H64 C72 N12 Cl4 O32'
_cell_volume   2669.42108725
_cell_formula_units_Z   2
loop_
 _symmetry_equiv_pos_site_id
 _symmetry_equiv_pos_as_xyz
  1  'x, y, z'
loop_
 _atom_site_type_symbol
 _atom_site_label
 _atom_site_symmetry_multiplicity
 _atom_site_fract_x
 _atom_site_fract_y
 _atom_site_fract_z
 _atom_site_occupancy
 _atom_site_pbe_bader_charge
 _atom_site_pbe_bader_spin_density
 _atom_site_pbe_cm5_charge
 _atom_site_pbe_ddec_charge
 _atom_site_pbe_ddec_spin_density
 _atom_site_pbe_ddec_sum_bond_order
 _atom_site_pbe_magmom
Gd  Gd0  1  0.20116160  0.42082981  0.50334082  1  2.209656  8.3e-05  1.483506  2.102027  7.3e-05  2.191818  0.0
Gd  Gd1  1  0.29883908  0.92083291  0.99666232  1  2.209727  8.3e-05  1.483474  2.101983  7.3e-05  2.191904  0.0
Gd  Gd2  1  0.79884015  0.57916519  0.49666515  1  2.209746  8.3e-05  1.483448  2.101856  7.3e-05  2.19214  0.0
Gd  Gd3  1  0.70115839  0.07917045  0.00333651  1  2.209754  8.3e-05  1.483536  2.102004  7.3e-05  2.191835  0.0
Mn  Mn4  1  0.99999526  0.49999763  0.00000656  1  1.393972  4.524428  0.51014  0.659027  4.663897  2.554948  4.425
Mn  Mn5  1  0.49999811  0.00000374  0.49999904  1  1.393993  4.524429  0.51014  0.659059  4.663902  2.554891  4.425
H  H6  1  0.06196149  0.16511539  0.02202639  1  0.134069  0.000473  0.113159  0.119245  0.000243  1.0491  0.0
H  H7  1  0.43803373  0.66511138  0.47796806  1  0.134031  0.000473  0.113166  0.119226  0.000243  1.049126  0.0
H  H8  1  0.93803596  0.83488924  0.97797025  1  0.133998  0.000473  0.113141  0.11919  0.000243  1.049125  0.0
H  H9  1  0.56196479  0.33488555  0.52202805  1  0.13407  0.000473  0.11316  0.119246  0.000243  1.049119  0.0
H  H10  1  0.47958238  0.47763084  0.41784297  1  0.676982  3e-06  0.312871  0.433049  4e-06  0.883114  0.0
H  H11  1  0.02041124  0.97763576  0.08215693  1  0.67734  3e-06  0.312835  0.43306  4e-06  0.883091  0.0
H  H12  1  0.52041082  0.52236352  0.58215638  1  0.677311  3e-06  0.312809  0.433005  4e-06  0.883178  0.0
H  H13  1  0.97958409  0.02236695  0.91784298  1  0.676956  3e-06  0.312846  0.433029  4e-06  0.88313  0.0
H  H14  1  0.42927555  0.38117130  0.39981125  1  0.625383  1e-05  0.332881  0.41951  -1e-06  0.86754  0.0
H  H15  1  0.07072144  0.88117486  0.10018830  1  0.625399  1e-05  0.332867  0.419498  -1e-06  0.867587  0.0
H  H16  1  0.57071978  0.61882498  0.60018647  1  0.625452  1e-05  0.332809  0.419352  -1e-06  0.86777  0.0
H  H17  1  0.92927922  0.11882850  0.89981056  1  0.625372  1e-05  0.332886  0.419482  -1e-06  0.867584  0.0
H  H18  1  0.46034895  0.29296520  0.98354235  1  0.087867  0.001205  0.113308  0.124058  0.000873  1.015119  0.0
H  H19  1  0.03965193  0.79296127  0.51645555  1  0.088044  0.001205  0.113306  0.12407  0.000873  1.015109  0.0
H  H20  1  0.53965170  0.70704265  0.01645486  1  0.088043  0.001205  0.113293  0.124056  0.000873  1.01511  0.0
H  H21  1  0.96035407  0.20703887  0.48354498  1  0.087968  0.001205  0.113314  0.124116  0.000873  1.015096  0.0
H  H22  1  0.25215387  0.23219486  0.46166974  1  0.615818  0.000843  0.282708  0.38721  0.000492  0.941737  0.0
H  H23  1  0.24784019  0.73220038  0.03833006  1  0.61593  0.000844  0.282712  0.387283  0.000492  0.941653  0.0
H  H24  1  0.74783295  0.76779115  0.53833231  1  0.616053  0.000843  0.282655  0.387136  0.000492  0.941881  0.0
H  H25  1  0.75215940  0.26780040  0.96166879  1  0.615946  0.000843  0.282726  0.387257  0.000492  0.941694  0.0
H  H26  1  0.16627333  0.26918564  0.39418647  1  0.638029  8e-06  0.28068  0.341633  5e-05  1.022523  0.0
H  H27  1  0.33372706  0.76918902  0.10581385  1  0.638069  8e-06  0.280689  0.341668  5e-05  1.022445  0.0
H  H28  1  0.83371989  0.73080936  0.60581726  1  0.638457  8e-06  0.2807  0.341609  5e-05  1.022522  0.0
H  H29  1  0.66627680  0.23081304  0.89418503  1  0.638092  8e-06  0.280691  0.341653  5e-05  1.022476  0.0
H  H30  1  0.32606066  0.43356220  0.98328794  1  0.14313  0.001141  0.104823  0.083141  0.000435  1.038975  0.001
H  H31  1  0.17394106  0.93355819  0.51671464  1  0.143215  0.001141  0.104847  0.083145  0.000435  1.039032  0.001
H  H32  1  0.67393788  0.56644372  0.01671364  1  0.143119  0.001141  0.104837  0.083129  0.000435  1.039099  0.001
H  H33  1  0.82606600  0.06643938  0.48328590  1  0.143176  0.001141  0.104835  0.083144  0.000434  1.038976  0.001
H  H34  1  0.58279031  0.44377019  0.71135552  1  0.066347  2.9e-05  0.11039  0.116335  1.6e-05  1.010375  0.0
H  H35  1  0.91720705  0.94377436  0.78864365  1  0.066304  2.8e-05  0.110378  0.116308  1.6e-05  1.010303  0.0
H  H36  1  0.41720715  0.55622866  0.28864221  1  0.066355  2.9e-05  0.110375  0.116317  1.6e-05  1.010392  0.0
H  H37  1  0.08279466  0.05622899  0.21135247  1  0.066264  2.8e-05  0.110374  0.11626  1.6e-05  1.010385  0.0
H  H38  1  0.94431437  0.31144743  0.02473409  1  0.136412  0.001271  0.103965  0.084914  0.000684  1.06527  0.0
H  H39  1  0.55568588  0.81144301  0.47526608  1  0.136378  0.00127  0.103921  0.084843  0.000683  1.065379  0.0
H  H40  1  0.05568523  0.68855657  0.97526695  1  0.136386  0.00127  0.10393  0.084865  0.000683  1.065358  0.0
H  H41  1  0.44431689  0.18855392  0.52472896  1  0.136466  0.001271  0.103926  0.084833  0.000684  1.06522  0.0
H  H42  1  0.22005914  0.46017003  0.26396338  1  0.119094  0.00061  0.113262  0.122825  0.000327  0.997054  0.0
H  H43  1  0.27993773  0.96017313  0.23604040  1  0.118928  0.00061  0.113227  0.122791  0.000327  0.996957  0.0
H  H44  1  0.77994688  0.53982625  0.73604207  1  0.119048  0.000609  0.113267  0.122811  0.000327  0.997002  0.0
H  H45  1  0.72006188  0.03982508  0.76396173  1  0.119095  0.00061  0.113218  0.122782  0.000327  0.996963  0.0
H  H46  1  0.20674011  0.46398092  0.12561523  1  0.106539  0.001496  0.113486  0.084879  0.000737  1.017623  0.0
H  H47  1  0.29325675  0.96398175  0.37438800  1  0.106394  0.001496  0.113478  0.084856  0.000737  1.017621  0.0
H  H48  1  0.79326271  0.53601600  0.87438911  1  0.106447  0.001495  0.113491  0.084843  0.000737  1.017673  0.0
H  H49  1  0.70674712  0.03601518  0.62561361  1  0.106338  0.001495  0.11349  0.084895  0.000737  1.017649  0.0
H  H50  1  0.77274734  0.51948972  0.26540478  1  0.114732  0.000623  0.111448  0.123859  0.000334  1.006148  0.0
H  H51  1  0.72724811  0.01948927  0.23459697  1  0.1148  0.000623  0.11147  0.123907  0.000334  1.006162  0.0
H  H52  1  0.22725548  0.48051170  0.73460066  1  0.114761  0.000623  0.111482  0.123884  0.000334  1.006169  0.0
H  H53  1  0.27274934  0.98051216  0.76539912  1  0.114838  0.000623  0.111477  0.123939  0.000334  1.006142  0.0
H  H54  1  0.77300140  0.50975368  0.12714392  1  0.117069  0.001237  0.114915  0.082126  0.000643  1.013766  0.001
H  H55  1  0.72699727  0.00974903  0.37285896  1  0.11708  0.001237  0.114919  0.082137  0.000643  1.013804  0.001
H  H56  1  0.22700143  0.49024775  0.87286261  1  0.117059  0.001236  0.114899  0.082124  0.000643  1.013918  0.001
H  H57  1  0.27300765  0.99024983  0.62713883  1  0.117202  0.001236  0.114917  0.082137  0.000643  1.013895  0.001
H  H58  1  0.31943753  0.21799944  0.69476548  1  0.11368  4.3e-05  0.116048  0.130731  -0.0  0.987769  0.0
H  H59  1  0.18056348  0.71800371  0.80523201  1  0.11415  4.3e-05  0.116054  0.130764  -0.0  0.987659  0.0
H  H60  1  0.68056420  0.78199813  0.30523502  1  0.114076  4.3e-05  0.116046  0.130742  -0.0  0.987744  0.0
H  H61  1  0.81943716  0.28199900  0.19476192  1  0.113652  4.3e-05  0.116019  0.130719  -0.0  0.987783  0.0
H  H62  1  0.68662295  0.38267713  0.82903768  1  0.122105  0.000305  0.107244  0.078886  3.8e-05  1.029841  0.0
H  H63  1  0.81337133  0.88267972  0.67096268  1  0.122027  0.000305  0.107242  0.07887  3.8e-05  1.029839  0.0
H  H64  1  0.31337452  0.61732558  0.17096224  1  0.122104  0.000305  0.107245  0.078875  3.8e-05  1.029874  0.0
H  H65  1  0.18662506  0.11732235  0.32903451  1  0.122142  0.000305  0.107241  0.078927  3.8e-05  1.029799  0.0
H  H66  1  0.43082611  0.16736850  0.81381173  1  0.087875  6e-05  0.114929  0.082648  4.8e-05  1.012291  0.0
H  H67  1  0.06916968  0.66737249  0.68618800  1  0.087964  6e-05  0.114971  0.082705  4.8e-05  1.012295  0.0
H  H68  1  0.56917563  0.83263100  0.18618987  1  0.087872  6e-05  0.114948  0.082679  4.8e-05  1.012293  0.0
H  H69  1  0.93082564  0.33262958  0.31380753  1  0.087958  6e-05  0.114965  0.082642  4.8e-05  1.012314  0.0
C  C70  1  0.12251135  0.22386737  0.01419102  1  -0.017115  -0.000558  -0.079795  -0.140453  -0.001  3.946784  -0.001
C  C71  1  0.37748591  0.72386209  0.48580498  1  -0.017354  -0.000558  -0.079781  -0.140437  -0.000999  3.946613  -0.001
C  C72  1  0.87748718  0.77613920  0.98580673  1  -0.016502  -0.000558  -0.079791  -0.140382  -0.000999  3.946608  -0.001
C  C73  1  0.62251581  0.27613420  0.51419114  1  -0.01719  -0.000559  -0.079757  -0.140441  -0.000999  3.946856  -0.001
C  C74  1  0.34556683  0.29471962  0.99160725  1  0.067029  -0.000123  -0.074838  -0.131421  -0.000418  3.930102  0.0
C  C75  1  0.15443405  0.79471628  0.50839010  1  0.066674  -0.000122  -0.074916  -0.13152  -0.000417  3.930257  0.0
C  C76  1  0.65443382  0.70528630  0.00838996  1  0.066702  -0.000122  -0.074879  -0.131469  -0.000417  3.930223  0.0
C  C77  1  0.84557087  0.20528322  0.49160824  1  0.06671  -0.000123  -0.074928  -0.131687  -0.000418  3.930343  0.0
C  C78  1  0.27180080  0.37224384  0.99107118  1  0.432341  0.006669  0.042926  0.076759  0.005215  3.944975  0.005
C  C79  1  0.22820101  0.87224174  0.50892822  1  0.432392  0.006665  0.042912  0.076732  0.005214  3.944984  0.005
C  C80  1  0.72819879  0.62775951  0.00892766  1  0.432539  0.006666  0.042952  0.076775  0.005215  3.94501  0.005
C  C81  1  0.77180604  0.12775840  0.49106958  1  0.433174  0.006666  0.042984  0.076938  0.005215  3.94507  0.005
C  C82  1  0.33971976  0.13276921  0.00285550  1  1.588814  0.000264  0.242721  0.660366  0.000169  4.151632  0.0
C  C83  1  0.16027553  0.63276596  0.49714120  1  1.588874  0.000264  0.242788  0.660518  0.000169  4.151732  0.0
C  C84  1  0.66027770  0.86723864  0.99714170  1  1.588462  0.000264  0.242798  0.66057  0.000169  4.151782  0.0
C  C85  1  0.83971769  0.36723290  0.50286198  1  1.58849  0.000264  0.242778  0.66059  0.000169  4.151472  0.0
C  C86  1  0.26884351  0.21898638  0.00266863  1  -0.124683  0.005772  0.002667  0.005608  0.004376  3.942563  0.004
C  C87  1  0.23115482  0.71898502  0.49732793  1  -0.123964  0.005768  0.00269  0.005604  0.004373  3.942759  0.004
C  C88  1  0.73115821  0.78101697  0.99732859  1  -0.12458  0.00577  0.002666  0.005585  0.004374  3.942754  0.004
C  C89  1  0.76884797  0.28101577  0.50267039  1  -0.123984  0.005772  0.002648  0.005594  0.004376  3.942732  0.004
C  C90  1  0.44338298  0.33472028  0.69446260  1  -0.044779  3.9e-05  0.004417  0.015323  1.5e-05  3.944021  0.0
C  C91  1  0.05661783  0.83472463  0.80553523  1  -0.045291  3.9e-05  0.004439  0.015414  1.5e-05  3.943952  0.0
C  C92  1  0.55661875  0.66527794  0.30553626  1  -0.045213  3.9e-05  0.004449  0.015452  1.5e-05  3.943956  0.0
C  C93  1  0.94338387  0.16527937  0.19445981  1  -0.044937  3.9e-05  0.004461  0.015433  1.5e-05  3.944015  0.0
C  C94  1  0.54719228  0.38211647  0.73254291  1  -0.021471  9.2e-05  -0.077212  -0.141432  5e-05  3.936931  0.0
C  C95  1  0.95280839  0.88211874  0.76745586  1  -0.021102  9.2e-05  -0.077163  -0.141368  5e-05  3.93679  0.0
C  C96  1  0.45280945  0.61788367  0.26745486  1  -0.021049  9.2e-05  -0.077199  -0.141484  5e-05  3.937071  0.0
C  C97  1  0.04719226  0.11788461  0.23254026  1  -0.02136  9.2e-05  -0.07711  -0.141238  5e-05  3.936816  0.0
C  C98  1  0.99789341  0.49194546  0.27424047  1  -0.022702  0.007582  0.00502  0.007315  0.005841  3.943906  0.005
C  C99  1  0.50210334  0.99195132  0.22576374  1  -0.02291  0.007581  0.00493  0.007286  0.00584  3.943969  0.005
C  C100  1  0.00211368  0.50805083  0.72576664  1  -0.022659  0.007575  0.004814  0.007091  0.005835  3.94391  0.005
C  C101  1  0.49789520  0.00805139  0.77423675  1  -0.022916  0.007579  0.004921  0.007242  0.005839  3.944116  0.005
C  C102  1  0.00357675  0.49221933  0.35669345  1  1.635452  0.000337  0.23586  0.643158  0.00022  4.177789  0.0
C  C103  1  0.49642218  0.99222701  0.14330919  1  1.635371  0.000337  0.235819  0.643034  0.00022  4.177925  0.0
C  C104  1  0.99643353  0.50777246  0.64331313  1  1.63542  0.000336  0.235871  0.643214  0.00022  4.17762  0.0
C  C105  1  0.50357208  0.00777377  0.85668962  1  1.63531  0.000337  0.235821  0.643074  0.00022  4.177826  0.0
C  C106  1  0.37654286  0.36618321  0.62412120  1  1.584197  5.1e-05  0.203721  0.56882  4.8e-05  4.239536  0.0
C  C107  1  0.12346110  0.86618863  0.87587823  1  1.584468  5.1e-05  0.203678  0.568718  4.8e-05  4.239653  0.0
C  C108  1  0.62345887  0.63381051  0.37587821  1  1.584425  5.1e-05  0.203706  0.568758  4.8e-05  4.239417  0.0
C  C109  1  0.87653955  0.13381472  0.12411844  1  1.584413  5.1e-05  0.203764  0.568826  4.8e-05  4.23938  0.0
C  C110  1  0.05776581  0.30393934  0.01457032  1  0.494525  0.006864  0.043296  0.08676  0.005722  3.929621  0.005
C  C111  1  0.44223664  0.80393723  0.48542777  1  0.494168  0.006862  0.043285  0.086754  0.005719  3.929328  0.004
C  C112  1  0.94223698  0.69606337  0.98542855  1  0.493875  0.006864  0.04325  0.086683  0.005721  3.92924  0.005
C  C113  1  0.55776933  0.19606162  0.51456729  1  0.494048  0.006866  0.043317  0.086893  0.005723  3.929476  0.005
C  C114  1  0.12075432  0.47413845  0.23477892  1  -0.032009  -0.000924  -0.077926  -0.143225  -0.001296  3.955075  -0.001
C  C115  1  0.37924145  0.97414205  0.26522428  1  -0.031689  -0.000924  -0.077849  -0.143169  -0.001295  3.954981  -0.001
C  C116  1  0.87924849  0.52585912  0.76522542  1  -0.031922  -0.000923  -0.077888  -0.143249  -0.001294  3.954945  -0.001
C  C117  1  0.62075815  0.02585809  0.73477621  1  -0.031978  -0.000924  -0.077866  -0.143145  -0.001296  3.955021  -0.001
C  C118  1  0.11288195  0.47428051  0.15890661  1  0.439927  0.008414  0.048693  0.089308  0.006528  3.950359  0.005
C  C119  1  0.38711595  0.97428200  0.34109661  1  0.439912  0.008412  0.048646  0.089242  0.006527  3.950313  0.005
C  C120  1  0.88712193  0.52571770  0.84109938  1  0.4396  0.008408  0.048681  0.089394  0.006524  3.95023  0.005
C  C121  1  0.61288685  0.02571814  0.65890445  1  0.43996  0.008411  0.048629  0.089168  0.006526  3.950453  0.005
C  C122  1  0.87027502  0.50648241  0.23577745  1  -0.045476  -0.000736  -0.075906  -0.140085  -0.001113  3.932802  -0.001
C  C123  1  0.62972366  0.00648580  0.26422598  1  -0.04534  -0.000735  -0.075916  -0.14013  -0.001113  3.932891  -0.001
C  C124  1  0.12972887  0.49351708  0.76422909  1  -0.045329  -0.000734  -0.075788  -0.139886  -0.001111  3.932624  -0.001
C  C125  1  0.37027807  0.99351755  0.73577288  1  -0.045244  -0.000735  -0.07591  -0.140166  -0.001112  3.932868  -0.001
C  C126  1  0.87061148  0.50226451  0.15970605  1  0.489938  0.008902  0.053171  0.095533  0.007007  3.939214  0.006
C  C127  1  0.62938507  0.00226514  0.34029683  1  0.489644  0.0089  0.053212  0.095492  0.007006  3.939365  0.006
C  C128  1  0.12939242  0.49773563  0.84030213  1  0.489536  0.008896  0.053121  0.09536  0.007003  3.939422  0.006
C  C129  1  0.37061558  0.99773693  0.65970038  1  0.489259  0.008901  0.053172  0.095476  0.007006  3.939458  0.006
C  C130  1  0.40007575  0.25593824  0.72359116  1  -0.017465  7.9e-05  -0.074119  -0.137237  9e-06  3.928749  0.0
C  C131  1  0.09992414  0.75594392  0.77640899  1  -0.017616  7.9e-05  -0.074054  -0.137199  9e-06  3.928599  0.0
C  C132  1  0.59992598  0.74405869  0.27640989  1  -0.01766  7.9e-05  -0.074064  -0.137212  9e-06  3.92868  0.0
C  C133  1  0.90007650  0.24405943  0.22358604  1  -0.017265  7.9e-05  -0.074116  -0.137315  1e-05  3.928697  0.0
C  C134  1  0.60513057  0.34839616  0.79718226  1  0.499948  0.00032  0.046323  0.085239  0.000262  3.952564  0.0
C  C135  1  0.89486696  0.84839991  0.70281763  1  0.500386  0.00032  0.046273  0.085157  0.000262  3.952588  0.0
C  C136  1  0.39487009  0.65160463  0.20281659  1  0.499944  0.00032  0.046283  0.085219  0.000262  3.952654  0.0
C  C137  1  0.10512942  0.15160345  0.29717846  1  0.500364  0.00032  0.046202  0.084987  0.000262  3.952524  0.0
C  C138  1  0.46242621  0.22792757  0.78892582  1  0.495113  6.3e-05  0.047404  0.083916  2.2e-05  3.977025  0.0
C  C139  1  0.03757053  0.72793088  0.71107326  1  0.494952  6.3e-05  0.047251  0.083664  2.2e-05  3.976954  0.0
C  C140  1  0.53757552  0.77207257  0.21107468  1  0.494938  6.3e-05  0.047339  0.083776  2.2e-05  3.976839  0.0
C  C141  1  0.96242692  0.27207247  0.28892284  1  0.495313  6.3e-05  0.047344  0.083914  2.2e-05  3.976618  0.0
N  N142  1  0.13015531  0.37711641  0.00208829  1  -1.297116  0.04913  -0.317564  -0.226748  0.032409  3.508122  0.017
N  N143  1  0.36984489  0.87711303  0.49791129  1  -1.296993  0.049119  -0.317489  -0.226597  0.032403  3.507922  0.017
N  N144  1  0.86984322  0.62288695  0.99791110  1  -1.296945  0.049115  -0.31749  -0.226626  0.032403  3.507901  0.017
N  N145  1  0.63016002  0.12288390  0.50208431  1  -1.297816  0.049122  -0.317577  -0.226878  0.03241  3.508198  0.017
N  N146  1  0.98998420  0.48793257  0.12174494  1  -1.262566  0.049888  -0.316242  -0.216742  0.032262  3.52149  0.016
N  N147  1  0.51001362  0.98793356  0.37825819  1  -1.262353  0.049879  -0.316215  -0.216616  0.032258  3.521429  0.016
N  N148  1  0.01001969  0.51206564  0.87826160  1  -1.262118  0.049866  -0.316194  -0.216631  0.032259  3.52153  0.016
N  N149  1  0.48999024  0.01206915  0.62174124  1  -1.2621  0.049871  -0.316171  -0.216573  0.032259  3.521618  0.016
N  N150  1  0.56426814  0.27238993  0.82482578  1  -1.231954  0.00023  -0.296222  -0.221396  0.000129  3.391654  0.0
N  N151  1  0.93572847  0.77239308  0.67517424  1  -1.232306  0.00023  -0.296184  -0.221258  0.000129  3.391657  0.0
N  N152  1  0.43573359  0.72761021  0.17517417  1  -1.231923  0.00023  -0.296207  -0.221311  0.000129  3.391529  0.0
N  N153  1  0.06426792  0.22760899  0.32482240  1  -1.232595  0.00023  -0.296178  -0.221282  0.000128  3.391432  0.0
Cl  Cl154  1  0.76412216  0.41498129  0.98542921  1  -0.745701  0.081197  -0.326103  -0.574345  0.063256  1.033939  0.039
Cl  Cl155  1  0.73586141  0.91498174  0.51457212  1  -0.745695  0.081206  -0.326085  -0.574307  0.063263  1.033933  0.039
Cl  Cl156  1  0.23586360  0.58501885  0.01457502  1  -0.745695  0.081198  -0.326092  -0.574315  0.06326  1.033951  0.039
Cl  Cl157  1  0.26412113  0.08502097  0.48542607  1  -0.745741  0.081195  -0.326091  -0.574324  0.063253  1.033946  0.039
O  O158  1  0.11201809  0.45694636  0.38602480  1  -1.191307  0.001057  -0.386499  -0.65825  0.000796  2.300696  0.001
O  O159  1  0.38798198  0.95694904  0.11397792  1  -1.191242  0.001057  -0.386482  -0.658198  0.000796  2.300648  0.001
O  O160  1  0.88798898  0.54303901  0.61397683  1  -1.191151  0.001056  -0.386422  -0.658173  0.000796  2.300671  0.001
O  O161  1  0.61201976  0.04304147  0.88602478  1  -1.191065  0.001057  -0.386478  -0.658203  0.000796  2.300702  0.001
O  O162  1  0.25873365  0.06764400  0.00388161  1  -1.186577  0.000704  -0.390404  -0.64295  0.00053  2.287923  0.001
O  O163  1  0.24125751  0.56764263  0.49612010  1  -1.186645  0.000704  -0.390416  -0.642973  0.00053  2.288079  0.001
O  O164  1  0.74126598  0.93235807  0.99612435  1  -1.186301  0.000704  -0.390374  -0.643006  0.00053  2.288147  0.001
O  O165  1  0.75872717  0.43235622  0.50388084  1  -1.186557  0.000704  -0.390393  -0.643016  0.00053  2.287984  0.001
O  O166  1  0.41586667  0.42969495  0.43238757  1  -1.269143  6.2e-05  -0.624828  -0.841777  3.2e-05  2.048223  0.0
O  O167  1  0.08413237  0.92970051  0.06761300  1  -1.269515  6.2e-05  -0.624768  -0.841776  3.2e-05  2.048234  0.0
O  O168  1  0.58412759  0.57029940  0.56761015  1  -1.269564  6.2e-05  -0.624693  -0.841591  3.2e-05  2.048501  0.0
O  O169  1  0.91586616  0.07030413  0.93238694  1  -1.269119  6.2e-05  -0.624801  -0.841727  3.2e-05  2.04825  0.0
O  O170  1  0.89950083  0.52620840  0.38899518  1  -1.19324  0.000865  -0.385404  -0.666555  0.00065  2.335653  0.001
O  O171  1  0.60049356  0.02622052  0.11100929  1  -1.193212  0.000864  -0.385358  -0.666462  0.000649  2.335781  0.001
O  O172  1  0.10052013  0.47378660  0.61101530  1  -1.193309  0.000864  -0.385469  -0.666633  0.000649  2.335542  0.001
O  O173  1  0.39948898  0.97378925  0.88898890  1  -1.193327  0.000865  -0.385365  -0.666484  0.000649  2.335643  0.001
O  O174  1  0.40426587  0.44128429  0.60001589  1  -1.199054  7.9e-05  -0.341086  -0.624975  5.6e-05  2.238521  0.0
O  O175  1  0.09573476  0.94128710  0.89998393  1  -1.199169  7.9e-05  -0.341068  -0.624934  5.6e-05  2.238679  0.0
O  O176  1  0.59573585  0.55870942  0.39998023  1  -1.199266  7.9e-05  -0.341089  -0.624956  5.6e-05  2.238531  0.0
O  O177  1  0.90425844  0.05871368  0.10001487  1  -1.199203  7.9e-05  -0.341083  -0.624962  5.6e-05  2.23854  0.0
O  O178  1  0.23514937  0.28654515  0.43513160  1  -1.281403  0.001186  -0.636113  -0.850445  0.000743  2.108313  0.001
O  O179  1  0.26484460  0.78654996  0.06486919  1  -1.281526  0.001187  -0.63612  -0.850515  0.000743  2.108198  0.001
O  O180  1  0.76483640  0.71344600  0.56487536  1  -1.282072  0.001186  -0.636058  -0.850245  0.000743  2.108373  0.001
O  O181  1  0.73516032  0.21345404  0.93512750  1  -1.281578  0.001187  -0.636122  -0.850458  0.000743  2.108238  0.001
O  O182  1  0.29026234  0.31626366  0.59040640  1  -1.177701  0.000139  -0.374388  -0.617904  2.7e-05  2.18331  0.0
O  O183  1  0.20974276  0.81626894  0.90959149  1  -1.177896  0.000139  -0.374368  -0.617913  2.7e-05  2.183401  0.0
O  O184  1  0.70973939  0.68372942  0.40959520  1  -1.177792  0.000139  -0.374366  -0.617889  2.7e-05  2.18329  0.0
O  O185  1  0.79026001  0.18373569  0.09040410  1  -1.177894  0.000139  -0.374448  -0.617952  2.7e-05  2.183201  0.0
O  O186  1  0.47464716  0.13160321  0.00183977  1  -1.17767  0.000731  -0.406299  -0.688786  0.000517  2.365351  0.001
O  O187  1  0.02534811  0.63160518  0.49815365  1  -1.177713  0.000731  -0.406315  -0.688846  0.000517  2.365403  0.001
O  O188  1  0.52535558  0.86840143  0.99814925  1  -1.177687  0.000731  -0.406316  -0.68886  0.000517  2.365449  0.001
O  O189  1  0.97464621  0.36840331  0.50185829  1  -1.177449  0.000731  -0.406294  -0.688835  0.000517  2.365298  0.001
