# generated using pymatgen
data_Na2H44PdC44S4(N2O5)2
_symmetry_space_group_name_H-M   'P 1'
_cell_length_a   8.20110912
_cell_length_b   12.70497942
_cell_length_c   12.85271406
_cell_angle_alpha   115.09939507
_cell_angle_beta   105.88559165
_cell_angle_gamma   91.60456672
_symmetry_Int_Tables_number   1
_chemical_formula_structural   Na2H44PdC44S4(N2O5)2
_chemical_formula_sum   'Na2 H44 Pd1 C44 S4 N4 O10'
_cell_volume   1150.34209690
_cell_formula_units_Z   1
loop_
 _symmetry_equiv_pos_site_id
 _symmetry_equiv_pos_as_xyz
  1  'x, y, z'
loop_
 _atom_site_type_symbol
 _atom_site_label
 _atom_site_symmetry_multiplicity
 _atom_site_fract_x
 _atom_site_fract_y
 _atom_site_fract_z
 _atom_site_occupancy
 _atom_site_hle17_bader_spin_density
 _atom_site_hle17_ddec_charge
 _atom_site_hle17_ddec_spin_density
 _atom_site_hle17_ddec_sum_bond_order
 _atom_site_hle17_magmom
 _atom_site_hse06_10hf_bader_spin_density
 _atom_site_hse06_10hf_ddec_charge
 _atom_site_hse06_10hf_ddec_spin_density
 _atom_site_hse06_10hf_ddec_sum_bond_order
 _atom_site_hse06_10hf_magmom
 _atom_site_hse06_bader_spin_density
 _atom_site_hse06_ddec_charge
 _atom_site_hse06_ddec_spin_density
 _atom_site_hse06_ddec_sum_bond_order
 _atom_site_hse06_magmom
 _atom_site_pbe_bader_spin_density
 _atom_site_pbe_cm5_charge
 _atom_site_pbe_ddec_charge
 _atom_site_pbe_ddec_spin_density
 _atom_site_pbe_ddec_sum_bond_order
 _atom_site_pbe_magmom
Na  Na0  1  0.74539114  0.32730652  0.62127131  1  0  0.882662  0  0.407941  0  0  0.809048  0  0.588575  0  0  0.823731  0  0.564383  0  0  0.716971  0.798551  0  0.605633  0
Na  Na1  1  0.25460704  0.67269356  0.37872810  1  0  0.882657  0  0.407949  0  0  0.809045  0  0.588575  0  0  0.823726  0  0.564381  0  0  0.716958  0.79854  0  0.605634  0
H  H2  1  0.37276100  0.08030360  0.19098100  1  0  0.110952  0  0.972468  0  0  0.11484  0  1.050926  0  0  0.119131  0  1.047005  0  0  0.095259  0.111753  0  1.053783  0
H  H3  1  0.62723992  0.91969737  0.80901849  1  0  0.11094  0  0.972444  0  0  0.114833  0  1.050896  0  0  0.119124  0  1.046976  0  0  0.095258  0.111745  0  1.053756  0
H  H4  1  0.37486423  0.92479515  0.99519485  1  0  0.087582  0  0.993205  0  0  0.093119  0  1.066739  0  0  0.09597  0  1.06565  0  0  0.08439  0.090978  0  1.067703  0
H  H5  1  0.62513289  0.07520581  0.00480474  1  0  0.087565  0  0.993159  0  0  0.093096  0  1.066725  0  0  0.095943  0  1.065641  0  0  0.08438  0.090956  0  1.067687  0
H  H6  1  0.48492577  0.74894559  0.87733166  1  0  0.078354  0  0.967983  0  0  0.089143  0  1.032205  0  0  0.091679  0  1.031769  0  0  0.090858  0.08734  0  1.03259  0
H  H7  1  0.51507262  0.25105537  0.12266816  1  0  0.078374  0  0.967934  0  0  0.08916  0  1.032155  0  0  0.091696  0  1.03172  0  0  0.090867  0.087356  0  1.03254  0
H  H8  1  0.70043232  0.66191541  0.98362019  1  0  0.085321  0  0.967403  0  0  0.096163  0  1.029361  0  0  0.099114  0  1.028025  0  0  0.093618  0.094068  0  1.030355  0
H  H9  1  0.29956585  0.33808468  0.01637767  1  0  0.085389  0  0.967406  0  0  0.096225  0  1.029357  0  0  0.099174  0  1.028021  0  0  0.093651  0.09413  0  1.030349  0
H  H10  1  0.79989871  0.74984575  0.20731953  1  0  0.096385  0  0.965563  0  0  0.106155  0  1.026856  0  0  0.110147  0  1.024057  0  0  0.098536  0.103287  0  1.02891  0
H  H11  1  0.20009673  0.25015344  0.79267981  1  0  0.096398  0  0.96561  0  0  0.106177  0  1.026894  0  0  0.110167  0  1.024095  0  0  0.098558  0.10331  0  1.028951  0
H  H12  1  0.78896536  0.90107876  0.40592636  1  0  0.106213  0  0.96315  0  0  0.118491  0  1.025754  0  0  0.122229  0  1.02283  0  0  0.103557  0.11585  0  1.027881  0
H  H13  1  0.21103261  0.09892045  0.59407187  1  0  0.106225  0  0.963082  0  0  0.118476  0  1.025723  0  0  0.122214  0  1.022799  0  0  0.103542  0.115835  0  1.027851  0
H  H14  1  0.93784485  0.06805563  0.59926969  1  0  0.05812  0  0.931324  0  0  0.072404  0  0.996876  0  0  0.072384  0  0.996618  0  0  0.104278  0.072351  0  0.99711  0
H  H15  1  0.06215967  0.93194447  0.40073083  1  0  0.058082  0  0.931359  0  0  0.072406  0  0.996882  0  0  0.072386  0  0.996625  0  0  0.104274  0.072352  0  0.997115  0
H  H16  1  0.77449096  0.97149674  0.59950370  1  0  0.071431  0  0.932227  0  0  0.083471  0  0.997594  0  0  0.083836  0  0.997487  0  0  0.106279  0.083123  0  0.997784  0
H  H17  1  0.22551208  0.02850248  0.40049541  1  0  0.071422  0  0.932239  0  0  0.083495  0  0.997578  0  0  0.083862  0  0.99747  0  0  0.106273  0.083146  0  0.997771  0
H  H18  1  0.71239626  0.13879691  0.76568556  1  0  0.05652  0  0.966104  0  0  0.067963  0  1.035068  0  0  0.067599  0  1.037042  0  0  0.099331  0.068129  0  1.033852  0
H  H19  1  0.28760446  0.86120318  0.23431351  1  0  0.056535  0  0.966075  0  0  0.067971  0  1.035051  0  0  0.067606  0  1.037025  0  0  0.099324  0.068134  0  1.033835  0
H  H20  1  0.93017317  0.11788227  0.80967480  1  0  0.058181  0  0.957344  0  0  0.068245  0  1.031784  0  0  0.068452  0  1.031828  0  0  0.088285  0.067976  0  1.031951  0
H  H21  1  0.06982755  0.88211781  0.19032583  1  0  0.058153  0  0.957366  0  0  0.068218  0  1.031812  0  0  0.068423  0  1.031856  0  0  0.088277  0.067946  0  1.031979  0
H  H22  1  0.97970688  0.42804373  0.90474542  1  0  0.070421  0  0.929541  0  0  0.08479  0  0.993819  0  0  0.084667  0  0.993739  0  0  0.109756  0.084806  0  0.993934  0
H  H23  1  0.02029425  0.57195812  0.09525525  1  0  0.070419  0  0.929528  0  0  0.084777  0  0.993827  0  0  0.084652  0  0.993746  0  0  0.10976  0.084792  0  0.993943  0
H  H24  1  0.94967989  0.32191038  0.95884044  1  0  0.058561  0  0.967755  0  0  0.070221  0  1.03834  0  0  0.070339  0  1.039126  0  0  0.091467  0.070071  0  1.037863  0
H  H25  1  0.05032103  0.67809059  0.04116060  1  0  0.058538  0  0.967763  0  0  0.070193  0  1.038348  0  0  0.07031  0  1.039135  0  0  0.091455  0.070043  0  1.037873  0
H  H26  1  0.62533774  0.30143147  0.86319075  1  0  0.055597  0  0.960964  0  0  0.06927  0  1.028186  0  0  0.068655  0  1.030455  0  0  0.099322  0.069595  0  1.026739  0
H  H27  1  0.37466339  0.69857037  0.13681070  1  0  0.055591  0  0.960988  0  0  0.069263  0  1.028193  0  0  0.068647  0  1.030468  0  0  0.099326  0.06959  0  1.026741  0
H  H28  1  0.72441243  0.44455505  0.98176436  1  0  0.053871  0  0.916135  0  0  0.070443  0  0.978763  0  0  0.070743  0  0.978037  0  0  0.099319  0.070136  0  0.979369  0
H  H29  1  0.27558956  0.55544504  0.01823649  1  0  0.053864  0  0.916099  0  0  0.070409  0  0.978743  0  0  0.070709  0  0.978017  0  0  0.09932  0.070102  0  0.979352  0
H  H30  1  0.46301207  0.50543797  0.86390089  1  0  0.052642  0  0.931853  0  0  0.06793  0  0.998837  0  0  0.068039  0  0.998762  0  0  0.099001  0.06774  0  0.999028  0
H  H31  1  0.53698591  0.49456122  0.13609967  1  0  0.052631  0  0.931898  0  0  0.067954  0  0.998841  0  0  0.068065  0  0.998763  0  0  0.099001  0.067763  0  0.999032  0
H  H32  1  0.40200888  0.36235247  0.73722771  1  0  0.05519  0  0.928619  0  0  0.070049  0  0.993152  0  0  0.070679  0  0.992325  0  0  0.10179  0.06952  0  0.99382  0
H  H33  1  0.59799036  0.63764673  0.26277306  1  0  0.055209  0  0.928627  0  0  0.070076  0  0.993147  0  0  0.070705  0  0.992321  0  0  0.101793  0.069543  0  0.993819  0
H  H34  1  0.34143584  0.53175894  0.68034635  1  0  0.056053  0  0.948385  0  0  0.070636  0  1.014408  0  0  0.069512  0  1.016203  0  0  0.102313  0.071361  0  1.013216  0
H  H35  1  0.65856214  0.46824025  0.31965421  1  0  0.056072  0  0.948354  0  0  0.070666  0  1.014358  0  0  0.069539  0  1.016153  0  0  0.102332  0.07139  0  1.01317  0
H  H36  1  0.56820517  0.58410966  0.74031771  1  0  0.067455  0  0.925069  0  0  0.080815  0  0.992536  0  0  0.081205  0  0.99194  0  0  0.107936  0.080443  0  0.993088  0
H  H37  1  0.43179302  0.41589041  0.25968325  1  0  0.067463  0  0.925075  0  0  0.080794  0  0.992571  0  0  0.081181  0  0.991974  0  0  0.107945  0.080424  0  0.993119  0
H  H38  1  0.26764182  0.41618921  0.45584374  1  0  0.062105  0  0.930735  0  0  0.074181  0  0.99867  0  0  0.074187  0  0.999046  0  0  0.104555  0.074142  0  0.998435  0
H  H39  1  0.73235596  0.58380909  0.54415796  1  0  0.062066  0  0.930735  0  0  0.074173  0  0.998648  0  0  0.074175  0  0.999022  0  0  0.104561  0.074133  0  0.998417  0
H  H40  1  0.25896677  0.32282751  0.52723174  1  0  0.056363  0  0.914179  0  0  0.07225  0  0.975621  0  0  0.072771  0  0.974852  0  0  0.10399  0.071774  0  0.976299  0
H  H41  1  0.74103101  0.67717079  0.47276996  1  0  0.056354  0  0.914128  0  0  0.072231  0  0.975592  0  0  0.072747  0  0.97482  0  0  0.103998  0.071755  0  0.976268  0
H  H42  1  0.26438688  0.21112010  0.31651889  1  0  0.056726  0  0.980002  0  0  0.065954  0  1.054422  0  0  0.065021  0  1.05621  0  0  0.094193  0.066525  0  1.05326  0
H  H43  1  0.73561196  0.78887733  0.68348184  1  0  0.056671  0  0.98007  0  0  0.065924  0  1.054488  0  0  0.064991  0  1.056274  0  0  0.094194  0.066496  0  1.053329  0
H  H44  1  0.46881112  0.29656805  0.35500006  1  0  0.067211  0  0.932283  0  0  0.07938  0  0.998907  0  0  0.07937  0  0.999067  0  0  0.106528  0.079347  0  0.998891  0
H  H45  1  0.53118642  0.70343466  0.64500191  1  0  0.067206  0  0.9322  0  0  0.079381  0  0.99884  0  0  0.079371  0  0.999001  0  0  0.106516  0.079349  0  0.998826  0
Pd  Pd46  1  0.99999883  0.99999744  0.99999918  1  0  0.141164  0  2.85929  0  0  0.129148  0  3.433381  0  0  0.14603  0  3.403392  0  0  0.495159  0.119931  0  3.454029  0
C  C47  1  0.52116778  0.09221479  0.36330226  1  0  0.17973  0  3.816941  0  0  0.167679  0  4.080502  0  0  0.175866  0  4.096168  0  0  0.07403  0.162005  0  4.06992  0
C  C48  1  0.47883462  0.90778707  0.63669785  1  0  0.179755  0  3.816827  0  0  0.167717  0  4.080335  0  0  0.175907  0  4.095998  0  0  0.074046  0.162046  0  4.069747  0
C  C49  1  0.46482902  0.04282618  0.23889188  1  0  -0.23063  0  3.737984  0  0  -0.257226  0  3.991623  0  0  -0.261931  0  4.010492  0  0  -0.110496  -0.253918  0  3.978841  0
C  C50  1  0.53517064  0.95717479  0.76110816  1  0  -0.230578  0  3.737893  0  0  -0.257179  0  3.991529  0  0  -0.261887  0  4.010399  0  0  -0.110471  -0.25388  0  3.978771  0
C  C51  1  0.52393693  0.93966845  0.16975977  1  0  0.058944  0  3.820352  0  0  0.075373  0  4.043738  0  0  0.075316  0  4.067775  0  0  -0.016903  0.07537  0  4.02751  0
C  C52  1  0.47606125  0.06033163  0.83023964  1  0  0.058956  0  3.820408  0  0  0.07535  0  4.04384  0  0  0.075295  0  4.067878  0  0  -0.016892  0.07535  0  4.027602  0
C  C53  1  0.46707322  0.88609629  0.04150602  1  0  -0.109508  0  3.737592  0  0  -0.125143  0  3.981548  0  0  -0.127263  0  4.002819  0  0  -0.096779  -0.12363  0  3.967256  0
C  C54  1  0.53292348  0.11390291  0.95849276  1  0  -0.109459  0  3.737616  0  0  -0.125089  0  3.981571  0  0  -0.12721  0  4.002847  0  0  -0.096782  -0.123575  0  3.967274  0
C  C55  1  0.52865005  0.78749397  0.97589978  1  0  -0.083919  0  3.801107  0  0  -0.099873  0  4.054972  0  0  -0.1024  0  4.077105  0  0  -0.107953  -0.098147  0  4.039937  0
C  C56  1  0.47134813  0.21250611  0.02409885  1  0  -0.083931  0  3.801022  0  0  -0.099877  0  4.054876  0  0  -0.102404  0  4.077011  0  0  -0.107963  -0.098148  0  4.039835  0
C  C57  1  0.64943495  0.73812907  0.03597600  1  0  -0.083402  0  3.803439  0  0  -0.097811  0  4.059018  0  0  -0.098766  0  4.079653  0  0  -0.109336  -0.097106  0  4.045012  0
C  C58  1  0.35056323  0.26187102  0.96402263  1  0  -0.083486  0  3.803429  0  0  -0.097898  0  4.059021  0  0  -0.098851  0  4.079652  0  0  -0.109355  -0.097191  0  4.045013  0
C  C59  1  0.70503730  0.78722650  0.16102809  1  0  -0.134055  0  3.752362  0  0  -0.151958  0  4.002905  0  0  -0.154377  0  4.022076  0  0  -0.10394  -0.150281  0  3.98995  0
C  C60  1  0.29495941  0.21277269  0.83897070  1  0  -0.134042  0  3.752372  0  0  -0.151949  0  4.002899  0  0  -0.154365  0  4.022067  0  0  -0.103954  -0.150275  0  3.989949  0
C  C61  1  0.64368165  0.88823347  0.23083103  1  0  0.060164  0  3.830159  0  0  0.075451  0  4.061319  0  0  0.076164  0  4.085047  0  0  -0.019264  0.074971  0  4.045271  0
C  C62  1  0.35631505  0.11176572  0.76916775  1  0  0.060113  0  3.830164  0  0  0.07542  0  4.06131  0  0  0.076132  0  4.08504  0  0  -0.019286  0.074942  0  4.045266  0
C  C63  1  0.69939923  0.94090646  0.35957153  1  0  -0.246988  0  3.764294  0  0  -0.280801  0  4.02884  0  0  -0.28516  0  4.046169  0  0  -0.116787  -0.277797  0  4.017118  0
C  C64  1  0.30060107  0.05909187  0.64042672  1  0  -0.246963  0  3.764258  0  0  -0.280761  0  4.02879  0  0  -0.285119  0  4.046121  0  0  -0.116727  -0.277761  0  4.017077  0
C  C65  1  0.64106670  0.04092158  0.42455439  1  0  0.196205  0  3.813432  0  0  0.179406  0  4.082714  0  0  0.189059  0  4.097072  0  0  0.076932  0.17278  0  4.073026  0
C  C66  1  0.35893655  0.95907853  0.57544435  1  0  0.19621  0  3.813472  0  0  0.179386  0  4.082727  0  0  0.189039  0  4.097084  0  0  0.076926  0.172772  0  4.073036  0
C  C67  1  0.81637916  0.06293614  0.61931135  1  0  0.065725  0  3.62455  0  0  0.002833  0  3.896783  0  0  0.009975  0  3.902028  0  0  -0.067237  -0.001864  0  3.893059  0
C  C68  1  0.18362537  0.93706396  0.38068916  1  0  0.065753  0  3.624555  0  0  0.002775  0  3.896813  0  0  0.009912  0  3.902066  0  0  -0.067223  -0.001914  0  3.89309  0
C  C69  1  0.83653920  0.14456845  0.74945264  1  0  0.048466  0  3.659836  0  0  -0.009468  0  3.928643  0  0  -0.003633  0  3.935226  0  0  -0.080406  -0.013405  0  3.92415  0
C  C70  1  0.16346279  0.85543164  0.25054743  1  0  0.048499  0  3.659769  0  0  -0.009438  0  3.928605  0  0  -0.003597  0  3.935186  0  0  -0.080393  -0.013374  0  3.92411  0
C  C71  1  0.89542026  0.35007468  0.88809254  1  0  0.046983  0  3.649766  0  0  -0.011042  0  3.91832  0  0  -0.004779  0  3.923842  0  0  -0.077386  -0.015221  0  3.914439  0
C  C72  1  0.10457919  0.64992540  0.11190709  1  0  0.046991  0  3.649775  0  0  -0.011024  0  3.918292  0  0  -0.004755  0  3.923806  0  0  -0.077417  -0.015205  0  3.914417  0
C  C73  1  0.71803176  0.37982603  0.88934499  1  0  0.049979  0  3.664024  0  0  -0.010548  0  3.935344  0  0  -0.004011  0  3.94092  0  0  -0.076648  -0.014936  0  3.931485  0
C  C74  1  0.28196790  0.62017494  0.11065505  1  0  0.049977  0  3.664001  0  0  -0.010498  0  3.935257  0  0  -0.003961  0  3.94083  0  0  -0.07664  -0.014886  0  3.931403  0
C  C75  1  0.49037426  0.44704344  0.78022861  1  0  0.048453  0  3.679013  0  0  -0.013993  0  3.954786  0  0  -0.007583  0  3.960398  0  0  -0.076165  -0.01832  0  3.950929  0
C  C76  1  0.50962414  0.55295752  0.21977276  1  0  0.048373  0  3.678992  0  0  -0.014089  0  3.954764  0  0  -0.007677  0  3.960367  0  0  -0.076183  -0.018415  0  3.950907  0
C  C77  1  0.46890067  0.50518371  0.69698255  1  0  0.053213  0  3.651856  0  0  -0.006879  0  3.925414  0  0  -0.000303  0  3.931114  0  0  -0.072162  -0.011313  0  3.92148  0
C  C78  1  0.53109731  0.49481548  0.30301801  1  0  0.053278  0  3.651741  0  0  -0.006817  0  3.925326  0  0  -0.000232  0  3.93101  0  0  -0.072178  -0.011254  0  3.921396  0
C  C79  1  0.34026028  0.36035495  0.49143784  1  0  0.065045  0  3.654277  0  0  0.002273  0  3.93285  0  0  0.008845  0  3.937961  0  0  -0.07077  -0.002164  0  3.929311  0
C  C80  1  0.65973749  0.63964335  0.50856386  1  0  0.065062  0  3.654123  0  0  0.002266  0  3.932743  0  0  0.008862  0  3.937821  0  0  -0.070815  -0.002171  0  3.929208  0
C  C81  1  0.38347175  0.26219771  0.39029811  1  0  0.053468  0  3.633798  0  0  -0.006178  0  3.9018  0  0  0.001024  0  3.907274  0  0  -0.071655  -0.01103  0  3.898039  0
C  C82  1  0.61652750  0.73780149  0.60970267  1  0  0.053593  0  3.633615  0  0  -0.006143  0  3.9017  0  0  0.001054  0  3.907166  0  0  -0.071642  -0.010998  0  3.897944  0
C  C83  1  0.03617245  0.79238999  0.80956182  1  0  0.095737  0  3.855397  0  0  0.09699  0  4.132739  0  0  0.116354  0  4.146928  0  0  -0.000328  0.084409  0  4.122218  0
C  C84  1  0.96382933  0.20760921  0.19043862  1  0  0.095748  0  3.855431  0  0  0.097027  0  4.132762  0  0  0.116393  0  4.14695  0  0  -0.000312  0.084446  0  4.122241  0
C  C85  1  0.06690765  0.68836530  0.72120605  1  0  -0.190993  0  3.988334  0  0  -0.16775  0  4.219193  0  0  -0.181994  0  4.237892  0  0  -0.043747  -0.158258  0  4.206407  0
C  C86  1  0.93309793  0.31163392  0.27879350  1  0  -0.190979  0  3.988631  0  0  -0.167783  0  4.219554  0  0  -0.182032  0  4.238252  0  0  -0.04377  -0.158292  0  4.206766  0
C  C87  1  0.02834422  0.57883933  0.71926545  1  0  0.303473  0  3.858415  0  0  0.28946  0  4.12449  0  0  0.303361  0  4.141247  0  0  0.176096  0.279972  0  4.113303  0
C  C88  1  0.97165861  0.42115901  0.28073325  1  0  0.303535  0  3.858219  0  0  0.289533  0  4.124309  0  0  0.303437  0  4.141065  0  0  0.17611  0.280042  0  4.113117  0
C  C89  1  0.13363844  0.69171648  0.63269432  1  0  0.307894  0  3.844677  0  0  0.295001  0  4.110814  0  0  0.308775  0  4.127986  0  0  0.178355  0.285636  0  4.099302  0
C  C90  1  0.86637092  0.30828280  0.36729657  1  0  0.307705  0  3.844597  0  0  0.294828  0  4.11074  0  0  0.308606  0  4.127915  0  0  0.178229  0.285464  0  4.099228  0
S  S91  1  0.93903942  0.79465774  0.91268041  1  0  -0.219511  0  2.326228  0  0  -0.209901  0  2.707889  0  0  -0.224725  0  2.703025  0  0  -0.171177  -0.200207  0  2.711034  0
S  S92  1  0.06096194  0.20533971  0.08731766  1  0  -0.21961  0  2.326191  0  0  -0.210008  0  2.70783  0  0  -0.224832  0  2.702965  0  0  -0.171218  -0.200315  0  2.710976  0
S  S93  1  0.08934731  0.93153504  0.82732042  1  0  -0.188517  0  2.293733  0  0  -0.178246  0  2.663503  0  0  -0.193821  0  2.661914  0  0  -0.160406  -0.168092  0  2.664431  0
S  S94  1  0.91064939  0.06846415  0.17267836  1  0  -0.188529  0  2.293779  0  0  -0.178263  0  2.663551  0  0  -0.193836  0  2.661959  0  0  -0.160419  -0.168109  0  2.66448  0
N  N95  1  0.99630212  0.48792531  0.71867907  1  0  -0.486666  0  2.61607  0  0  -0.461837  0  2.852263  0  0  -0.471661  0  2.859209  0  0  -0.384983  -0.455359  0  2.847846  0
N  N96  1  0.00369414  0.51207741  0.28132191  1  0  -0.486717  0  2.615902  0  0  -0.461884  0  2.852082  0  0  -0.471707  0  2.859026  0  0  -0.385008  -0.455405  0  2.84766  0
N  N97  1  0.18767301  0.69453601  0.55823752  1  0  -0.489498  0  2.658603  0  0  -0.465315  0  2.903943  0  0  -0.476066  0  2.912357  0  0  -0.392187  -0.458237  0  2.89851  0
N  N98  1  0.81232518  0.30546406  0.44176422  1  0  -0.489368  0  2.658109  0  0  -0.465189  0  2.903458  0  0  -0.475944  0  2.911877  0  0  -0.392056  -0.458114  0  2.898029  0
O  O99  1  0.47182634  0.18954667  0.43999381  1  0  -0.307405  0  2.386005  0  0  -0.238072  0  2.627981  0  0  -0.254778  0  2.62949  0  0  -0.204591  -0.2263  0  2.626571  0
O  O100  1  0.52817859  0.81045520  0.56000597  1  0  -0.307511  0  2.385847  0  0  -0.238109  0  2.627792  0  0  -0.254816  0  2.629301  0  0  -0.204586  -0.226333  0  2.626379  0
O  O101  1  0.68821014  0.10126381  0.54770534  1  0  -0.299905  0  2.389472  0  0  -0.227402  0  2.630253  0  0  -0.244525  0  2.632438  0  0  -0.202376  -0.215542  0  2.628442  0
O  O102  1  0.31179332  0.89873718  0.45229381  1  0  -0.299944  0  2.389493  0  0  -0.227395  0  2.630284  0  0  -0.244519  0  2.632472  0  0  -0.202415  -0.215558  0  2.628481  0
O  O103  1  0.89412826  0.26193450  0.77156235  1  0  -0.349502  0  2.272291  0  0  -0.279888  0  2.524823  0  0  -0.295171  0  2.524306  0  0  -0.276557  -0.269048  0  2.52477  0
O  O104  1  0.10587225  0.73806471  0.22843632  1  0  -0.349475  0  2.272285  0  0  -0.279861  0  2.524811  0  0  -0.29515  0  2.524292  0  0  -0.276526  -0.269024  0  2.524758  0
O  O105  1  0.66515377  0.42874357  0.80600393  1  0  -0.348668  0  2.310894  0  0  -0.27605  0  2.570052  0  0  -0.291173  0  2.569473  0  0  -0.275744  -0.265409  0  2.570104  0
O  O106  1  0.33484589  0.57125739  0.19399689  1  0  -0.348677  0  2.310901  0  0  -0.276098  0  2.570065  0  0  -0.291222  0  2.569484  0  0  -0.275777  -0.265458  0  2.570117  0
O  O107  1  0.49629325  0.42951828  0.58496450  1  0  -0.338727  0  2.244034  0  0  -0.268538  0  2.498807  0  0  -0.283013  0  2.498219  0  0  -0.268501  -0.258293  0  2.498847  0
O  O108  1  0.50370472  0.57048091  0.41503605  1  0  -0.338766  0  2.244035  0  0  -0.268549  0  2.49879  0  0  -0.283033  0  2.49819  0  0  -0.268492  -0.258306  0  2.49883  0
