# generated using pymatgen
data_ZnH42C24(NO)4
_symmetry_space_group_name_H-M   'P 1'
_cell_length_a   9.53236256
_cell_length_b   9.51931877
_cell_length_c   15.08074343
_cell_angle_alpha   81.39934390
_cell_angle_beta   84.65735070
_cell_angle_gamma   83.54833533
_symmetry_Int_Tables_number   1
_chemical_formula_structural   ZnH42C24(NO)4
_chemical_formula_sum   'Zn2 H84 C48 N8 O8'
_cell_volume   1340.43182820
_cell_formula_units_Z   2
loop_
 _symmetry_equiv_pos_site_id
 _symmetry_equiv_pos_as_xyz
  1  'x, y, z'
loop_
 _atom_site_type_symbol
 _atom_site_label
 _atom_site_symmetry_multiplicity
 _atom_site_fract_x
 _atom_site_fract_y
 _atom_site_fract_z
 _atom_site_occupancy
 _atom_site_hle17_bader_spin_density
 _atom_site_hle17_ddec_charge
 _atom_site_hle17_ddec_spin_density
 _atom_site_hle17_ddec_sum_bond_order
 _atom_site_hle17_magmom
 _atom_site_hse06_10hf_bader_spin_density
 _atom_site_hse06_10hf_ddec_charge
 _atom_site_hse06_10hf_ddec_spin_density
 _atom_site_hse06_10hf_ddec_sum_bond_order
 _atom_site_hse06_10hf_magmom
 _atom_site_hse06_bader_spin_density
 _atom_site_hse06_ddec_charge
 _atom_site_hse06_ddec_spin_density
 _atom_site_hse06_ddec_sum_bond_order
 _atom_site_hse06_magmom
 _atom_site_pbe_bader_spin_density
 _atom_site_pbe_cm5_charge
 _atom_site_pbe_ddec_charge
 _atom_site_pbe_ddec_spin_density
 _atom_site_pbe_ddec_sum_bond_order
 _atom_site_pbe_magmom
Zn  Zn0  1  0.25723473  0.49406742  0.75242248  1  0  0.905492  0  1.872662  0  0  0.722422  0  2.28939  0  0  0.764174  0  2.249755  0  0  0.687865  0.693922  0  2.314863  0
Zn  Zn1  1  0.74275765  0.50594046  0.24757770  1  0  0.905378  0  1.872799  0  0  0.722412  0  2.289427  0  0  0.76417  0  2.249797  0  0  0.687854  0.69392  0  2.314897  0
H  H2  1  0.10779657  0.57677723  0.88237950  1  0  0.259543  0  0.960896  0  0  0.247595  0  1.02064  0  0  0.25483  0  1.015441  0  0  0.28201  0.242398  0  1.024375  0
H  H3  1  0.89219851  0.42322528  0.11762631  1  0  0.259632  0  0.960852  0  0  0.247644  0  1.020664  0  0  0.25488  0  1.015466  0  0  0.282036  0.24245  0  1.024392  0
H  H4  1  0.16433123  0.75335670  0.69132350  1  0  0.250765  0  0.898121  0  0  0.247735  0  0.943904  0  0  0.25222  0  0.941746  0  0  0.300622  0.244337  0  0.945909  0
H  H5  1  0.83566558  0.24664906  0.30867660  1  0  0.250805  0  0.898085  0  0  0.247787  0  0.943861  0  0  0.25227  0  0.941705  0  0  0.300651  0.24439  0  0.945863  0
H  H6  1  0.39920206  0.41757218  0.61895856  1  0  0.259496  0  0.961761  0  0  0.247515  0  1.021585  0  0  0.254761  0  1.016393  0  0  0.282008  0.242332  0  1.025314  0
H  H7  1  0.60079834  0.58242931  0.38104171  1  0  0.259489  0  0.961785  0  0  0.2475  0  1.021622  0  0  0.254747  0  1.016432  0  0  0.281983  0.242315  0  1.025356  0
H  H8  1  0.33874125  0.23189996  0.81747812  1  0  0.248076  0  0.899462  0  0  0.246368  0  0.943333  0  0  0.250669  0  0.941405  0  0  0.300581  0.243073  0  0.945235  0
H  H9  1  0.66126235  0.76811119  0.18251709  1  0  0.248179  0  0.899349  0  0  0.246444  0  0.943243  0  0  0.250755  0  0.941311  0  0  0.300566  0.243144  0  0.945154  0
H  H10  1  0.40115982  0.61752314  0.90827852  1  0  0.037181  0  0.929957  0  0  0.053174  0  0.99052  0  0  0.053118  0  0.990937  0  0  0.105134  0.052915  0  0.990354  0
H  H11  1  0.59884110  0.38247304  0.09171888  1  0  0.037224  0  0.929945  0  0  0.053166  0  0.990563  0  0  0.053107  0  0.990982  0  0  0.105125  0.052908  0  0.990399  0
H  H12  1  0.14685627  0.81672734  0.84135968  1  0  0.084634  0  0.932913  0  0  0.10002  0  0.996319  0  0  0.101857  0  0.995011  0  0  0.09591  0.098495  0  0.997728  0
H  H13  1  0.85314604  0.18327628  0.15864226  1  0  0.084602  0  0.93298  0  0  0.100055  0  0.99634  0  0  0.101897  0  0.995025  0  0  0.095905  0.098522  0  0.997765  0
H  H14  1  0.29858882  0.87617113  0.87628482  1  0  0.070877  0  0.960465  0  0  0.08859  0  1.025675  0  0  0.088677  0  1.026912  0  0  0.092688  0.088806  0  1.023938  0
H  H15  1  0.70141718  0.12382718  0.12371540  1  0  0.070856  0  0.960479  0  0  0.088588  0  1.025701  0  0  0.088677  0  1.026941  0  0  0.092697  0.088805  0  1.023962  0
H  H16  1  0.34341961  0.90408636  0.72087170  1  0  0.038938  0  0.947277  0  0  0.056031  0  1.013775  0  0  0.056419  0  1.013772  0  0  0.089823  0.055464  0  1.014252  0
H  H17  1  0.65657657  0.09591514  0.27912684  1  0  0.038904  0  0.947336  0  0  0.055999  0  1.013822  0  0  0.056385  0  1.013822  0  0  0.089814  0.055434  0  1.014294  0
H  H18  1  0.44689215  0.74164829  0.75658669  1  0  0.071529  0  0.927746  0  0  0.0894  0  0.989297  0  0  0.090043  0  0.989139  0  0  0.107103  0.088956  0  0.989273  0
H  H19  1  0.55310496  0.25835428  0.24341103  1  0  0.071482  0  0.927768  0  0  0.089357  0  0.98931  0  0  0.090001  0  0.989152  0  0  0.107075  0.088919  0  0.989282  0
H  H20  1  0.24965830  0.58730316  0.05845694  1  0  0.108177  0  0.981775  0  0  0.127827  0  1.047272  0  0  0.128273  0  1.049102  0  0  0.089588  0.127231  0  1.04634  0
H  H21  1  0.75034738  0.41269834  0.94154366  1  0  0.108075  0  0.981808  0  0  0.127799  0  1.047226  0  0  0.128245  0  1.049058  0  0  0.089591  0.1272  0  1.046293  0
H  H22  1  0.12690411  0.72686625  0.01173693  1  0  0.103254  0  0.961423  0  0  0.126597  0  1.021583  0  0  0.127558  0  1.022213  0  0  0.088951  0.126002  0  1.020714  0
H  H23  1  0.87310370  0.27313524  0.98826686  1  0  0.103223  0  0.961336  0  0  0.126588  0  1.021489  0  0  0.12755  0  1.022115  0  0  0.088935  0.125991  0  1.020624  0
H  H24  1  0.30122345  0.76155610  0.02827152  1  0  0.097835  0  0.969817  0  0  0.120526  0  1.031556  0  0  0.121616  0  1.031815  0  0  0.086887  0.118877  0  1.032623  0
H  H25  1  0.69878455  0.23844328  0.97172847  1  0  0.097811  0  0.969812  0  0  0.120482  0  1.031597  0  0  0.121574  0  1.031859  0  0  0.086871  0.118832  0  1.032661  0
H  H26  1  0.45055631  0.67096105  0.61455107  1  0  0.050456  0  0.924029  0  0  0.064322  0  0.984123  0  0  0.064145  0  0.985286  0  0  0.111528  0.064466  0  0.983099  0
H  H27  1  0.54944094  0.32904043  0.38545072  1  0  0.050447  0  0.924001  0  0  0.064321  0  0.984075  0  0  0.064145  0  0.985237  0  0  0.111557  0.064467  0  0.983052  0
H  H28  1  0.37499893  0.93174563  0.57376634  1  0  0.065937  0  0.952102  0  0  0.082659  0  1.017474  0  0  0.083641  0  1.017597  0  0  0.087673  0.082706  0  1.015929  0
H  H29  1  0.62499420  0.06825478  0.42623382  1  0  0.065975  0  0.952096  0  0  0.082719  0  1.017457  0  0  0.083703  0  1.017578  0  0  0.087691  0.082766  0  1.01591  0
H  H30  1  0.39588723  0.83871054  0.47977762  1  0  0.084166  0  0.932429  0  0  0.104482  0  0.990121  0  0  0.10562  0  0.989875  0  0  0.096609  0.103302  0  0.990696  0
H  H31  1  0.60410918  0.16128881  0.52022309  1  0  0.084145  0  0.932478  0  0  0.104472  0  0.990156  0  0  0.105607  0  0.989916  0  0  0.096597  0.103293  0  0.990729  0
H  H32  1  0.10950169  0.92088377  0.58039941  1  0  0.04708  0  0.939828  0  0  0.067172  0  1.000394  0  0  0.068028  0  1.000215  0  0  0.08266  0.066432  0  1.000746  0
H  H33  1  0.89049226  0.07911879  0.41959917  1  0  0.047042  0  0.939771  0  0  0.067163  0  1.000343  0  0  0.068029  0  1.000154  0  0  0.082671  0.066421  0  1.000698  0
H  H34  1  0.17432457  0.00378651  0.47466179  1  0  0.059482  0  0.944781  0  0  0.082666  0  0.998677  0  0  0.083113  0  0.999328  0  0  0.08893  0.081863  0  0.99915  0
H  H35  1  0.82567224  0.99620860  0.52533465  1  0  0.059443  0  0.944743  0  0  0.082647  0  0.998654  0  0  0.083097  0  0.999301  0  0  0.088927  0.081844  0  0.999128  0
H  H36  1  0.18283246  0.77866423  0.41010754  1  0  0.072795  0  0.942763  0  0  0.090769  0  1.003799  0  0  0.092143  0  1.003155  0  0  0.089834  0.089856  0  1.0041  0
H  H37  1  0.81715680  0.22133296  0.58989447  1  0  0.07279  0  0.942666  0  0  0.090769  0  1.003738  0  0  0.092148  0  1.003095  0  0  0.089838  0.089854  0  1.004043  0
H  H38  1  0.00943711  0.82308032  0.45812053  1  0  0.054041  0  0.968834  0  0  0.071327  0  1.035928  0  0  0.071521  0  1.037345  0  0  0.083693  0.071142  0  1.035059  0
H  H39  1  0.99055530  0.17691688  0.54188129  1  0  0.053975  0  0.968716  0  0  0.071272  0  1.035847  0  0  0.071469  0  1.037266  0  0  0.083662  0.071088  0  1.034976  0
H  H40  1  0.09053082  0.56459563  0.49598339  1  0  0.06608  0  0.96162  0  0  0.084216  0  1.026608  0  0  0.084754  0  1.027099  0  0  0.091093  0.083886  0  1.026413  0
H  H41  1  0.90945942  0.43540259  0.50402245  1  0  0.066076  0  0.961586  0  0  0.084248  0  1.026584  0  0  0.084787  0  1.027076  0  0  0.09112  0.083922  0  1.026384  0
H  H42  1  0.05508582  0.64463392  0.59454056  1  0  0.081033  0  0.953013  0  0  0.097613  0  1.01434  0  0  0.098942  0  1.014373  0  0  0.091604  0.096612  0  1.014244  0
H  H43  1  0.94491156  0.35536647  0.40546398  1  0  0.08094  0  0.95314  0  0  0.097594  0  1.014407  0  0  0.098922  0  1.01444  0  0  0.091575  0.096594  0  1.01431  0
H  H44  1  0.34524609  0.58802913  0.49407076  1  0  0.053668  0  0.941507  0  0  0.06603  0  1.002799  0  0  0.066709  0  1.003128  0  0  0.103109  0.065383  0  1.002537  0
H  H45  1  0.65475009  0.41197237  0.50592844  1  0  0.053656  0  0.941518  0  0  0.066022  0  1.0028  0  0  0.066702  0  1.00313  0  0  0.103106  0.065376  0  1.002539  0
H  H46  1  0.10579806  0.37287122  0.59544263  1  0  0.039336  0  0.927098  0  0  0.055493  0  0.987115  0  0  0.055393  0  0.987586  0  0  0.106784  0.055252  0  0.98691  0
H  H47  1  0.89420143  0.62712918  0.40456111  1  0  0.039369  0  0.927045  0  0  0.055502  0  0.987108  0  0  0.055401  0  0.987578  0  0  0.106789  0.055259  0  0.986904  0
H  H48  1  0.35994476  0.17518817  0.66420511  1  0  0.083062  0  0.93066  0  0  0.099213  0  0.992829  0  0  0.101018  0  0.991607  0  0  0.095678  0.097679  0  0.994261  0
H  H49  1  0.64006081  0.82481440  0.33579540  1  0  0.083009  0  0.930675  0  0  0.099164  0  0.992859  0  0  0.100983  0  0.991614  0  0  0.095666  0.097631  0  0.994291  0
H  H50  1  0.20922874  0.11494885  0.62856849  1  0  0.072664  0  0.960122  0  0  0.090678  0  1.024716  0  0  0.090728  0  1.026081  0  0  0.093757  0.090996  0  1.022759  0
H  H51  1  0.79077536  0.88504733  0.37143004  1  0  0.072673  0  0.960117  0  0  0.090717  0  1.024677  0  0  0.090762  0  1.026044  0  0  0.093783  0.091034  0  1.022722  0
H  H52  1  0.05915223  0.25214181  0.74703944  1  0  0.07413  0  0.929442  0  0  0.091274  0  0.991108  0  0  0.092075  0  0.990786  0  0  0.10795  0.090722  0  0.991192  0
H  H53  1  0.94085115  0.74785115  0.25296142  1  0  0.074084  0  0.929541  0  0  0.09124  0  0.991195  0  0  0.09204  0  0.990873  0  0  0.107942  0.090688  0  0.991281  0
H  H54  1  0.15936834  0.08787183  0.78322165  1  0  0.039979  0  0.944896  0  0  0.057936  0  1.010022  0  0  0.0583  0  1.010075  0  0  0.091026  0.057291  0  1.010596  0
H  H55  1  0.84063977  0.91212647  0.21677910  1  0  0.039998  0  0.94488  0  0  0.057915  0  1.010065  0  0  0.058273  0  1.010118  0  0  0.091025  0.057271  0  1.010633  0
H  H56  1  0.25907082  0.40321322  0.44590160  1  0  0.10812  0  0.976489  0  0  0.12772  0  1.041848  0  0  0.128238  0  1.043562  0  0  0.090048  0.127097  0  1.040912  0
H  H57  1  0.74091771  0.59678076  0.55410075  1  0  0.108174  0  0.976397  0  0  0.127741  0  1.041809  0  0  0.128262  0  1.043523  0  0  0.090042  0.127115  0  1.04087  0
H  H58  1  0.20933014  0.22806366  0.47587852  1  0  0.098476  0  0.970521  0  0  0.120296  0  1.032905  0  0  0.121415  0  1.033089  0  0  0.086064  0.118644  0  1.033936  0
H  H59  1  0.79065502  0.77193244  0.52412386  1  0  0.098535  0  0.970461  0  0  0.120316  0  1.032883  0  0  0.121433  0  1.033068  0  0  0.086073  0.118667  0  1.033911  0
H  H60  1  0.38229122  0.26489193  0.49367643  1  0  0.102841  0  0.963795  0  0  0.126193  0  1.024074  0  0  0.127204  0  1.024604  0  0  0.088975  0.125571  0  1.023226  0
H  H61  1  0.61769718  0.73510313  0.50632318  1  0  0.102888  0  0.963681  0  0  0.126293  0  1.023894  0  0  0.127304  0  1.024424  0  0  0.089011  0.12567  0  1.023047  0
H  H62  1  0.05148436  0.32604262  0.88667433  1  0  0.051685  0  0.925452  0  0  0.065039  0  0.986206  0  0  0.064951  0  0.987274  0  0  0.111417  0.065129  0  0.985249  0
H  H63  1  0.94851481  0.67395033  0.11332680  1  0  0.051653  0  0.925518  0  0  0.065014  0  0.986272  0  0  0.064932  0  0.987325  0  0  0.111395  0.065094  0  0.985339  0
H  H64  1  0.11828163  0.06403592  0.93153285  1  0  0.0682  0  0.948958  0  0  0.084072  0  1.014676  0  0  0.085081  0  1.014859  0  0  0.088334  0.084047  0  1.013238  0
H  H65  1  0.88172384  0.93595707  0.06846457  1  0  0.068169  0  0.948955  0  0  0.08409  0  1.014627  0  0  0.085095  0  1.01482  0  0  0.088366  0.084066  0  1.01318  0
H  H66  1  0.09381207  0.16052011  0.02408335  1  0  0.08527  0  0.931817  0  0  0.104418  0  0.990806  0  0  0.1056  0  0.990541  0  0  0.095945  0.103312  0  0.991275  0
H  H67  1  0.90619667  0.83947181  0.97591529  1  0  0.085224  0  0.931819  0  0  0.104457  0  0.9907  0  0  0.105678  0  0.990386  0  0  0.095956  0.103308  0  0.991223  0
H  H68  1  0.31017733  0.98960059  0.03731286  1  0  0.060453  0  0.940427  0  0  0.084098  0  0.992953  0  0  0.084502  0  0.993706  0  0  0.089268  0.083382  0  0.993294  0
H  H69  1  0.68983934  0.01039569  0.96267760  1  0  0.06054  0  0.940397  0  0  0.084167  0  0.992947  0  0  0.084574  0  0.993693  0  0  0.089273  0.083446  0  0.993296  0
H  H70  1  0.38307162  0.06520218  0.93176431  1  0  0.045303  0  0.94593  0  0  0.064861  0  1.0089  0  0  0.065783  0  1.008525  0  0  0.082444  0.064073  0  1.009374  0
H  H71  1  0.61693797  0.93480154  0.06822657  1  0  0.045401  0  0.945991  0  0  0.064981  0  1.008902  0  0  0.065872  0  1.008564  0  0  0.08247  0.06419  0  1.009374  0
H  H72  1  0.48136440  0.16524091  0.05323946  1  0  0.054126  0  0.965499  0  0  0.071676  0  1.031521  0  0  0.071944  0  1.032821  0  0  0.082723  0.071435  0  1.030718  0
H  H73  1  0.51864324  0.83476169  0.94675760  1  0  0.05412  0  0.965628  0  0  0.071709  0  1.031596  0  0  0.071976  0  1.032898  0  0  0.082746  0.071467  0  1.030794  0
H  H74  1  0.30751331  0.21765950  0.09759991  1  0  0.072983  0  0.945332  0  0  0.090315  0  1.006558  0  0  0.091717  0  1.00591  0  0  0.089056  0.089325  0  1.00695  0
H  H75  1  0.69249097  0.78233457  0.90239550  1  0  0.072999  0  0.945438  0  0  0.090356  0  1.006635  0  0  0.091755  0  1.005993  0  0  0.089059  0.089366  0  1.007026  0
H  H76  1  0.44538206  0.33929999  0.91302254  1  0  0.078084  0  0.9508  0  0  0.09421  0  1.013786  0  0  0.095566  0  1.013713  0  0  0.090028  0.09315  0  1.013808  0
H  H77  1  0.55461663  0.66070792  0.08697592  1  0  0.078012  0  0.950705  0  0  0.094154  0  1.01371  0  0  0.095504  0  1.013638  0  0  0.089999  0.093095  0  1.01373  0
H  H78  1  0.41102132  0.42470126  0.00934938  1  0  0.066978  0  0.962152  0  0  0.085442  0  1.026647  0  0  0.086039  0  1.027064  0  0  0.091988  0.085114  0  1.026444  0
H  H79  1  0.58897393  0.57529916  0.99065131  1  0  0.066997  0  0.962018  0  0  0.085456  0  1.026555  0  0  0.086063  0  1.02696  0  0  0.092004  0.085126  0  1.026357  0
H  H80  1  0.15407509  0.40727631  0.00964032  1  0  0.054304  0  0.942162  0  0  0.067296  0  1.002483  0  0  0.067959  0  1.002863  0  0  0.103828  0.066703  0  1.002115  0
H  H81  1  0.84592271  0.59271982  0.99036193  1  0  0.054273  0  0.942252  0  0  0.067313  0  1.002536  0  0  0.067974  0  1.002914  0  0  0.103835  0.066723  0  1.002165  0
H  H82  1  0.82266923  0.38945883  0.68986142  1  0  0.108625  0  0.956955  0  0  0.11578  0  1.023097  0  0  0.120176  0  1.020062  0  0  0.100649  0.113141  0  1.024565  0
H  H83  1  0.17734995  0.61053515  0.31015097  1  0  0.108665  0  0.956944  0  0  0.115755  0  1.023135  0  0  0.12015  0  1.020104  0  0  0.100637  0.113118  0  1.024603  0
H  H84  1  0.68564069  0.60774575  0.81091031  1  0  0.10721  0  0.959338  0  0  0.114307  0  1.026364  0  0  0.118646  0  1.023282  0  0  0.100437  0.111729  0  1.027834  0
H  H85  1  0.31436334  0.39228146  0.18907809  1  0  0.107164  0  0.959416  0  0  0.114302  0  1.026381  0  0  0.11862  0  1.023322  0  0  0.100443  0.111724  0  1.027853  0
C  C86  1  0.28703189  0.65236374  0.91287904  1  0  0.210569  0  3.589768  0  0  0.194876  0  3.833876  0  0  0.199393  0  3.850104  0  0  -0.001146  0.191678  0  3.823275  0
C  C87  1  0.71297096  0.34763455  0.08712270  1  0  0.210499  0  3.589774  0  0  0.194879  0  3.833894  0  0  0.199405  0  3.850112  0  0  -0.001103  0.191678  0  3.823295  0
C  C88  1  0.26191593  0.78992065  0.84612090  1  0  -0.19687  0  3.655272  0  0  -0.239097  0  3.915663  0  0  -0.241353  0  3.928946  0  0  -0.162691  -0.237842  0  3.906593  0
C  C89  1  0.73808796  0.21007766  0.15387878  1  0  -0.196804  0  3.655245  0  0  -0.239163  0  3.915757  0  0  -0.241409  0  3.929012  0  0  -0.162721  -0.237904  0  3.90668  0
C  C90  1  0.33764963  0.79208419  0.75209112  1  0  0.047326  0  3.644258  0  0  -0.014612  0  3.913538  0  0  -0.010205  0  3.925539  0  0  -0.072227  -0.017716  0  3.906247  0
C  C91  1  0.66235182  0.20791731  0.24790842  1  0  0.047335  0  3.644336  0  0  -0.014554  0  3.913602  0  0  -0.010148  0  3.925615  0  0  -0.072202  -0.017656  0  3.906301  0
C  C92  1  0.23865103  0.68305615  0.00833461  1  0  -0.347472  0  3.666839  0  0  -0.431221  0  3.909432  0  0  -0.434313  0  3.920786  0  0  -0.248943  -0.428464  0  3.902355  0
C  C93  1  0.76135476  0.31694429  0.99166675  1  0  -0.347376  0  3.666738  0  0  -0.431164  0  3.909294  0  0  -0.434265  0  3.92064  0  0  -0.248937  -0.428399  0  3.902212  0
C  C94  1  0.33888992  0.70712797  0.60357347  1  0  0.106176  0  3.569569  0  0  0.085881  0  3.812695  0  0  0.088865  0  3.829018  0  0  0.003209  0.083992  0  3.800939  0
C  C95  1  0.66110733  0.29287351  0.39642765  1  0  0.106292  0  3.569523  0  0  0.086044  0  3.812609  0  0  0.089029  0  3.82893  0  0  0.00328  0.084154  0  3.800849  0
C  C96  1  0.32973065  0.85161131  0.54249048  1  0  -0.167761  0  3.679236  0  0  -0.215377  0  3.944196  0  0  -0.216797  0  3.957614  0  0  -0.167517  -0.214335  0  3.933668  0
C  C97  1  0.67026343  0.14839017  0.45750952  1  0  -0.167895  0  3.679214  0  0  -0.215539  0  3.944208  0  0  -0.216961  0  3.957626  0  0  -0.167541  -0.214492  0  3.933674  0
C  C98  1  0.17762557  0.90103990  0.51916295  1  0  -0.096092  0  3.703827  0  0  -0.136348  0  3.970853  0  0  -0.137132  0  3.98582  0  0  -0.166068  -0.135155  0  3.960126  0
C  C99  1  0.82236977  0.09895946  0.48083650  1  0  -0.095955  0  3.70346  0  0  -0.136268  0  3.970621  0  0  -0.137055  0  3.985596  0  0  -0.166081  -0.135072  0  3.959886  0
C  C100  1  0.11927598  0.78878119  0.47411817  1  0  -0.112071  0  3.69246  0  0  -0.152788  0  3.956102  0  0  -0.153924  0  3.970952  0  0  -0.171997  -0.151535  0  3.945169  0
C  C101  1  0.88071444  0.21121493  0.52588454  1  0  -0.111967  0  3.692122  0  0  -0.152733  0  3.955981  0  0  -0.153888  0  3.970852  0  0  -0.171979  -0.151481  0  3.945048  0
C  C102  1  0.12699061  0.64290089  0.53304881  1  0  -0.158046  0  3.652307  0  0  -0.2012  0  3.907575  0  0  -0.202958  0  3.921831  0  0  -0.168611  -0.199733  0  3.89781  0
C  C103  1  0.87300393  0.35709629  0.46695487  1  0  -0.158012  0  3.652327  0  0  -0.201306  0  3.907747  0  0  -0.203059  0  3.922002  0  0  -0.168611  -0.199838  0  3.89798  0
C  C104  1  0.27900402  0.59425716  0.55767207  1  0  0.108498  0  3.555613  0  0  0.090359  0  3.79178  0  0  0.093089  0  3.807997  0  0  -0.0022  0.088584  0  3.780527  0
C  C105  1  0.72099333  0.40574326  0.44232848  1  0  0.108499  0  3.555551  0  0  0.090397  0  3.791694  0  0  0.09313  0  3.80791  0  0  -0.002228  0.088621  0  3.780443  0
C  C106  1  0.22003392  0.33864324  0.59143241  1  0  0.2106  0  3.586023  0  0  0.194587  0  3.830865  0  0  0.199198  0  3.846974  0  0  -0.000434  0.191434  0  3.820244  0
C  C107  1  0.77996554  0.66135719  0.40856801  1  0  0.210686  0  3.58593  0  0  0.19463  0  3.830885  0  0  0.199237  0  3.846999  0  0  -0.000441  0.191476  0  3.820268  0
C  C108  1  0.24495380  0.20163860  0.65875151  1  0  -0.194888  0  3.65274  0  0  -0.23738  0  3.913632  0  0  -0.239591  0  3.926715  0  0  -0.162601  -0.236282  0  3.904708  0
C  C109  1  0.75504914  0.79835864  0.34124833  1  0  -0.194877  0  3.65264  0  0  -0.237389  0  3.913596  0  0  -0.239589  0  3.926645  0  0  -0.162633  -0.236289  0  3.904664  0
C  C110  1  0.16750627  0.19975441  0.75238573  1  0  0.044609  0  3.643375  0  0  -0.017137  0  3.912541  0  0  -0.01282  0  3.924448  0  0  -0.072748  -0.020139  0  3.905332  0
C  C111  1  0.83249760  0.80024391  0.24761263  1  0  0.044693  0  3.643421  0  0  -0.017058  0  3.912596  0  0  -0.012728  0  3.924509  0  0  -0.072718  -0.020057  0  3.905383  0
C  C112  1  0.27021807  0.30760113  0.49620724  1  0  -0.347924  0  3.668002  0  0  -0.431  0  3.910808  0  0  -0.434057  0  3.921934  0  0  -0.248946  -0.428196  0  3.903611  0
C  C113  1  0.72977129  0.69239500  0.50379354  1  0  -0.348124  0  3.667808  0  0  -0.43115  0  3.910586  0  0  -0.434211  0  3.921712  0  0  -0.248972  -0.428342  0  3.903385  0
C  C114  1  0.16141660  0.28674858  0.90061107  1  0  0.106671  0  3.566235  0  0  0.085927  0  3.809436  0  0  0.088854  0  3.825724  0  0  0.00375  0.08404  0  3.797864  0
C  C115  1  0.83858517  0.71324974  0.09938742  1  0  0.106685  0  3.566413  0  0  0.085913  0  3.809637  0  0  0.088849  0  3.825945  0  0  0.003777  0.08403  0  3.798048  0
C  C116  1  0.16339666  0.14378216  0.96324967  1  0  -0.170072  0  3.675591  0  0  -0.215563  0  3.939211  0  0  -0.217144  0  3.952803  0  0  -0.167404  -0.214414  0  3.928677  0
C  C117  1  0.83661090  0.85621085  0.03674629  1  0  -0.170013  0  3.675548  0  0  -0.215574  0  3.939159  0  0  -0.217176  0  3.952742  0  0  -0.167446  -0.214399  0  3.928631  0
C  C118  1  0.31259733  0.09032190  0.99099282  1  0  -0.09554  0  3.698607  0  0  -0.136719  0  3.965128  0  0  -0.13743  0  3.980087  0  0  -0.166991  -0.135626  0  3.954452  0
C  C119  1  0.68741166  0.90967754  0.00899981  1  0  -0.095613  0  3.698641  0  0  -0.136782  0  3.965196  0  0  -0.137481  0  3.980168  0  0  -0.166913  -0.135675  0  3.954493  0
C  C120  1  0.37308496  0.20255140  0.03497255  1  0  -0.111432  0  3.688192  0  0  -0.150303  0  3.949  0  0  -0.151492  0  3.963932  0  0  -0.169666  -0.149016  0  3.938101  0
C  C121  1  0.62691761  0.79744908  0.96502171  1  0  -0.111502  0  3.688236  0  0  -0.150433  0  3.949158  0  0  -0.151621  0  3.964081  0  0  -0.169709  -0.149145  0  3.938255  0
C  C122  1  0.37216440  0.34612048  0.97360520  1  0  -0.156505  0  3.651841  0  0  -0.200289  0  3.907145  0  0  -0.202113  0  3.9215  0  0  -0.166657  -0.198763  0  3.89731  0
C  C123  1  0.62783377  0.65388210  0.02639245  1  0  -0.156341  0  3.651397  0  0  -0.200184  0  3.906885  0  0  -0.202007  0  3.92123  0  0  -0.166667  -0.198658  0  3.897051  0
C  C124  1  0.22201640  0.39866168  0.94692476  1  0  0.106113  0  3.559684  0  0  0.087699  0  3.796131  0  0  0.090483  0  3.812232  0  0  -0.004283  0.085869  0  3.784895  0
C  C125  1  0.77798095  0.60133874  0.05307513  1  0  0.106016  0  3.55972  0  0  0.087604  0  3.79623  0  0  0.090388  0  3.812333  0  0  -0.004285  0.085777  0  3.784992  0
C  C126  1  0.58953356  0.42118658  0.71533385  1  0  0.658715  0  3.953221  0  0  0.616424  0  4.248094  0  0  0.649673  0  4.239383  0  0  0.190721  0.593895  0  4.253409  0
C  C127  1  0.41048030  0.57880744  0.28467224  1  0  0.658776  0  3.95311  0  0  0.616379  0  4.248142  0  0  0.64963  0  4.239436  0  0  0.190694  0.593852  0  4.253456  0
C  C128  1  0.73776821  0.44956295  0.72634742  1  0  -0.175869  0  3.689251  0  0  -0.192735  0  3.940769  0  0  -0.19753  0  3.954423  0  0  -0.095033  -0.189778  0  3.931207  0
C  C129  1  0.26224083  0.55043742  0.27366369  1  0  -0.176005  0  3.688717  0  0  -0.192743  0  3.940253  0  0  -0.197542  0  3.953908  0  0  -0.095116  -0.189787  0  3.930691  0
C  C130  1  0.91901594  0.57433998  0.78567374  1  0  0.651767  0  3.963697  0  0  0.608978  0  4.260212  0  0  0.642078  0  4.251583  0  0  0.18612  0.586574  0  4.265472  0
C  C131  1  0.08097454  0.42567641  0.21432976  1  0  0.651629  0  3.963915  0  0  0.608911  0  4.260388  0  0  0.642012  0  4.251759  0  0  0.186209  0.586507  0  4.265635  0
C  C132  1  0.77031764  0.54731837  0.77446717  1  0  -0.175452  0  3.693632  0  0  -0.192422  0  3.945188  0  0  -0.197084  0  3.958931  0  0  -0.094519  -0.189579  0  3.935588  0
C  C133  1  0.22968977  0.45268638  0.22552773  1  0  -0.17523  0  3.693103  0  0  -0.192221  0  3.944568  0  0  -0.196866  0  3.958321  0  0  -0.094396  -0.189379  0  3.934968  0
N  N134  1  0.21377322  0.53725656  0.88668180  1  0  -0.472199  0  3.16844  0  0  -0.400108  0  3.411913  0  0  -0.41835  0  3.419598  0  0  -0.485505  -0.387772  0  3.406505  0
N  N135  1  0.78622299  0.46274490  0.11332139  1  0  -0.472116  0  3.168167  0  0  -0.400094  0  3.411783  0  0  -0.418339  0  3.419463  0  0  -0.485553  -0.387757  0  3.406378  0
N  N136  1  0.26797302  0.71246279  0.69492956  1  0  -0.424095  0  3.225682  0  0  -0.352535  0  3.476432  0  0  -0.369337  0  3.486101  0  0  -0.484878  -0.340681  0  3.469715  0
N  N137  1  0.73202285  0.28754190  0.30507069  1  0  -0.424094  0  3.225726  0  0  -0.352605  0  3.476543  0  0  -0.369409  0  3.486213  0  0  -0.484946  -0.340774  0  3.46988  0
N  N138  1  0.29228041  0.45482352  0.61710192  1  0  -0.475176  0  3.165081  0  0  -0.402914  0  3.409056  0  0  -0.421224  0  3.416756  0  0  -0.487612  -0.390646  0  3.403738  0
N  N139  1  0.70772104  0.54517799  0.38289696  1  0  -0.475245  0  3.165116  0  0  -0.402949  0  3.409077  0  0  -0.421274  0  3.416797  0  0  -0.48757  -0.390677  0  3.403757  0
N  N140  1  0.23705668  0.27734180  0.81082981  1  0  -0.423378  0  3.226888  0  0  -0.352204  0  3.478533  0  0  -0.368868  0  3.488172  0  0  -0.485062  -0.340507  0  3.471844  0
N  N141  1  0.76294370  0.72265971  0.18916847  1  0  -0.423585  0  3.226992  0  0  -0.352306  0  3.478496  0  0  -0.369007  0  3.488159  0  0  -0.485108  -0.340611  0  3.471803  0
O  O142  1  0.48963437  0.47562551  0.76652352  1  0  -0.658497  0  2.013765  0  0  -0.597959  0  2.272002  0  0  -0.623519  0  2.261083  0  0  -0.33449  -0.580166  0  2.277836  0
O  O143  1  0.51036361  0.52436853  0.23347427  1  0  -0.658595  0  2.013877  0  0  -0.598069  0  2.272184  0  0  -0.623627  0  2.261265  0  0  -0.334543  -0.580277  0  2.27802  0
O  O144  1  0.57367010  0.34724271  0.65398764  1  0  -0.637888  0  1.900347  0  0  -0.595821  0  2.12083  0  0  -0.617926  0  2.111126  0  0  -0.342819  -0.580444  0  2.127064  0
O  O145  1  0.42634893  0.65276205  0.34601051  1  0  -0.63778  0  1.900302  0  0  -0.595692  0  2.120859  0  0  -0.617799  0  2.111157  0  0  -0.342688  -0.580315  0  2.127093  0
O  O146  1  0.01884257  0.51343963  0.73775128  1  0  -0.657022  0  2.013557  0  0  -0.59755  0  2.268846  0  0  -0.62278  0  2.258363  0  0  -0.331172  -0.580031  0  2.274425  0
O  O147  1  0.98116334  0.48655973  0.26225149  1  0  -0.656845  0  2.013798  0  0  -0.597555  0  2.269191  0  0  -0.62278  0  2.258707  0  0  -0.331254  -0.580038  0  2.274763  0
O  O148  1  0.93518212  0.65333175  0.84432810  1  0  -0.639141  0  1.899705  0  0  -0.59683  0  2.120669  0  0  -0.61887  0  2.110827  0  0  -0.34388  -0.581502  0  2.126981  0
O  O149  1  0.06480370  0.34667826  0.15567030  1  0  -0.639249  0  1.899742  0  0  -0.596899  0  2.120632  0  0  -0.618946  0  2.110789  0  0  -0.343965  -0.581574  0  2.126952  0
