# generated using pymatgen
data_MnH8C13NO5
_symmetry_space_group_name_H-M   'P 1'
_cell_length_a   10.69039517
_cell_length_b   12.38472714
_cell_length_c   12.38460036
_cell_angle_alpha   101.67849318
_cell_angle_beta   106.53984961
_cell_angle_gamma   106.53703759
_symmetry_Int_Tables_number   1
_chemical_formula_structural   MnH8C13NO5
_chemical_formula_sum   'Mn4 H32 C52 N4 O20'
_cell_volume   1433.35771981
_cell_formula_units_Z   4
loop_
 _symmetry_equiv_pos_site_id
 _symmetry_equiv_pos_as_xyz
  1  'x, y, z'
loop_
 _atom_site_type_symbol
 _atom_site_label
 _atom_site_symmetry_multiplicity
 _atom_site_fract_x
 _atom_site_fract_y
 _atom_site_fract_z
 _atom_site_occupancy
 _atom_site_pbe_bader_charge
 _atom_site_pbe_bader_spin_density
 _atom_site_pbe_cm5_charge
 _atom_site_pbe_ddec_charge
 _atom_site_pbe_ddec_spin_density
 _atom_site_pbe_ddec_sum_bond_order
 _atom_site_pbe_magmom
Mn  Mn0  1  0.74999236  0.30036827  0.69959422  1  1.616937  4.30442  0.657652  1.094138  4.464374  2.534828  4.268
Mn  Mn1  1  0.25000452  0.69963104  0.30039829  1  1.616874  4.30443  0.657613  1.094088  4.464361  2.534981  4.268
Mn  Mn2  1  0.99999906  0.49999084  0.99999387  1  1.58207  4.439534  0.624135  1.079518  4.581118  2.307631  4.38
Mn  Mn3  1  0.50000016  0.00000768  0.50000120  1  1.582106  4.439436  0.624268  1.079705  4.581031  2.307496  4.38
H  H4  1  0.96200094  0.66950619  0.42923049  1  0.096567  0.000283  0.107246  0.111658  -0.000175  0.991772  0.0
H  H5  1  0.53799392  0.57078603  0.33051750  1  0.096489  0.000283  0.107246  0.111665  -0.000176  0.991666  0.0
H  H6  1  0.03799728  0.33049244  0.57077275  1  0.096503  0.000283  0.107243  0.111649  -0.000175  0.991679  0.0
H  H7  1  0.46200629  0.42921411  0.66947523  1  0.096652  0.000283  0.107248  0.111643  -0.000176  0.991699  0.0
H  H8  1  0.87133000  0.54096837  0.54368899  1  0.107766  0.000296  0.107353  0.112553  -0.000131  1.01183  0.0
H  H9  1  0.62863155  0.45628657  0.45901481  1  0.104484  0.000296  0.107401  0.112565  -0.000131  1.012123  0.0
H  H10  1  0.12865890  0.45903577  0.45631517  1  0.107812  0.000296  0.107356  0.11258  -0.000131  1.011789  0.0
H  H11  1  0.37136290  0.54370910  0.54097075  1  0.108156  0.000296  0.107376  0.112616  -0.000131  1.011972  0.0
H  H12  1  0.26021283  0.72027357  0.83968748  1  0.035025  0.000589  0.097725  0.096755  0.000171  1.025889  0.0
H  H13  1  0.23974577  0.16032757  0.27974206  1  0.03467  0.000589  0.097766  0.096808  0.000171  1.025809  0.0
H  H14  1  0.73978602  0.27971961  0.16031013  1  0.035045  0.000589  0.097738  0.096766  0.000171  1.025874  0.0
H  H15  1  0.76024720  0.83967472  0.72026205  1  0.034671  0.000589  0.097753  0.096795  0.000171  1.025787  0.0
H  H16  1  0.34598957  0.85393851  0.72823722  1  0.097536  0.000807  0.090026  0.085895  0.000421  1.080759  0.0
H  H17  1  0.15396828  0.27179755  0.14610021  1  0.097637  0.000807  0.090097  0.085937  0.000421  1.081012  0.0
H  H18  1  0.65401782  0.14604737  0.27175814  1  0.097463  0.000807  0.089982  0.085924  0.000421  1.080742  0.0
H  H19  1  0.84602052  0.72820670  0.85390879  1  0.097254  0.000807  0.09006  0.085938  0.00042  1.08095  0.0
H  H20  1  0.99976247  0.19213408  0.77040889  1  0.192971  0.000672  0.146873  0.150293  -0.000271  0.973985  0.0
H  H21  1  0.50027981  0.22959621  0.80786387  1  0.193153  0.000671  0.146883  0.150257  -0.000271  0.973993  0.0
H  H22  1  0.00024877  0.80786815  0.22960815  1  0.192833  0.000672  0.146827  0.15023  -0.000271  0.973902  0.0
H  H23  1  0.49971879  0.77040940  0.19213424  1  0.193221  0.000671  0.14691  0.15042  -0.000272  0.97388  0.0
H  H24  1  0.05700743  0.02649403  0.83121875  1  0.071157  0.000708  0.117801  0.127188  0.000109  0.989408  0.0
H  H25  1  0.44302992  0.16879668  0.97350611  1  0.071891  0.000706  0.117817  0.127131  0.000109  0.989397  0.0
H  H26  1  0.94303383  0.97352296  0.16880887  1  0.071773  0.000707  0.117812  0.127166  0.000108  0.989312  0.0
H  H27  1  0.55696889  0.83120711  0.02649013  1  0.071583  0.000706  0.117811  0.127111  0.000109  0.989346  0.0
H  H28  1  0.89189883  0.09971771  0.10974733  1  0.076463  0.000478  0.114279  0.120637  -3.2e-05  1.002867  0.0
H  H29  1  0.60809963  0.89024421  0.90029580  1  0.076341  0.000478  0.114244  0.120654  -3.2e-05  1.002662  0.0
H  H30  1  0.10811954  0.90028698  0.89026638  1  0.076126  0.000478  0.114359  0.120797  -3.2e-05  1.00267  0.0
H  H31  1  0.39189324  0.10975529  0.09970214  1  0.076396  0.000478  0.11424  0.120644  -3.2e-05  1.002772  0.0
H  H32  1  0.84556313  0.26228143  0.03656914  1  0.193413  0.000633  0.13429  0.123309  3.2e-05  1.051628  0.0
H  H33  1  0.65444211  0.96340786  0.73771648  1  0.193395  0.000632  0.134439  0.123577  3.2e-05  1.051703  0.0
H  H34  1  0.15442833  0.73770667  0.96343368  1  0.19371  0.000633  0.134269  0.123222  3.2e-05  1.051601  0.0
H  H35  1  0.34553993  0.03658905  0.26227570  1  0.193539  0.000631  0.134419  0.123565  3.1e-05  1.051667  0.0
C  C36  1  0.22008214  0.84018600  0.50193802  1  1.535139  0.036189  0.221883  0.595176  0.035386  4.164777  0.03
C  C37  1  0.27992375  0.49807979  0.15983691  1  1.534058  0.036187  0.221999  0.595344  0.035376  4.164571  0.03
C  C38  1  0.77991150  0.15981080  0.49805884  1  1.535347  0.036184  0.221919  0.595281  0.035385  4.164662  0.03
C  C39  1  0.72008031  0.50192034  0.84015846  1  1.534279  0.036171  0.221983  0.595314  0.035366  4.16483  0.03
C  C40  1  0.15871864  0.77134896  0.57304567  1  -0.042168  0.002769  -0.013675  -0.026723  0.001022  3.955296  0.001
C  C41  1  0.34126420  0.42696006  0.22866917  1  -0.04243  0.002765  -0.013601  -0.02655  0.001019  3.955166  0.001
C  C42  1  0.84128403  0.22864583  0.42694758  1  -0.04227  0.002768  -0.013636  -0.026665  0.001021  3.955281  0.001
C  C43  1  0.65872963  0.57303944  0.77132983  1  -0.042539  0.002764  -0.013677  -0.026658  0.001018  3.955257  0.001
C  C44  1  0.02447631  0.68291808  0.52071300  1  0.023661  0.006254  -0.079703  -0.087918  0.004613  3.963645  0.004
C  C45  1  0.47550678  0.47929412  0.31708492  1  0.023573  0.006253  -0.079534  -0.087727  0.004612  3.96352  0.004
C  C46  1  0.97551937  0.31707701  0.47928814  1  0.023742  0.006253  -0.079639  -0.087796  0.004613  3.963561  0.004
C  C47  1  0.52449094  0.52070693  0.68290650  1  0.023586  0.006251  -0.079486  -0.087585  0.004611  3.963602  0.004
C  C48  1  0.97459837  0.61097552  0.58367106  1  -0.082645  0.001972  -0.080198  -0.087313  0.001358  3.963543  0.001
C  C49  1  0.52538009  0.41632682  0.38901203  1  -0.077818  0.001973  -0.080329  -0.087493  0.001361  3.964192  0.001
C  C50  1  0.02540120  0.38901949  0.41633030  1  -0.0819  0.001972  -0.080255  -0.087462  0.001359  3.963574  0.001
C  C51  1  0.47461978  0.58367239  0.61097802  1  -0.081832  0.001974  -0.080306  -0.087657  0.001361  3.964106  0.001
C  C52  1  0.05873853  0.62381872  0.69910853  1  -0.088143  0.010499  -0.017553  -0.037031  0.007923  3.962143  0.006
C  C53  1  0.44124573  0.30088933  0.37617141  1  -0.089199  0.010503  -0.017632  -0.037088  0.007926  3.9623  0.006
C  C54  1  0.94125526  0.37618532  0.30089530  1  -0.088533  0.0105  -0.017517  -0.036935  0.007924  3.962102  0.006
C  C55  1  0.55875680  0.69911170  0.62382290  1  -0.088319  0.0105  -0.017673  -0.037093  0.007924  3.962453  0.006
C  C56  1  0.19293204  0.71246829  0.75150789  1  0.040968  0.001666  -0.094058  -0.108789  0.001249  3.997986  0.001
C  C57  1  0.30704584  0.24849394  0.28753245  1  0.041035  0.00167  -0.094118  -0.10895  0.001252  3.998282  0.001
C  C58  1  0.80706665  0.28753114  0.24849158  1  0.04043  0.001666  -0.094132  -0.108899  0.001249  3.998088  0.001
C  C59  1  0.69295056  0.75150908  0.71246704  1  0.040476  0.001669  -0.094073  -0.108847  0.001251  3.9983  0.001
C  C60  1  0.24131000  0.78645027  0.68949665  1  -0.093234  0.006823  -0.096142  -0.104788  0.00504  3.995225  0.004
C  C61  1  0.25865540  0.31051260  0.21356048  1  -0.092431  0.006824  -0.096224  -0.104797  0.005041  3.995408  0.004
C  C62  1  0.75869128  0.21353918  0.31049449  1  -0.092991  0.006822  -0.096125  -0.104865  0.00504  3.995241  0.004
C  C63  1  0.74133965  0.68948953  0.78643770  1  -0.092102  0.006823  -0.096176  -0.104807  0.005041  3.995326  0.004
C  C64  1  0.00433042  0.54087228  0.76256829  1  1.579768  0.017823  0.224817  0.589871  0.017372  4.169389  0.015
C  C65  1  0.49565447  0.23741741  0.45911171  1  1.580014  0.017837  0.224725  0.589765  0.017391  4.169534  0.015
C  C66  1  0.99565860  0.45912275  0.23742460  1  1.579972  0.017822  0.22488  0.589955  0.017373  4.169254  0.015
C  C67  1  0.50434396  0.76258099  0.54088105  1  1.580094  0.017831  0.224862  0.589868  0.017384  4.169507  0.015
C  C68  1  0.98242304  0.16663418  0.84545083  1  0.3467  0.034251  0.054602  -0.01556  0.026132  3.833943  0.017
C  C69  1  0.51760250  0.15454828  0.83336692  1  0.346599  0.034277  0.054539  -0.015608  0.026152  3.833763  0.017
C  C70  1  0.01758754  0.83337065  0.15456245  1  0.346479  0.034267  0.054643  -0.015531  0.026144  3.833633  0.017
C  C71  1  0.48239210  0.84545911  0.16662801  1  0.346336  0.034267  0.054515  -0.015834  0.026144  3.833917  0.017
C  C72  1  0.01103440  0.07531319  0.88132669  1  0.034898  0.014831  -0.077127  -0.155468  0.012141  3.971557  0.006
C  C73  1  0.48899197  0.11868238  0.92468617  1  0.034476  0.014836  -0.077186  -0.155377  0.012146  3.971574  0.006
C  C74  1  0.98899575  0.92469411  0.11869465  1  0.034705  0.014821  -0.077176  -0.155347  0.012133  3.971594  0.006
C  C75  1  0.51100834  0.88132504  0.07531515  1  0.035154  0.014834  -0.077167  -0.15526  0.012145  3.971635  0.006
C  C76  1  0.98253499  0.04649382  0.97902547  1  -0.000577  0.061469  -0.001756  0.069616  0.048116  4.006837  0.035
C  C77  1  0.51748696  0.02098570  0.95351528  1  0.04315  0.060917  -0.001866  0.069411  0.048147  4.006996  0.035
C  C78  1  0.01750184  0.95352249  0.02100812  1  0.042016  0.060888  -0.001919  0.069204  0.048128  4.007156  0.035
C  C79  1  0.48250245  0.97901921  0.04648349  1  -0.001386  0.061496  -0.001948  0.069375  0.048141  4.00691  0.035
C  C80  1  0.91887741  0.11439503  0.03423247  1  -0.014583  0.015991  -0.081225  -0.155704  0.012828  3.994952  0.007
C  C81  1  0.58113493  0.96576969  0.88560397  1  -0.01414  0.016001  -0.081155  -0.155623  0.012834  3.995023  0.007
C  C82  1  0.08114278  0.88560976  0.96578740  1  -0.012994  0.015997  -0.081347  -0.15579  0.012833  3.995202  0.007
C  C83  1  0.41885314  0.03423432  0.11439348  1  -0.014314  0.01601  -0.081186  -0.155667  0.012841  3.995089  0.007
C  C84  1  0.88973856  0.20403814  0.99570095  1  0.381235  0.034781  0.0453  -0.040455  0.027024  3.886961  0.018
C  C85  1  0.61026533  0.00428289  0.79595885  1  0.381157  0.034791  0.04508  -0.040823  0.027028  3.887596  0.018
C  C86  1  0.11026721  0.79596670  0.00430863  1  0.380106  0.034777  0.04539  -0.040288  0.027013  3.887148  0.018
C  C87  1  0.38973247  0.99572097  0.20403955  1  0.381406  0.034779  0.045067  -0.040804  0.027024  3.887544  0.018
N  N88  1  0.92308808  0.23028225  0.90356931  1  -0.67087  0.052379  -0.113041  0.322203  0.039435  3.882345  0.044
N  N89  1  0.57692735  0.09642387  0.76970701  1  -0.67105  0.052412  -0.112893  0.32213  0.039463  3.882049  0.044
N  N90  1  0.07691819  0.76971279  0.09643868  1  -0.670483  0.052383  -0.112962  0.322127  0.039438  3.882581  0.044
N  N91  1  0.42306170  0.90358012  0.23028989  1  -0.670945  0.052407  -0.112747  0.322317  0.039459  3.882202  0.044
O  O92  1  0.33177692  0.93149167  0.55627718  1  -1.188486  0.06798  -0.309534  -0.561959  0.047864  2.30467  0.033
O  O93  1  0.16823382  0.44372983  0.06850642  1  -1.188058  0.067961  -0.309641  -0.562159  0.047853  2.304436  0.033
O  O94  1  0.66822624  0.06850232  0.44372010  1  -1.188309  0.067969  -0.309538  -0.561993  0.047857  2.304753  0.033
O  O95  1  0.83176130  0.55626324  0.93148291  1  -1.187869  0.067936  -0.309671  -0.562094  0.047836  2.304636  0.033
O  O96  1  0.15958388  0.79900376  0.38876545  1  -1.17966  0.057851  -0.325232  -0.599373  0.040332  2.328114  0.022
O  O97  1  0.34042418  0.61124504  0.20099279  1  -1.179517  0.057811  -0.32526  -0.599436  0.040302  2.328001  0.022
O  O98  1  0.84041331  0.20098596  0.61123514  1  -1.180021  0.057866  -0.325264  -0.599453  0.040334  2.327869  0.022
O  O99  1  0.65956828  0.38875070  0.79899468  1  -1.17981  0.057828  -0.325166  -0.599371  0.040301  2.327873  0.022
O  O100  1  0.88491343  0.45965019  0.70355866  1  -1.189644  0.069568  -0.301358  -0.553079  0.051258  2.381331  0.037
O  O101  1  0.61509376  0.29641084  0.54032886  1  -1.189472  0.06961  -0.301269  -0.553073  0.051295  2.381668  0.037
O  O102  1  0.11508865  0.54034552  0.29643540  1  -1.189676  0.069571  -0.301356  -0.55314  0.051263  2.381255  0.037
O  O103  1  0.38491244  0.70358296  0.45966274  1  -1.189598  0.069591  -0.301359  -0.553052  0.051282  2.381573  0.037
O  O104  1  0.07867491  0.55738115  0.86975539  1  -1.191637  0.062477  -0.307358  -0.567161  0.045298  2.290547  0.032
O  O105  1  0.42132852  0.13024170  0.44261490  1  -1.191884  0.062491  -0.307382  -0.567125  0.045306  2.290772  0.032
O  O106  1  0.92132867  0.44261819  0.13024375  1  -1.1917  0.062467  -0.307414  -0.567189  0.045292  2.290581  0.032
O  O107  1  0.57866924  0.86975930  0.55737410  1  -1.191885  0.062481  -0.307436  -0.567247  0.045303  2.290742  0.032
O  O108  1  0.89797147  0.32065901  0.87099787  1  -0.692992  0.068234  -0.205064  -0.490531  0.052719  2.26501  0.014
O  O109  1  0.60204310  0.12898650  0.67932470  1  -0.693489  0.068261  -0.205083  -0.490367  0.052732  2.265076  0.014
O  O110  1  0.10201577  0.67933269  0.12900366  1  -0.693083  0.068247  -0.205074  -0.490454  0.052704  2.265461  0.014
O  O111  1  0.39794562  0.87101653  0.32066871  1  -0.693559  0.068289  -0.20514  -0.49052  0.052734  2.265236  0.014
