# generated using pymatgen
data_ZnH13C20N2O5
_symmetry_space_group_name_H-M   'P 1'
_cell_length_a   12.26195171
_cell_length_b   15.59997615
_cell_length_c   26.52889037
_cell_angle_alpha   90.00026101
_cell_angle_beta   90.00022283
_cell_angle_gamma   96.61129684
_symmetry_Int_Tables_number   1
_chemical_formula_structural   ZnH13C20N2O5
_chemical_formula_sum   'Zn8 H104 C160 N16 O40'
_cell_volume   5040.86368831
_cell_formula_units_Z   8
loop_
 _symmetry_equiv_pos_site_id
 _symmetry_equiv_pos_as_xyz
  1  'x, y, z'
loop_
 _atom_site_type_symbol
 _atom_site_label
 _atom_site_symmetry_multiplicity
 _atom_site_fract_x
 _atom_site_fract_y
 _atom_site_fract_z
 _atom_site_occupancy
 _atom_site_pbe_bader_charge
 _atom_site_pbe_bader_spin_density
 _atom_site_pbe_cm5_charge
 _atom_site_pbe_ddec_charge
 _atom_site_pbe_ddec_spin_density
 _atom_site_pbe_ddec_sum_bond_order
 _atom_site_pbe_magmom
Zn  Zn0  1  0.77526872  0.77936703  0.75740093  1  1.3028  0  0.693698  0.860371  0  2.333754  0
Zn  Zn1  1  0.61815011  0.59054481  0.73694208  1  1.27967  0  0.685946  0.82594  0  2.392266  0
Zn  Zn2  1  0.22473409  0.72063126  0.25740357  1  1.302759  0  0.693741  0.860395  0  2.333705  0
Zn  Zn3  1  0.38185362  0.90945523  0.23694400  1  1.279578  0  0.685951  0.826017  0  2.392332  0
Zn  Zn4  1  0.22473014  0.22063323  0.24259828  1  1.302837  0  0.693687  0.860345  0  2.333803  0
Zn  Zn5  1  0.38184987  0.40945738  0.26305901  1  1.279694  0  0.685976  0.826009  0  2.392307  0
Zn  Zn6  1  0.77526731  0.27936963  0.74259979  1  1.302817  0  0.693712  0.860384  0  2.333801  0
Zn  Zn7  1  0.61814962  0.09054178  0.76305709  1  1.27966  0  0.685984  0.826069  0  2.392142  0
H  H8  1  0.42068859  0.67231765  0.63055724  1  0.069253  0  0.109287  0.117541  0  0.987892  0
H  H9  1  0.31194752  0.73584510  0.56264485  1  0.082003  0  0.105353  0.116745  0  1.034171  0
H  H10  1  0.45954791  0.98995426  0.60276046  1  0.079935  0  0.105321  0.123368  0  1.033698  0
H  H11  1  0.57540779  0.92585850  0.66736288  1  0.071566  0  0.103047  0.104761  0  1.022472  0
H  H12  1  0.18620179  0.94245932  0.47528592  1  0.086163  0  0.109279  0.124135  0  0.982359  0
H  H13  1  0.22095317  0.93507538  0.38247391  1  0.080015  0  0.104264  0.105968  0  1.015998  0
H  H14  1  0.52618481  0.83442981  0.41124344  1  0.096794  0  0.104743  0.105455  0  0.99336  0
H  H15  1  0.49231516  0.84061760  0.50385830  1  0.089705  0  0.10507  0.121439  0  1.007059  0
H  H16  1  0.84099531  0.49823666  0.62407954  1  0.110404  0  0.102624  0.106133  0  1.023455  0
H  H17  1  0.99304222  0.48019708  0.56342842  1  0.113262  0  0.103637  0.119985  0  1.023634  0
H  H18  1  0.17276732  0.71444838  0.61960750  1  0.096276  0  0.105672  0.121436  0  1.020793  0
H  H19  1  0.02003162  0.73187099  0.67987414  1  0.099506  0  0.105556  0.109208  0  1.005249  0
H  H20  1  0.33162558  0.57773736  0.49196662  1  0.074995  0  0.109429  0.12541  0  0.981388  0
H  H21  1  0.33957421  0.63630426  0.40399054  1  0.085522  0  0.105318  0.10676  0  1.003998  0
H  H22  1  0.02984871  0.73346627  0.42611797  1  0.09855  0  0.106007  0.109024  0  0.992326  0
H  H23  1  0.02201422  0.67742300  0.51448230  1  0.086061  0  0.104507  0.120778  0  1.010555  0
H  H24  1  0.39092898  0.52788912  0.76742781  1  0.143465  0  0.121278  0.100464  0  1.000988  0
H  H25  1  0.26582850  0.38846160  0.76370251  1  0.097514  0  0.110908  0.116291  0  1.011945  0
H  H26  1  0.51780665  0.28125178  0.67821466  1  0.156928  0  0.113044  0.134009  0  1.021657  0
H  H27  1  0.63153625  0.42383546  0.68495741  1  0.116198  0  0.120338  0.097402  0  1.013355  0
H  H28  1  0.35248208  0.18803858  0.69746472  1  0.156963  0  0.121878  0.112495  0  1.007781  0
H  H29  1  0.04033057  0.17901992  0.69961944  1  0.114198  0  0.1225  0.111801  0  0.995459  0
H  H30  1  0.87164007  0.08593603  0.68917107  1  0.156253  0  0.113426  0.134829  0  1.023593  0
H  H31  1  0.75955436  0.94357749  0.70167434  1  0.117801  0  0.117473  0.092113  0  1.020461  0
H  H32  1  0.01009512  0.84580654  0.78005073  1  0.152363  0  0.118988  0.09633  0  1.006828  0
H  H33  1  0.13494983  0.98455088  0.76965105  1  0.10518  0  0.110708  0.116358  0  1.012839  0
H  H34  1  0.57930016  0.82768092  0.13055590  1  0.069237  0  0.109293  0.117515  0  0.987918  0
H  H35  1  0.68804515  0.76415092  0.06264543  1  0.082116  0  0.105343  0.116787  0  1.034174  0
H  H36  1  0.54044841  0.51004208  0.10276122  1  0.079854  0  0.105299  0.123315  0  1.033764  0
H  H37  1  0.42458763  0.57413905  0.16736284  1  0.071733  0  0.103023  0.104706  0  1.022448  0
H  H38  1  0.81379682  0.55753183  0.97528615  1  0.086057  0  0.109298  0.124181  0  0.982334  0
H  H39  1  0.77904393  0.56491627  0.88247486  1  0.079982  0  0.104273  0.105995  0  1.016001  0
H  H40  1  0.47381715  0.66557046  0.91124637  1  0.096881  0  0.104793  0.105478  0  0.993302  0
H  H41  1  0.50768774  0.65937913  0.00385865  1  0.089757  0  0.105074  0.121448  0  1.007007  0
H  H42  1  0.15900650  0.00176386  0.12408336  1  0.110361  0  0.102609  0.106079  0  1.023546  0
H  H43  1  0.00696297  0.01980742  0.06343013  1  0.11333  0  0.103635  0.119947  0  1.023631  0
H  H44  1  0.82723731  0.78555321  0.11960650  1  0.09633  0  0.105677  0.12145  0  1.020664  0
H  H45  1  0.97997064  0.76812792  0.17987374  1  0.099474  0  0.105581  0.109248  0  1.005223  0
H  H46  1  0.66837369  0.92226750  0.99196606  1  0.074978  0  0.10942  0.125378  0  0.98146  0
H  H47  1  0.66042492  0.86369919  0.90399094  1  0.085565  0  0.105318  0.106709  0  1.004027  0
H  H48  1  0.97014921  0.76653868  0.92611791  1  0.09862  0  0.106022  0.109057  0  0.992348  0
H  H49  1  0.97798277  0.82257709  0.01448242  1  0.085723  0  0.104521  0.120791  0  1.010543  0
H  H50  1  0.60906770  0.97211639  0.26742992  1  0.143498  0  0.121235  0.100434  0  1.001052  0
H  H51  1  0.73416794  0.11154404  0.26370502  1  0.097374  0  0.110866  0.116255  0  1.011967  0
H  H52  1  0.48218896  0.21874796  0.17821474  1  0.156858  0  0.113023  0.133952  0  1.021686  0
H  H53  1  0.36845698  0.07616436  0.18495841  1  0.116139  0  0.120306  0.097288  0  1.013326  0
H  H54  1  0.64751300  0.31196198  0.19746648  1  0.157039  0  0.12187  0.11246  0  1.007863  0
H  H55  1  0.95966963  0.32097674  0.19962027  1  0.114184  0  0.122485  0.111763  0  0.995498  0
H  H56  1  0.12835983  0.41405925  0.18917142  1  0.156182  0  0.113477  0.134933  0  1.023618  0
H  H57  1  0.24044374  0.55641969  0.20167355  1  0.117757  0  0.117455  0.09212  0  1.020505  0
H  H58  1  0.98990638  0.65419259  0.28004854  1  0.152449  0  0.11902  0.096381  0  1.006799  0
H  H59  1  0.86504932  0.51544947  0.26964901  1  0.105091  0  0.110689  0.116314  0  1.012895  0
H  H60  1  0.57930854  0.32768198  0.36944235  1  0.069224  0  0.109318  0.117585  0  0.987821  0
H  H61  1  0.68804807  0.26415519  0.43735549  1  0.082039  0  0.105343  0.116759  0  1.034216  0
H  H62  1  0.54044749  0.01004473  0.39723875  1  0.079911  0  0.105325  0.123332  0  1.033777  0
H  H63  1  0.42459168  0.07414047  0.33263558  1  0.07153  0  0.10305  0.104735  0  1.02243  0
H  H64  1  0.81380084  0.05753381  0.52471405  1  0.086048  0  0.109307  0.124194  0  0.982313  0
H  H65  1  0.77904469  0.06491326  0.61752605  1  0.079969  0  0.104266  0.105972  0  1.015937  0
H  H66  1  0.47381690  0.16556785  0.58875652  1  0.096847  0  0.104784  0.105473  0  0.993324  0
H  H67  1  0.50769225  0.15938002  0.49614430  1  0.089822  0  0.105073  0.12138  0  1.007009  0
H  H68  1  0.15900416  0.50176230  0.37591929  1  0.110401  0  0.102645  0.106126  0  1.023497  0
H  H69  1  0.00696051  0.51980704  0.43657079  1  0.113301  0  0.103636  0.119927  0  1.02367  0
H  H70  1  0.82723235  0.28555187  0.38039359  1  0.096281  0  0.105639  0.121401  0  1.020771  0
H  H71  1  0.97996917  0.26812603  0.32012583  1  0.099455  0  0.10558  0.109244  0  1.005165  0
H  H72  1  0.66837286  0.42227065  0.50803410  1  0.07499  0  0.109412  0.125379  0  0.981405  0
H  H73  1  0.66042607  0.36369987  0.59600867  1  0.085552  0  0.105324  0.106716  0  1.003982  0
H  H74  1  0.97015188  0.26653980  0.57388200  1  0.098621  0  0.105997  0.109038  0  0.992268  0
H  H75  1  0.97798229  0.32257793  0.48551691  1  0.086107  0  0.10451  0.120766  0  1.01057  0
H  H76  1  0.60906885  0.47211502  0.23257141  1  0.143562  0  0.121223  0.100385  0  1.001144  0
H  H77  1  0.73416781  0.61154320  0.23629595  1  0.097368  0  0.110866  0.11623  0  1.012008  0
H  H78  1  0.48218935  0.71875109  0.32178417  1  0.156834  0  0.112994  0.133937  0  1.02174  0
H  H79  1  0.36845782  0.57616548  0.31504180  1  0.116164  0  0.120321  0.09731  0  1.013328  0
H  H80  1  0.64751271  0.81196171  0.30253411  1  0.157051  0  0.121856  0.112458  0  1.007887  0
H  H81  1  0.95966707  0.82097776  0.30038317  1  0.114199  0  0.122501  0.111753  0  0.995434  0
H  H82  1  0.12836093  0.91406228  0.31083078  1  0.1558  0  0.113433  0.134842  0  1.02364  0
H  H83  1  0.24044664  0.05642082  0.29832675  1  0.117776  0  0.117431  0.092108  0  1.020444  0
H  H84  1  0.98991097  0.15419302  0.21995187  1  0.152544  0  0.118994  0.096367  0  1.00676  0
H  H85  1  0.86504780  0.01545197  0.23035231  1  0.105089  0  0.110683  0.116322  0  1.012918  0
H  H86  1  0.42069432  0.17231743  0.86944406  1  0.069215  0  0.109278  0.117513  0  0.987812  0
H  H87  1  0.31195065  0.23584549  0.93735567  1  0.082014  0  0.105354  0.116791  0  1.034173  0
H  H88  1  0.45954597  0.48995563  0.89723913  1  0.079882  0  0.105307  0.12335  0  1.033722  0
H  H89  1  0.57540451  0.42585996  0.83263825  1  0.07156  0  0.103071  0.104792  0  1.022403  0
H  H90  1  0.18620245  0.44246584  0.02471457  1  0.086169  0  0.109314  0.124199  0  0.982296  0
H  H91  1  0.22095778  0.43508139  0.11752662  1  0.08002  0  0.104283  0.105991  0  1.015933  0
H  H92  1  0.52618538  0.33443236  0.08875661  1  0.096789  0  0.104779  0.105496  0  0.993413  0
H  H93  1  0.49231580  0.34061981  0.99614320  1  0.089661  0  0.105086  0.121397  0  1.007064  0
H  H94  1  0.84099796  0.99823572  0.87591924  1  0.110395  0  0.102627  0.106139  0  1.023458  0
H  H95  1  0.99304362  0.98019538  0.93657059  1  0.113335  0  0.103667  0.120019  0  1.023681  0
H  H96  1  0.17276521  0.21444961  0.88039120  1  0.096174  0  0.105657  0.121458  0  1.020732  0
H  H97  1  0.02002476  0.23187108  0.82012585  1  0.099616  0  0.105596  0.109276  0  1.005195  0
H  H98  1  0.33162914  0.07773726  0.00803353  1  0.074957  0  0.109419  0.12538  0  0.981455  0
H  H99  1  0.33957435  0.13630365  0.09600903  1  0.085524  0  0.105308  0.106717  0  1.003999  0
H  H100  1  0.02984812  0.23346224  0.07388168  1  0.098567  0  0.106005  0.109057  0  0.992391  0
H  H101  1  0.02201629  0.17742446  0.98551566  1  0.086029  0  0.104501  0.120755  0  1.010541  0
H  H102  1  0.39092963  0.02788452  0.73257117  1  0.143531  0  0.121228  0.100381  0  1.00123  0
H  H103  1  0.26582929  0.88845623  0.73629683  1  0.097405  0  0.110893  0.116313  0  1.011945  0
H  H104  1  0.51781081  0.78125294  0.82178636  1  0.156917  0  0.113025  0.134016  0  1.021704  0
H  H105  1  0.63153963  0.92383721  0.81504193  1  0.116184  0  0.120342  0.097345  0  1.013348  0
H  H106  1  0.35248575  0.68803764  0.80253613  1  0.157108  0  0.121813  0.112422  0  1.007854  0
H  H107  1  0.04033727  0.67902282  0.80037819  1  0.11429  0  0.122533  0.111836  0  0.995459  0
H  H108  1  0.87164402  0.58594163  0.81082893  1  0.156194  0  0.113442  0.134902  0  1.02355  0
H  H109  1  0.75955675  0.44358056  0.79832717  1  0.117832  0  0.117421  0.092065  0  1.02048  0
H  H110  1  0.01009045  0.34580510  0.71994954  1  0.152463  0  0.119004  0.096349  0  1.006813  0
H  H111  1  0.13495066  0.48454756  0.73034832  1  0.105159  0  0.110686  0.116335  0  1.012857  0
C  C112  1  0.57248407  0.75609556  0.69138137  1  1.564121  0  0.222784  0.603934  0  4.172656  0
C  C113  1  0.50478541  0.79534322  0.65291877  1  -0.05352  0  -0.026656  -0.063586  0  3.994411  0
C  C114  1  0.42937393  0.74165585  0.62387444  1  -0.057364  0  -0.079014  -0.065212  0  3.9687  0
C  C115  1  0.36781878  0.77670868  0.58677601  1  0.035368  0  -0.099927  -0.205235  0  4.008241  0
C  C116  1  0.37937353  0.86607797  0.58004763  1  0.374544  0  0.086419  0.263358  0  4.048196  0
C  C117  1  0.45229457  0.92061009  0.60903842  1  0.045635  0  -0.096289  -0.191053  0  3.967302  0
C  C118  1  0.51615709  0.88466847  0.64499923  1  0.031576  0  -0.080652  -0.063969  0  3.972099  0
C  C119  1  0.33717037  0.89258509  0.49456836  1  0.428359  0  0.09177  0.27886  0  4.040646  0
C  C120  1  0.26017566  0.91881077  0.46061666  1  0.038691  0  -0.102101  -0.204735  0  3.999397  0
C  C121  1  0.28001757  0.91465563  0.40922892  1  -0.032923  0  -0.080677  -0.06029  0  3.982341  0
C  C122  1  0.37613908  0.88461915  0.39102090  1  -0.064458  0  -0.031958  -0.070201  0  4.009923  0
C  C123  1  0.45137725  0.85734345  0.42558174  1  -0.044891  0  -0.081244  -0.063524  0  4.001656  0
C  C124  1  0.43278531  0.86087757  0.47721675  1  -0.044877  0  -0.107733  -0.221739  0  4.006857  0
C  C125  1  0.40212118  0.88567738  0.33630171  1  1.54177  0  0.196414  0.5629  0  4.231682  0
C  C126  1  0.83105465  0.62937623  0.69139840  1  1.553276  0  0.222231  0.601217  0  4.166558  0
C  C127  1  0.92104071  0.61662714  0.65530121  1  -0.033171  0  -0.02674  -0.065253  0  3.992092  0
C  C128  1  0.91359172  0.54544764  0.62273359  1  -0.053671  0  -0.079282  -0.062107  0  3.9627  0
C  C129  1  0.99806718  0.53536877  0.58884079  1  -0.025032  0  -0.097122  -0.19324  0  3.972614  0
C  C130  1  0.08992002  0.59720501  0.58788601  1  0.39356  0  0.084685  0.258656  0  4.039969  0
C  C131  1  0.09947157  0.66788009  0.62047662  1  -0.043295  0  -0.097531  -0.193603  0  3.982604  0
C  C132  1  0.01468516  0.67733826  0.65405014  1  0.026701  0  -0.07966  -0.06071  0  3.976238  0
C  C133  1  0.17570948  0.62271690  0.50779117  1  0.365232  0  0.086925  0.265029  0  4.061778  0
C  C134  1  0.26611682  0.61207285  0.47703684  1  0.024169  0  -0.104785  -0.210719  0  4.003068  0
C  C135  1  0.26991212  0.64465821  0.42823349  1  -0.052036  0  -0.080458  -0.064215  0  3.992691  0
C  C136  1  0.18406139  0.68747384  0.40911017  1  -0.062319  0  -0.028541  -0.063817  0  3.993294  0
C  C137  1  0.09584590  0.69950488  0.44090563  1  0.035012  0  -0.079246  -0.058541  0  3.988043  0
C  C138  1  0.09109619  0.66799016  0.49011797  1  -0.054319  0  -0.110942  -0.230202  0  4.016083  0
C  C139  1  0.18201707  0.71579082  0.35538689  1  1.546501  0  0.19679  0.563197  0  4.22402  0
C  C140  1  0.41380104  0.47172888  0.74729875  1  0.428119  0  0.048081  0.093446  0  3.937084  0
C  C141  1  0.34563297  0.39471519  0.74523178  1  -0.000429  0  -0.076756  -0.164875  0  3.939253  0
C  C142  1  0.38177826  0.32364650  0.72026196  1  0.028958  0  0.014031  0.122053  0  4.012744  0
C  C143  1  0.48536246  0.33485741  0.69715217  1  0.02048  0  -0.075819  -0.158778  0  3.893137  0
C  C144  1  0.54924290  0.41400831  0.70104658  1  0.434231  0  0.050762  0.102443  0  3.921188  0
C  C145  1  0.31772836  0.23902230  0.71849202  1  0.557906  0  0.069729  0.009851  0  3.904471  0
C  C146  1  0.07716147  0.13034005  0.72185252  1  0.615196  0  0.071657  0.010113  0  3.90861  0
C  C147  1  0.01364747  0.04601797  0.72768675  1  -0.031274  0  0.012871  0.118744  0  4.018446  0
C  C148  1  0.90695904  0.03351550  0.70800937  1  0.035093  0  -0.076783  -0.161884  0  3.899707  0
C  C149  1  0.84358808  0.95491802  0.71554422  1  0.45825  0  0.048908  0.103255  0  3.919013  0
C  C150  1  0.98447017  0.90042945  0.75933955  1  0.442727  0  0.047097  0.093631  0  3.934503  0
C  C151  1  0.05267203  0.97703018  0.75357641  1  -0.025658  0  -0.077316  -0.164002  0  3.931234  0
C  C152  1  0.42751820  0.74389763  0.19138481  1  1.564096  0  0.222837  0.604123  0  4.172733  0
C  C153  1  0.49520793  0.70465228  0.15291845  1  -0.053125  0  -0.02667  -0.063758  0  3.994664  0
C  C154  1  0.57061323  0.75834332  0.12387365  1  -0.057237  0  -0.078971  -0.065072  0  3.968652  0
C  C155  1  0.63217189  0.72328885  0.08677524  1  0.034918  0  -0.099903  -0.205288  0  4.008259  0
C  C156  1  0.62062268  0.63391882  0.08004810  1  0.374652  0  0.086323  0.263233  0  4.048262  0
C  C157  1  0.54770182  0.57938630  0.10903938  1  0.045862  0  -0.096266  -0.190987  0  3.967258  0
C  C158  1  0.48383557  0.61532826  0.14499828  1  0.031001  0  -0.080665  -0.063883  0  3.972134  0
C  C159  1  0.66283169  0.60740621  0.99456958  1  0.429686  0  0.091851  0.278982  0  4.0405  0
C  C160  1  0.73982423  0.58117895  0.96061795  1  0.037964  0  -0.102121  -0.204817  0  3.999501  0
C  C161  1  0.71997755  0.58533240  0.90923094  1  -0.032506  0  -0.08071  -0.060361  0  3.982647  0
C  C162  1  0.62385984  0.61537322  0.89102132  1  -0.064872  0  -0.032034  -0.070261  0  4.009856  0
C  C163  1  0.54862485  0.64265177  0.92558210  1  -0.045028  0  -0.08125  -0.063477  0  4.001541  0
C  C164  1  0.56722044  0.63911743  0.97721789  1  -0.04532  0  -0.107779  -0.22183  0  4.006919  0
C  C165  1  0.59788097  0.61431772  0.83630057  1  1.542195  0  0.196513  0.562992  0  4.231541  0
C  C166  1  0.16895078  0.87062663  0.19139983  1  1.553049  0  0.222299  0.601339  0  4.166645  0
C  C167  1  0.07896640  0.88337798  0.15530251  1  -0.032663  0  -0.026813  -0.065416  0  3.992244  0
C  C168  1  0.08641182  0.95455205  0.12273397  1  -0.054276  0  -0.079222  -0.061967  0  3.962991  0
C  C169  1  0.00194133  0.96463318  0.08884180  1  -0.024444  0  -0.097232  -0.193286  0  3.972649  0
C  C170  1  0.91008349  0.90279632  0.08788546  1  0.393599  0  0.084755  0.258696  0  4.039823  0
C  C171  1  0.90053327  0.83212281  0.12047700  1  -0.043021  0  -0.09757  -0.193643  0  3.982461  0
C  C172  1  0.98532052  0.82266299  0.15405178  1  0.026259  0  -0.07967  -0.060733  0  3.976069  0
C  C173  1  0.82429243  0.87728892  0.00779116  1  0.365499  0  0.087022  0.265198  0  4.061615  0
C  C174  1  0.73388139  0.88793125  0.97703744  1  0.024111  0  -0.104812  -0.210753  0  4.002977  0
C  C175  1  0.73008806  0.85534545  0.92823324  1  -0.052091  0  -0.080465  -0.064169  0  3.992688  0
C  C176  1  0.81593545  0.81253031  0.90910920  1  -0.059704  0  -0.028421  -0.06361  0  3.993187  0
C  C177  1  0.90415257  0.80049761  0.94090366  1  0.032484  0  -0.079296  -0.05868  0  3.988148  0
C  C178  1  0.90890235  0.83201533  0.99011722  1  -0.054259  0  -0.111037  -0.230299  0  4.01619  0
C  C179  1  0.81798281  0.78421479  0.85538547  1  1.5467  0  0.19683  0.563236  0  4.223848  0
C  C180  1  0.58619055  0.02827794  0.24730416  1  0.428387  0  0.048188  0.093523  0  3.937049  0
C  C181  1  0.65436236  0.10528965  0.24523451  1  -0.000427  0  -0.076714  -0.164862  0  3.939007  0
C  C182  1  0.61821256  0.17635686  0.22026443  1  0.028575  0  0.014069  0.122055  0  4.012523  0
C  C183  1  0.51462875  0.16514446  0.19715480  1  0.021242  0  -0.075892  -0.158798  0  3.893167  0
C  C184  1  0.45074997  0.08599358  0.20104926  1  0.433637  0  0.050933  0.102775  0  3.921121  0
C  C185  1  0.68226539  0.26097909  0.21849295  1  0.557882  0  0.069657  0.009786  0  3.904443  0
C  C186  1  0.92283742  0.36965746  0.22185380  1  0.61528  0  0.071682  0.010169  0  3.908722  0
C  C187  1  0.98635219  0.45397894  0.22768610  1  -0.031287  0  0.012929  0.118717  0  4.018347  0
C  C188  1  0.09303981  0.46648254  0.20800752  1  0.035045  0  -0.07689  -0.162084  0  3.899999  0
C  C189  1  0.15640953  0.54508058  0.21554211  1  0.458462  0  0.048927  0.10327  0  3.919229  0
C  C190  1  0.01552991  0.59956693  0.25933771  1  0.442786  0  0.04697  0.093472  0  3.934656  0
C  C191  1  0.94732809  0.52296680  0.25357643  1  -0.025572  0  -0.077281  -0.163858  0  3.931105  0
C  C192  1  0.42752100  0.24390272  0.30861596  1  1.564127  0  0.222904  0.604106  0  4.17231  0
C  C193  1  0.49521324  0.20465575  0.34708045  1  -0.052958  0  -0.026671  -0.063731  0  3.994548  0
C  C194  1  0.57062238  0.25834379  0.37612552  1  -0.057415  0  -0.078983  -0.065121  0  3.968731  0
C  C195  1  0.63217580  0.22329032  0.41322433  1  0.035066  0  -0.099909  -0.205313  0  4.008435  0
C  C196  1  0.62062167  0.13391973  0.41995234  1  0.374613  0  0.086349  0.263323  0  4.048073  0
C  C197  1  0.54770154  0.07938825  0.39096003  1  0.045611  0  -0.096301  -0.19105  0  3.967142  0
C  C198  1  0.48383932  0.11533181  0.35499961  1  0.03133  0  -0.080671  -0.063871  0  3.972025  0
C  C199  1  0.66283044  0.10740676  0.50543236  1  0.429254  0  0.091719  0.278806  0  4.040659  0
C  C200  1  0.73982412  0.08117979  0.53938293  1  0.037898  0  -0.102081  -0.204832  0  3.999645  0
C  C201  1  0.71997865  0.08533303  0.59077029  1  -0.032688  0  -0.080701  -0.060265  0  3.982482  0
C  C202  1  0.62385735  0.11537080  0.60897945  1  -0.064293  0  -0.03206  -0.070341  0  4.009857  0
C  C203  1  0.54862436  0.14265356  0.57441936  1  -0.045108  0  -0.081213  -0.06346  0  4.001492  0
C  C204  1  0.56721854  0.13911814  0.52278472  1  -0.044894  0  -0.107767  -0.221668  0  4.006683  0
C  C205  1  0.59787404  0.11430482  0.66369864  1  1.541797  0  0.196525  0.562862  0  4.231557  0
C  C206  1  0.16894686  0.37062530  0.30860119  1  1.55321  0  0.222308  0.601367  0  4.166584  0
C  C207  1  0.07896579  0.38337500  0.34469951  1  -0.032691  0  -0.026835  -0.065381  0  3.992367  0
C  C208  1  0.08641101  0.45455130  0.37726750  1  -0.053787  0  -0.079184  -0.061977  0  3.963094  0
C  C209  1  0.00193840  0.46463274  0.41115917  1  -0.024651  0  -0.097205  -0.193197  0  3.97274  0
C  C210  1  0.91008097  0.40279847  0.41211584  1  0.393519  0  0.084719  0.258686  0  4.039938  0
C  C211  1  0.90052902  0.33212081  0.37952373  1  -0.042812  0  -0.097484  -0.193557  0  3.982406  0
C  C212  1  0.98531951  0.32266261  0.34594945  1  0.02584  0  -0.079677  -0.060778  0  3.976115  0
C  C213  1  0.82428998  0.37728724  0.49220917  1  0.365504  0  0.086962  0.265144  0  4.061647  0
C  C214  1  0.73388203  0.38793258  0.52296237  1  0.024071  0  -0.104772  -0.210722  0  4.002985  0
C  C215  1  0.73009111  0.35534913  0.57176723  1  -0.052058  0  -0.080569  -0.064298  0  3.992738  0
C  C216  1  0.81593655  0.31253094  0.59089017  1  -0.05971  0  -0.028408  -0.063572  0  3.993111  0
C  C217  1  0.90415174  0.30049798  0.55909509  1  0.032506  0  -0.079244  -0.058663  0  3.987953  0
C  C218  1  0.90890348  0.33201526  0.50988199  1  -0.054703  0  -0.110983  -0.230188  0  4.015976  0
C  C219  1  0.81798799  0.28421780  0.64461345  1  1.54647  0  0.196898  0.563272  0  4.223714  0
C  C220  1  0.58619293  0.52827658  0.25269744  1  0.428112  0  0.048193  0.093585  0  3.936979  0
C  C221  1  0.65436232  0.60528832  0.25476479  1  -0.000232  0  -0.076724  -0.164866  0  3.939151  0
C  C222  1  0.61821458  0.67635703  0.27973386  1  0.028451  0  0.014011  0.12199  0  4.012499  0
C  C223  1  0.51463039  0.66514612  0.30284516  1  0.020762  0  -0.075812  -0.158653  0  3.892977  0
C  C224  1  0.45075300  0.58599391  0.29895263  1  0.434191  0  0.050867  0.102669  0  3.921104  0
C  C225  1  0.68226601  0.76098057  0.28150568  1  0.558087  0  0.069646  0.009718  0  3.904488  0
C  C226  1  0.92283505  0.86966087  0.27814933  1  0.615164  0  0.071661  0.01015  0  3.908802  0
C  C227  1  0.98635516  0.95398032  0.27231510  1  -0.031285  0  0.012955  0.118836  0  4.018278  0
C  C228  1  0.09304226  0.96648475  0.29199211  1  0.035465  0  -0.076771  -0.161864  0  3.899942  0
C  C229  1  0.15641291  0.04508029  0.28445801  1  0.458319  0  0.048924  0.10317  0  3.919168  0
C  C230  1  0.01553216  0.09956692  0.24066155  1  0.442707  0  0.046986  0.093515  0  3.934616  0
C  C231  1  0.94732886  0.02296749  0.24642393  1  -0.025557  0  -0.077288  -0.163948  0  3.931118  0
C  C232  1  0.57248188  0.25610004  0.80861666  1  1.563974  0  0.222891  0.604184  0  4.172481  0
C  C233  1  0.50478573  0.29534608  0.84708151  1  -0.052919  0  -0.026642  -0.06369  0  3.994398  0
C  C234  1  0.42937728  0.24165570  0.87612706  1  -0.057322  0  -0.078983  -0.065047  0  3.968486  0
C  C235  1  0.36782330  0.27670885  0.91322548  1  0.034944  0  -0.099879  -0.205378  0  4.008284  0
C  C236  1  0.37937750  0.36607950  0.91995299  1  0.374565  0  0.086361  0.263451  0  4.048109  0
C  C237  1  0.45229511  0.42061204  0.89096097  1  0.045888  0  -0.09632  -0.191126  0  3.967368  0
C  C238  1  0.51615718  0.38466946  0.85500131  1  0.031255  0  -0.080707  -0.063985  0  3.97212  0
C  C239  1  0.33717175  0.39259208  0.00543151  1  0.429191  0  0.091756  0.278907  0  4.040595  0
C  C240  1  0.26017911  0.41881869  0.03938277  1  0.037549  0  -0.102088  -0.204855  0  3.999491  0
C  C241  1  0.28002314  0.41466398  0.09077091  1  -0.032401  0  -0.080694  -0.060278  0  3.98249  0
C  C242  1  0.37614146  0.38462703  0.10897978  1  -0.064525  0  -0.032  -0.070246  0  4.009963  0
C  C243  1  0.45138043  0.35734780  0.07441975  1  -0.044916  0  -0.08125  -0.063613  0  4.001679  0
C  C244  1  0.43278840  0.36088406  0.02278471  1  -0.044912  0  -0.107808  -0.221653  0  4.006703  0
C  C245  1  0.40212307  0.38568961  0.16369789  1  1.542041  0  0.196548  0.562939  0  4.231607  0
C  C246  1  0.83105501  0.12937100  0.80859901  1  1.553489  0  0.222311  0.601277  0  4.16668  0
C  C247  1  0.92103897  0.11662224  0.84469670  1  -0.033403  0  -0.026758  -0.065377  0  3.992304  0
C  C248  1  0.91359101  0.04544754  0.87726562  1  -0.053672  0  -0.07927  -0.062037  0  3.962713  0
C  C249  1  0.99806506  0.03536833  0.91115967  1  -0.025054  0  -0.097205  -0.193357  0  3.972501  0
C  C250  1  0.08992311  0.09720647  0.91211412  1  0.39361  0  0.084722  0.258805  0  4.039715  0
C  C251  1  0.09947118  0.16788194  0.87952146  1  -0.043004  0  -0.097542  -0.1937  0  3.982486  0
C  C252  1  0.01468068  0.17733661  0.84594819  1  0.02649  0  -0.07972  -0.06078  0  3.976215  0
C  C253  1  0.17571232  0.12272293  0.99220805  1  0.36473  0  0.086912  0.265101  0  4.061655  0
C  C254  1  0.26612083  0.11207481  0.02296140  1  0.024049  0  -0.104716  -0.210661  0  4.003095  0
C  C255  1  0.26991080  0.14465481  0.07176635  1  -0.051938  0  -0.0805  -0.064231  0  3.992688  0
C  C256  1  0.18406188  0.18747060  0.09089001  1  -0.062353  0  -0.028468  -0.063624  0  3.993094  0
C  C257  1  0.09584577  0.19950459  0.05909630  1  0.035033  0  -0.079274  -0.058696  0  3.988112  0
C  C258  1  0.09109651  0.16799010  0.00988236  1  -0.053734  0  -0.110914  -0.230143  0  4.015914  0
C  C259  1  0.18201422  0.21578419  0.14461412  1  1.54652  0  0.196841  0.563193  0  4.223727  0
C  C260  1  0.41380240  0.97172624  0.75269920  1  0.428076  0  0.048112  0.09349  0  3.937176  0
C  C261  1  0.34563446  0.89471321  0.75476697  1  -0.000288  0  -0.076758  -0.164975  0  3.939185  0
C  C262  1  0.38178335  0.82364535  0.77973704  1  0.028688  0  0.014091  0.122135  0  4.012647  0
C  C263  1  0.48536522  0.83485584  0.80284780  1  0.020655  0  -0.075798  -0.158769  0  3.893116  0
C  C264  1  0.54924420  0.91400800  0.79895372  1  0.434225  0  0.050778  0.102527  0  3.921194  0
C  C265  1  0.31773408  0.73901988  0.78150701  1  0.55775  0  0.069687  0.009827  0  3.904364  0
C  C266  1  0.07716674  0.63034018  0.77814466  1  0.615194  0  0.071636  0.010089  0  3.908739  0
C  C267  1  0.01364657  0.54602068  0.77231085  1  -0.031258  0  0.01283  0.11872  0  4.018267  0
C  C268  1  0.90696230  0.53351770  0.79199093  1  0.035083  0  -0.076788  -0.162002  0  3.9  0
C  C269  1  0.84359106  0.45492032  0.78445823  1  0.458233  0  0.048906  0.103199  0  3.919273  0
C  C270  1  0.98446945  0.40043139  0.74066037  1  0.442661  0  0.047043  0.093601  0  3.934576  0
C  C271  1  0.05267118  0.47703087  0.74642128  1  -0.025678  0  -0.077254  -0.163971  0  3.931096  0
N  N272  1  0.51475219  0.48121460  0.72593498  1  -1.268272  0  -0.334226  -0.237664  0  3.565471  0
N  N273  1  0.22522917  0.22543287  0.74209939  1  -0.733697  0  -0.17424  -0.106588  0  3.448817  0
N  N274  1  0.17159570  0.14631500  0.74347849  1  -0.729187  0  -0.174107  -0.104031  0  3.460294  0
N  N275  1  0.88088732  0.88928552  0.74086938  1  -1.273405  0  -0.326953  -0.236864  0  3.534479  0
N  N276  1  0.48524143  0.01879073  0.22594018  1  -1.26814  0  -0.334354  -0.237856  0  3.565669  0
N  N277  1  0.77476798  0.27456806  0.24210015  1  -0.733643  0  -0.174238  -0.106552  0  3.448658  0
N  N278  1  0.82840360  0.35368399  0.24347880  1  -0.729279  0  -0.174052  -0.103955  0  3.460353  0
N  N279  1  0.11911217  0.61071328  0.24086739  1  -1.273535  0  -0.326926  -0.236853  0  3.534555  0
N  N280  1  0.48524320  0.51878956  0.27406235  1  -1.268214  0  -0.334308  -0.237798  0  3.565468  0
N  N281  1  0.77476622  0.77457129  0.25789907  1  -0.733665  0  -0.174163  -0.106454  0  3.448726  0
N  N282  1  0.82840672  0.85368717  0.25652185  1  -0.729283  0  -0.174112  -0.104025  0  3.460483  0
N  N283  1  0.11911357  0.11071214  0.25913247  1  -1.273502  0  -0.326944  -0.236852  0  3.534473  0
N  N284  1  0.51475264  0.98121020  0.77406393  1  -1.26822  0  -0.334243  -0.237689  0  3.565524  0
N  N285  1  0.22523455  0.72542959  0.75789680  1  -0.733653  0  -0.174151  -0.106524  0  3.448708  0
N  N286  1  0.17159730  0.64631368  0.75651853  1  -0.729363  0  -0.174122  -0.104016  0  3.460516  0
N  N287  1  0.88088822  0.38928632  0.75913220  1  -1.273346  0  -0.326935  -0.236774  0  3.534438  0
O  O288  1  0.54249030  0.67734135  0.70216646  1  -1.180806  0  -0.316623  -0.543058  0  2.400287  0
O  O289  1  0.65414232  0.80332787  0.71035177  1  -1.188896  0  -0.31481  -0.556811  0  2.382837  0
O  O290  1  0.31435704  0.90257671  0.54489764  1  -1.108592  0  -0.158941  -0.225099  0  2.538211  0
O  O291  1  0.49498874  0.87106569  0.32081413  1  -1.194326  0  -0.324977  -0.572526  0  2.18036  0
O  O292  1  0.32459872  0.90496578  0.30598679  1  -1.171507  0  -0.333067  -0.577922  0  2.36851  0
O  O293  1  0.74320874  0.57681980  0.68987839  1  -1.170261  0  -0.316036  -0.535671  0  2.315207  0
O  O294  1  0.84988502  0.69266344  0.72181703  1  -1.199145  0  -0.318273  -0.564763  0  2.452934  0
O  O295  1  0.17669576  0.58658234  0.55520585  1  -1.102479  0  -0.161397  -0.228507  0  2.53455  0
O  O296  1  0.10101950  0.74821301  0.33777135  1  -1.184193  0  -0.327455  -0.567529  0  2.149647  0
O  O297  1  0.26637695  0.70155024  0.32777026  1  -1.160895  0  -0.332088  -0.568702  0  2.327347  0
O  O298  1  0.45751228  0.82265322  0.20217054  1  -1.180619  0  -0.31664  -0.543155  0  2.400201  0
O  O299  1  0.34587053  0.69666413  0.21036097  1  -1.188963  0  -0.314818  -0.556828  0  2.382924  0
O  O300  1  0.68564382  0.59742039  0.04489964  1  -1.108736  0  -0.158933  -0.22509  0  2.538039  0
O  O301  1  0.50501427  0.62893572  0.82081135  1  -1.194557  0  -0.324973  -0.572535  0  2.180151  0
O  O302  1  0.67540141  0.59502842  0.80598536  1  -1.171606  0  -0.333139  -0.577912  0  2.368481  0
O  O303  1  0.25679871  0.92318045  0.18987937  1  -1.170086  0  -0.316029  -0.535645  0  2.315234  0
O  O304  1  0.15012325  0.80734031  0.22181788  1  -1.199093  0  -0.318321  -0.564835  0  2.452906  0
O  O305  1  0.82330549  0.91342195  0.05520631  1  -1.102884  0  -0.161405  -0.228551  0  2.534455  0
O  O306  1  0.89898611  0.75179887  0.83776999  1  -1.184318  0  -0.327506  -0.567556  0  2.149595  0
O  O307  1  0.73362084  0.79844868  0.82776722  1  -1.160932  0  -0.332074  -0.568734  0  2.327215  0
O  O308  1  0.45751569  0.32265757  0.29782898  1  -1.180818  0  -0.316679  -0.543129  0  2.400035  0
O  O309  1  0.34586530  0.19667104  0.28964254  1  -1.188888  0  -0.314851  -0.556862  0  2.382765  0
O  O310  1  0.68564050  0.09742033  0.45510233  1  -1.108524  0  -0.158891  -0.225045  0  2.538211  0
O  O311  1  0.50500697  0.12891973  0.67918735  1  -1.194468  0  -0.325013  -0.572466  0  2.180284  0
O  O312  1  0.67539772  0.09501383  0.69401280  1  -1.171619  0  -0.333132  -0.577897  0  2.368363  0
O  O313  1  0.25679572  0.42317978  0.31012270  1  -1.170176  0  -0.316113  -0.535766  0  2.315185  0
O  O314  1  0.15011892  0.30734325  0.27818067  1  -1.199114  0  -0.318275  -0.564784  0  2.452955  0
O  O315  1  0.82330279  0.41342115  0.44479449  1  -1.102892  0  -0.161383  -0.228567  0  2.534474  0
O  O316  1  0.89899146  0.25180203  0.66222749  1  -1.184171  0  -0.327539  -0.567614  0  2.149626  0
O  O317  1  0.73362822  0.29845385  0.67223272  1  -1.160826  0  -0.33213  -0.568753  0  2.327173  0
O  O318  1  0.54249106  0.17734442  0.79783055  1  -1.180652  0  -0.316615  -0.543153  0  2.400255  0
O  O319  1  0.65413729  0.30333091  0.78964201  1  -1.188983  0  -0.314886  -0.55694  0  2.382807  0
O  O320  1  0.31436003  0.40258049  0.95510259  1  -1.108549  0  -0.158927  -0.225161  0  2.538295  0
O  O321  1  0.49499374  0.37108127  0.17918710  1  -1.194539  0  -0.325049  -0.572528  0  2.180158  0
O  O322  1  0.32459979  0.40497118  0.19401385  1  -1.171599  0  -0.333113  -0.577894  0  2.368491  0
O  O323  1  0.74321431  0.07681132  0.81011683  1  -1.170467  0  -0.316032  -0.535618  0  2.315249  0
O  O324  1  0.84987826  0.19266122  0.77818284  1  -1.199083  0  -0.318354  -0.564837  0  2.452891  0
O  O325  1  0.17670557  0.08658857  0.94479177  1  -1.102488  0  -0.161389  -0.228592  0  2.534513  0
O  O326  1  0.10101417  0.24820526  0.16222922  1  -1.18417  0  -0.327501  -0.567578  0  2.149634  0
O  O327  1  0.26637233  0.20154128  0.17223237  1  -1.160925  0  -0.332075  -0.568681  0  2.32715  0
