# generated using pymatgen
data_AlH10C16O5F
_symmetry_space_group_name_H-M   'P 1'
_cell_length_a   6.63316727
_cell_length_b   15.38381969
_cell_length_c   17.68461223
_cell_angle_alpha   83.33715814
_cell_angle_beta   80.35779737
_cell_angle_gamma   77.42060023
_symmetry_Int_Tables_number   1
_chemical_formula_structural   AlH10C16O5F
_chemical_formula_sum   'Al2 H20 C32 O10 F2'
_cell_volume   1730.45395079
_cell_formula_units_Z   2
loop_
 _symmetry_equiv_pos_site_id
 _symmetry_equiv_pos_as_xyz
  1  'x, y, z'
loop_
 _atom_site_type_symbol
 _atom_site_label
 _atom_site_symmetry_multiplicity
 _atom_site_fract_x
 _atom_site_fract_y
 _atom_site_fract_z
 _atom_site_occupancy
 _atom_site_pbe_bader_charge
 _atom_site_pbe_bader_spin_density
 _atom_site_pbe_cm5_charge
 _atom_site_pbe_ddec_charge
 _atom_site_pbe_ddec_spin_density
 _atom_site_pbe_ddec_sum_bond_order
 _atom_site_pbe_magmom
Al  Al0  1  0.49718052  0.50134210  0.49965094  1  2.50393  0  0.398753  1.647007  0  2.578844  0
Al  Al1  1  0.99734956  0.50140437  0.49933264  1  2.504551  0  0.398633  1.647491  0  2.580982  0
H  H2  1  0.24879042  0.42574741  0.58293797  1  0.626302  0  0.356267  0.433332  0  0.849124  0
H  H3  1  0.74242714  0.58028116  0.41777142  1  0.625469  0  0.355661  0.433537  0  0.847969  0
H  H4  1  0.62230267  0.56143470  0.26755032  1  0.090129  0  0.108885  0.112654  0  0.998657  0
H  H5  1  0.70120460  0.55953229  0.12446726  1  0.113032  0  0.105275  0.108467  0  0.995128  0
H  H6  1  0.09161190  0.44340382  0.26864002  1  0.110161  0  0.108753  0.118764  0  0.999329  0
H  H7  1  0.90596185  0.55838640  0.72939955  1  0.094376  0  0.108933  0.118695  0  0.998488  0
H  H8  1  0.38666771  0.43198958  0.73376876  1  0.082207  0  0.108211  0.112192  0  0.997169  0
H  H9  1  0.31837604  0.43013907  0.87719519  1  0.081623  0  0.106996  0.110517  0  0.992044  0
H  H10  1  0.80779368  0.77209516  0.48183945  1  0.112539  0  0.117453  0.143999  0  0.988671  0
H  H11  1  0.17164887  0.23042147  0.53027210  1  0.118182  0  0.11728  0.144461  0  0.985538  0
H  H12  1  0.59555918  0.23175691  0.44866651  1  0.096942  0  0.110671  0.120117  0  0.989255  0
H  H13  1  0.68032313  0.06867411  0.45405971  1  0.114301  0  0.096946  0.107422  0  1.056259  0
H  H14  1  0.41242301  0.77140101  0.53957970  1  0.077465  0  0.109036  0.11731  0  0.99674  0
H  H15  1  0.32970435  0.93439465  0.53347147  1  0.129915  0  0.094523  0.106221  0  1.075499  0
H  H16  1  0.00790959  0.40256640  0.15327282  1  0.047041  0  0.094484  0.133527  0  0.998881  0
H  H17  1  0.23421559  0.36385860  0.08651270  1  0.013552  0  0.096644  0.135859  0  0.98323  0
H  H18  1  0.07794830  0.46985502  0.06786534  1  0.02704  0  0.091257  0.124841  0  1.011264  0
H  H19  1  0.93364891  0.52881448  0.92982866  1  0.036796  0  0.090598  0.123884  0  1.013088  0
H  H20  1  0.77277970  0.63397870  0.91194560  1  0.064834  0  0.096824  0.136281  0  0.983465  0
H  H21  1  0.99753594  0.59665500  0.84409574  1  0.052602  0  0.094572  0.132503  0  0.996646  0
C  C22  1  0.82230384  0.34214253  0.49027168  1  1.553005  0  0.264078  0.633277  0  4.109587  0
C  C23  1  0.69580763  0.49504898  0.63812626  1  1.589487  0  0.268143  0.641464  0  4.091074  0
C  C24  1  0.17184662  0.66072296  0.50887618  1  1.591226  0  0.264431  0.634375  0  4.107601  0
C  C25  1  0.30067121  0.50611994  0.36111888  1  1.588376  0  0.268278  0.642086  0  4.090169  0
C  C26  1  0.35081203  0.50323210  0.27613825  1  -0.059614  0  -0.015831  -0.04103  0  4.002863  0
C  C27  1  0.52468251  0.53506999  0.23590229  1  0.012205  0  -0.084645  -0.099267  0  4.010645  0
C  C28  1  0.56887132  0.53349275  0.15656988  1  -0.08002  0  -0.08232  -0.12221  0  3.980649  0
C  C29  1  0.44351429  0.49794774  0.11599467  1  0.064204  0  0.000609  0.076728  0  4.078092  0
C  C30  1  0.26960354  0.46354907  0.15657340  1  -0.011999  0  0.000849  0.134467  0  3.923243  0
C  C31  1  0.22529534  0.46822554  0.23606636  1  -0.018273  0  -0.081855  -0.157814  0  3.944246  0
C  C32  1  0.49050793  0.49678985  0.03512321  1  0.121953  0  -0.03951  -0.097491  0  4.122871  0
C  C33  1  0.52691392  0.49593982  0.96508192  1  -0.53924  0  -0.039552  -0.096775  0  4.124012  0
C  C34  1  0.57039731  0.49588646  0.88408387  1  0.108838  0  0.001801  0.078595  0  4.07791  0
C  C35  1  0.73853590  0.53340873  0.84252344  1  0.000354  0  0.000473  0.13189  0  3.924877  0
C  C36  1  0.77698693  0.53093138  0.76277172  1  0.019398  0  -0.082325  -0.156623  0  3.94199  0
C  C37  1  0.65133888  0.49504813  0.72341151  1  -0.086299  0  -0.013742  -0.038431  0  3.999549  0
C  C38  1  0.48393633  0.45947891  0.76473362  1  -0.042066  0  -0.085782  -0.100304  0  4.012389  0
C  C39  1  0.44572397  0.45891186  0.84428255  1  -0.018152  0  -0.084512  -0.126  0  3.981481  0
C  C40  1  0.11768107  0.75976894  0.51066322  1  -0.003972  0  -0.013362  -0.015002  0  3.997872  0
C  C41  1  0.87616372  0.24301531  0.48935458  1  -0.013425  0  -0.011831  -0.013705  0  3.9995  0
C  C42  1  0.92352425  0.80718380  0.49375372  1  0.039268  0  -0.093661  -0.22075  0  3.994637  0
C  C43  1  0.87886312  0.89954096  0.49082861  1  0.327063  0  0.100604  0.242195  0  4.001185  0
C  C44  1  0.06174931  0.19543489  0.51370098  1  0.025047  0  -0.092727  -0.219889  0  3.996319  0
C  C45  1  0.10461874  0.10299139  0.51861433  1  0.407627  0  0.100466  0.242359  0  4.001646  0
C  C46  1  0.74068587  0.19532692  0.46789332  1  0.004467  0  -0.087023  -0.104066  0  3.993815  0
C  C47  1  0.78961088  0.10261387  0.47156737  1  -0.028225  0  -0.092106  -0.121136  0  3.98206  0
C  C48  1  0.26098120  0.80768655  0.52582543  1  0.057673  0  -0.08644  -0.101097  0  3.991517  0
C  C49  1  0.21240566  0.90036893  0.52242766  1  -0.103227  0  -0.093254  -0.122363  0  3.980498  0
C  C50  1  0.01909766  0.95180519  0.50395404  1  0.053762  0  -0.008817  -0.015593  0  3.95598  0
C  C51  1  0.97284765  0.05096686  0.49835126  1  0.045883  0  -0.008253  -0.014868  0  3.950921  0
C  C52  1  0.13955560  0.42286004  0.11430553  1  -0.014344  0  -0.236687  -0.41285  0  3.984559  0
C  C53  1  0.86840379  0.57537224  0.88384295  1  -0.080057  0  -0.234923  -0.409082  0  3.984888  0
O  O54  1  0.63913559  0.38116360  0.47812834  1  -1.257865  0  -0.236863  -0.587244  0  2.333084  0
O  O55  1  0.87212857  0.51052046  0.60519685  1  -1.259915  0  -0.234755  -0.588576  0  2.332345  0
O  O56  1  0.03187743  0.62309655  0.49343161  1  -1.259414  0  -0.238348  -0.597905  0  2.353205  0
O  O57  1  0.43939319  0.52349537  0.39588130  1  -1.26697  0  -0.237442  -0.601698  0  2.349896  0
O  O58  1  0.35525927  0.62161441  0.52071826  1  -1.265186  0  -0.237369  -0.58914  0  2.335019  0
O  O59  1  0.12290693  0.49176418  0.39353308  1  -1.263359  0  -0.234152  -0.587188  0  2.327845  0
O  O60  1  0.96224101  0.37988434  0.50555573  1  -1.261121  0  -0.237709  -0.596523  0  2.355894  0
O  O61  1  0.55494050  0.47886703  0.60373496  1  -1.268436  0  -0.23685  -0.600883  0  2.344609  0
O  O62  1  0.25401845  0.45832337  0.53265564  1  -1.428381  0  -0.449567  -0.995683  0  2.212453  0
O  O63  1  0.74025987  0.54452062  0.46656498  1  -1.428669  0  -0.448461  -0.995957  0  2.214544  0
F  F64  1  0.68382614  0.93851944  0.47345674  1  -0.638819  0  -0.085431  -0.139165  0  1.407278  0
F  F65  1  0.28714031  0.06394761  0.54619637  1  -0.635774  0  -0.09028  -0.140208  0  1.386724  0
