# generated using pymatgen
data_Cu2H24C12S3Br2
_symmetry_space_group_name_H-M   'P 1'
_cell_length_a   9.89490611
_cell_length_b   9.89488080
_cell_length_c   10.02889565
_cell_angle_alpha   101.26367274
_cell_angle_beta   101.26392202
_cell_angle_gamma   109.57162699
_symmetry_Int_Tables_number   1
_chemical_formula_structural   Cu2H24C12S3Br2
_chemical_formula_sum   'Cu4 H48 C24 S6 Br4'
_cell_volume   870.49102142
_cell_formula_units_Z   2
loop_
 _symmetry_equiv_pos_site_id
 _symmetry_equiv_pos_as_xyz
  1  'x, y, z'
loop_
 _atom_site_type_symbol
 _atom_site_label
 _atom_site_symmetry_multiplicity
 _atom_site_fract_x
 _atom_site_fract_y
 _atom_site_fract_z
 _atom_site_occupancy
 _atom_site_pbe_bader_spin_density
 _atom_site_pbe_cm5_charge
 _atom_site_pbe_ddec_charge
 _atom_site_pbe_ddec_spin_density
 _atom_site_pbe_ddec_sum_bond_order
 _atom_site_pbe_magmom
Cu  Cu0  1  0.60241778  0.02465016  0.62390432  1  0  0.264338  0.106308  0  2.753517  0
Cu  Cu1  1  0.97535100  0.39758171  0.87609549  1  0  0.264332  0.106294  0  2.753458  0
Cu  Cu2  1  0.39758375  0.97534873  0.37609438  1  0  0.264351  0.106304  0  2.753519  0
Cu  Cu3  1  0.02464993  0.60241830  0.12390530  1  0  0.26434  0.106316  0  2.753454  0
H  H4  1  0.52024685  0.22064135  0.84621252  1  0  0.084046  0.096887  0  1.042244  0
H  H5  1  0.77935637  0.47975385  0.65378422  1  0  0.084065  0.09691  0  1.042194  0
H  H6  1  0.47975218  0.77935641  0.15378449  1  0  0.084071  0.096924  0  1.042235  0
H  H7  1  0.22064292  0.52024726  0.34621248  1  0  0.084057  0.096903  0  1.042236  0
H  H8  1  0.69147755  0.34774311  0.97824811  1  0  0.084785  0.096653  0  1.045807  0
H  H9  1  0.65225397  0.30852644  0.52175323  1  0  0.084783  0.096628  0  1.045878  0
H  H10  1  0.30852208  0.65225355  0.02175080  1  0  0.084771  0.096622  0  1.045877  0
H  H11  1  0.34774663  0.69147804  0.47824936  1  0  0.084773  0.096624  0  1.045861  0
H  H12  1  0.49331570  0.45901337  0.86887752  1  0  0.084754  0.081473  0  1.028393  0
H  H13  1  0.54098350  0.50668747  0.63112489  1  0  0.084751  0.081516  0  1.02844  0
H  H14  1  0.50668291  0.54098329  0.13112319  1  0  0.084724  0.081461  0  1.028384  0
H  H15  1  0.45901460  0.49331589  0.36887700  1  0  0.084737  0.081474  0  1.028364  0
H  H16  1  0.68593002  0.55421111  0.87997974  1  0  0.081331  0.081456  0  1.030407  0
H  H17  1  0.44578728  0.31407227  0.62002203  1  0  0.081332  0.081464  0  1.030321  0
H  H18  1  0.31406945  0.44578778  0.12002256  1  0  0.081318  0.081443  0  1.030397  0
H  H19  1  0.55421201  0.68592885  0.37997767  1  0  0.081332  0.081454  0  1.03039  0
H  H20  1  0.88077844  0.84968531  0.80787237  1  0  0.084467  0.103579  0  1.031291  0
H  H21  1  0.15031441  0.11922132  0.69212893  1  0  0.08446  0.103553  0  1.031364  0
H  H22  1  0.11922103  0.15031358  0.19212793  1  0  0.084463  0.10356  0  1.03133  0
H  H23  1  0.84968342  0.88077869  0.30787127  1  0  0.084461  0.103578  0  1.031357  0
H  H24  1  0.87523719  0.03242502  0.83316619  1  0  0.085456  0.088534  0  1.042768  0
H  H25  1  0.96757367  0.12475974  0.66683328  1  0  0.085476  0.088584  0  1.04274  0
H  H26  1  0.12476228  0.96757387  0.16683511  1  0  0.085463  0.088542  0  1.042755  0
H  H27  1  0.03242373  0.87523915  0.33316463  1  0  0.085483  0.088575  0  1.042748  0
H  H28  1  0.78224835  0.80909896  0.00233938  1  0  0.082933  0.082276  0  1.015407  0
H  H29  1  0.19090172  0.21775012  0.49766329  1  0  0.082943  0.082288  0  1.015366  0
H  H30  1  0.21775009  0.19089994  0.99766172  1  0  0.082952  0.082292  0  1.015361  0
H  H31  1  0.80909938  0.78224765  0.50233711  1  0  0.082953  0.082302  0  1.01536  0
H  H32  1  0.88578730  0.00574160  0.06620414  1  0  0.088887  0.100653  0  1.013541  0
H  H33  1  0.99425960  0.11421121  0.43379579  1  0  0.088905  0.100666  0  1.013573  0
H  H34  1  0.11421174  0.99425617  0.93379687  1  0  0.088876  0.100632  0  1.013557  0
H  H35  1  0.00574133  0.88578880  0.56620401  1  0  0.088901  0.10064  0  1.013552  0
H  H36  1  0.61045227  0.92629590  0.07399620  1  0  0.085406  0.089838  0  1.026632  0
H  H37  1  0.07370339  0.38954625  0.42600254  1  0  0.085406  0.089819  0  1.026625  0
H  H38  1  0.38954659  0.07370411  0.92600420  1  0  0.085413  0.089855  0  1.026606  0
H  H39  1  0.92629959  0.61045376  0.57399665  1  0  0.085404  0.089816  0  1.026604  0
H  H40  1  0.66237138  0.05445409  0.97356612  1  0  0.085618  0.092315  0  0.997856  0
H  H41  1  0.94554371  0.33762522  0.52643257  1  0  0.085604  0.092287  0  0.997857  0
H  H42  1  0.33762955  0.94554592  0.02643468  1  0  0.085623  0.092324  0  0.997832  0
H  H43  1  0.05445825  0.66237479  0.47356643  1  0  0.085624  0.092339  0  0.997801  0
H  H44  1  0.49751230  0.71288298  0.85482884  1  0  0.092173  0.103766  0  0.99385  0
H  H45  1  0.28711570  0.50248671  0.64517254  1  0  0.092169  0.10376  0  0.993833  0
H  H46  1  0.50248597  0.28711814  0.14517166  1  0  0.092178  0.103755  0  0.993855  0
H  H47  1  0.71288583  0.49751219  0.35482816  1  0  0.092187  0.103761  0  0.99384  0
H  H48  1  0.43293488  0.85130624  0.80810910  1  0  0.087097  0.102699  0  1.038973  0
H  H49  1  0.14869115  0.56706383  0.69188950  1  0  0.087108  0.102697  0  1.038965  0
H  H50  1  0.56706485  0.14869600  0.19189090  1  0  0.087115  0.102706  0  1.038994  0
H  H51  1  0.85131037  0.43293506  0.30810920  1  0  0.087099  0.102702  0  1.038954  0
C  C52  1  0.62246794  0.32042443  0.86935197  1  0  -0.155763  -0.167597  0  3.820704  0
C  C53  1  0.67957194  0.37753160  0.63064429  1  0  -0.155734  -0.167551  0  3.820614  0
C  C54  1  0.37753006  0.67957333  0.13064484  1  0  -0.155781  -0.167621  0  3.820768  0
C  C55  1  0.32042546  0.62246728  0.36935362  1  0  -0.155741  -0.167571  0  3.820714  0
C  C56  1  0.58746682  0.44889973  0.83072283  1  0  -0.171219  -0.141702  0  3.933132  0
C  C57  1  0.55110226  0.41253973  0.66927746  1  0  -0.17122  -0.141691  0  3.933126  0
C  C58  1  0.41253308  0.55110028  0.16927876  1  0  -0.171158  -0.141634  0  3.933128  0
C  C59  1  0.44889919  0.58746698  0.33072272  1  0  -0.171198  -0.141668  0  3.933145  0
C  C60  1  0.81830870  0.91807229  0.83758434  1  0  -0.154717  -0.172881  0  3.841382  0
C  C61  1  0.08192644  0.18168924  0.66241612  1  0  -0.154733  -0.172924  0  3.841517  0
C  C62  1  0.18169077  0.08192660  0.16241696  1  0  -0.154709  -0.172875  0  3.841483  0
C  C63  1  0.91807199  0.81830964  0.33758199  1  0  -0.154759  -0.172982  0  3.841564  0
C  C64  1  0.79165323  0.91699999  0.98249731  1  0  -0.170089  -0.13784  0  3.916059  0
C  C65  1  0.08299833  0.20834440  0.51750295  1  0  -0.170127  -0.137915  0  3.916162  0
C  C66  1  0.20834581  0.08299778  0.01750369  1  0  -0.170129  -0.137841  0  3.916079  0
C  C67  1  0.91700217  0.79165449  0.48249656  1  0  -0.170119  -0.137832  0  3.916066  0
C  C68  1  0.64626684  0.94015292  0.97879255  1  0  -0.169056  -0.14217  0  3.93805  0
C  C69  1  0.05984659  0.35373149  0.52120667  1  0  -0.169026  -0.142085  0  3.937871  0
C  C70  1  0.35373349  0.05984820  0.02120834  1  0  -0.169052  -0.142193  0  3.937955  0
C  C71  1  0.94015536  0.64626852  0.47879233  1  0  -0.169021  -0.142135  0  3.937924  0
C  C72  1  0.53201536  0.82712727  0.84438283  1  0  -0.153291  -0.175439  0  3.86419  0
C  C73  1  0.17287165  0.46798510  0.65561968  1  0  -0.153329  -0.175475  0  3.864107  0
C  C74  1  0.46798291  0.17287385  0.15561767  1  0  -0.153351  -0.175482  0  3.864175  0
C  C75  1  0.82712988  0.53201380  0.34438102  1  0  -0.153359  -0.175502  0  3.864217  0
S  S76  1  0.72886339  0.27113688  0.74999826  1  0  -0.063298  0.101102  0  3.556585  0
S  S77  1  0.27113797  0.72886425  0.24999984  1  0  -0.063282  0.101121  0  3.556664  0
S  S78  1  0.63170337  0.83809072  0.70799457  1  0  -0.041573  0.048194  0  3.080827  0
S  S79  1  0.16190934  0.36829561  0.79200509  1  0  -0.04154  0.048267  0  3.080744  0
S  S80  1  0.36829550  0.16190929  0.29200683  1  0  -0.041521  0.048275  0  3.080746  0
S  S81  1  0.83809159  0.63170440  0.20799571  1  0  -0.04155  0.04825  0  3.080835  0
Br  Br82  1  0.33059417  0.97855045  0.60243307  1  0  -0.243971  -0.387618  0  1.643973  0
Br  Br83  1  0.02144877  0.66940684  0.89756578  1  0  -0.243965  -0.387601  0  1.643934  0
Br  Br84  1  0.66940900  0.02144733  0.39756873  1  0  -0.243952  -0.387578  0  1.643966  0
Br  Br85  1  0.97855069  0.33059204  0.10243153  1  0  -0.243965  -0.387612  0  1.643977  0
