# generated using pymatgen
data_LiAlH23C20N3O2
_symmetry_space_group_name_H-M   'P 1'
_cell_length_a   9.41047945
_cell_length_b   10.89783874
_cell_length_c   13.73184574
_cell_angle_alpha   104.04232052
_cell_angle_beta   100.50622888
_cell_angle_gamma   102.58702119
_symmetry_Int_Tables_number   1
_chemical_formula_structural   LiAlH23C20N3O2
_chemical_formula_sum   'Li2 Al2 H46 C40 N6 O4'
_cell_volume   1291.53455360
_cell_formula_units_Z   2
loop_
 _symmetry_equiv_pos_site_id
 _symmetry_equiv_pos_as_xyz
  1  'x, y, z'
loop_
 _atom_site_type_symbol
 _atom_site_label
 _atom_site_symmetry_multiplicity
 _atom_site_fract_x
 _atom_site_fract_y
 _atom_site_fract_z
 _atom_site_occupancy
 _atom_site_hle17_bader_spin_density
 _atom_site_hle17_ddec_charge
 _atom_site_hle17_ddec_spin_density
 _atom_site_hle17_ddec_sum_bond_order
 _atom_site_hle17_magmom
 _atom_site_hse06_10hf_bader_spin_density
 _atom_site_hse06_10hf_ddec_charge
 _atom_site_hse06_10hf_ddec_spin_density
 _atom_site_hse06_10hf_ddec_sum_bond_order
 _atom_site_hse06_10hf_magmom
 _atom_site_hse06_bader_spin_density
 _atom_site_hse06_ddec_charge
 _atom_site_hse06_ddec_spin_density
 _atom_site_hse06_ddec_sum_bond_order
 _atom_site_hse06_magmom
 _atom_site_pbe_bader_spin_density
 _atom_site_pbe_cm5_charge
 _atom_site_pbe_ddec_charge
 _atom_site_pbe_ddec_spin_density
 _atom_site_pbe_ddec_sum_bond_order
 _atom_site_pbe_magmom
Li  Li0  1  0.43374179  0.93503623  0.73433520  1  0  0.763624  0  0.539433  0  0  0.684734  0  0.699341  0  0  0.696717  0  0.682274  0  0  0.569632  0.67617  0  0.711639  0
Li  Li1  1  0.56625932  0.06496480  0.26566621  1  0  0.763612  0  0.539438  0  0  0.684698  0  0.699394  0  0  0.696682  0  0.682326  0  0  0.569625  0.676134  0  0.711692  0
Al  Al2  1  0.25708324  0.13859398  0.77381882  1  0  1.242928  0  2.636584  0  0  1.092323  0  3.023768  0  0  1.119381  0  2.993371  0  0  0.27182  1.072239  0  3.045078  0
Al  Al3  1  0.74291775  0.86140313  0.22618257  1  0  1.242909  0  2.636408  0  0  1.092304  0  3.02384  0  0  1.119355  0  2.993465  0  0  0.271803  1.072224  0  3.045135  0
H  H4  1  0.97067736  0.07717421  0.76316971  1  0  0.091034  0  1.032996  0  0  0.103402  0  1.101052  0  0  0.104099  0  1.10397  0  0  0.065344  0.102881  0  1.098987  0
H  H5  1  0.02931978  0.92282090  0.23683009  1  0  0.091047  0  1.032962  0  0  0.10342  0  1.101009  0  0  0.104117  0  1.103927  0  0  0.065338  0.102899  0  1.098945  0
H  H6  1  0.06715961  0.01220035  0.85039646  1  0  0.091313  0  1.005445  0  0  0.106996  0  1.065823  0  0  0.108546  0  1.066448  0  0  0.07026  0.105899  0  1.065304  0
H  H7  1  0.93283814  0.98779673  0.14960378  1  0  0.091232  0  1.00553  0  0  0.106933  0  1.065891  0  0  0.108482  0  1.066517  0  0  0.070252  0.105835  0  1.065372  0
H  H8  1  0.16997868  0.24020635  0.98206038  1  0  0.068461  0  0.963879  0  0  0.091922  0  1.024848  0  0  0.092389  0  1.025897  0  0  0.077036  0.09157  0  1.024129  0
H  H9  1  0.83002015  0.75979072  0.01793855  1  0  0.068435  0  0.963902  0  0  0.091896  0  1.024871  0  0  0.092363  0  1.02592  0  0  0.077038  0.091552  0  1.024143  0
H  H10  1  0.97080199  0.19463495  0.94783720  1  0  0.065256  0  0.983003  0  0  0.086763  0  1.049004  0  0  0.087097  0  1.050642  0  0  0.068389  0.086488  0  1.047922  0
H  H11  1  0.02919714  0.80536311  0.05216268  1  0  0.065207  0  0.983038  0  0  0.086713  0  1.049037  0  0  0.08705  0  1.050673  0  0  0.06837  0.086438  0  1.047956  0
H  H12  1  0.07301552  0.30680787  0.89478431  1  0  0.061599  0  0.964361  0  0  0.084098  0  1.02688  0  0  0.084882  0  1.027034  0  0  0.073121  0.083556  0  1.026697  0
H  H13  1  0.92698331  0.69318921  0.10521534  1  0  0.061574  0  0.964371  0  0  0.084081  0  1.026885  0  0  0.084865  0  1.027039  0  0  0.073128  0.083538  0  1.026703  0
H  H14  1  0.07402155  0.32420960  0.72679783  1  0  0.030683  0  0.939419  0  0  0.048724  0  1.004236  0  0  0.048625  0  1.003318  0  0  0.095919  0.048854  0  1.00491  0
H  H15  1  0.92597680  0.67578943  0.27320067  1  0  0.03066  0  0.939406  0  0  0.048713  0  1.004229  0  0  0.048614  0  1.003312  0  0  0.095924  0.048843  0  1.004903  0
H  H16  1  0.10300888  0.27859472  0.60068354  1  0  0.027945  0  0.921567  0  0  0.0436  0  0.990238  0  0  0.043724  0  0.98911  0  0  0.090318  0.043928  0  0.990732  0
H  H17  1  0.89699429  0.72140238  0.39931595  1  0  0.027947  0  0.921579  0  0  0.043606  0  0.990258  0  0  0.04373  0  0.989131  0  0  0.09033  0.043934  0  0.990753  0
H  H18  1  0.01644274  0.52109077  0.67184112  1  0  0.101813  0  0.939568  0  0  0.114545  0  0.992574  0  0  0.117982  0  0.99203  0  0  0.10542  0.111973  0  0.993198  0
H  H19  1  0.98355887  0.47890825  0.32815489  1  0  0.101821  0  0.939608  0  0  0.114536  0  0.992629  0  0  0.117967  0  0.992092  0  0  0.105409  0.111965  0  0.993252  0
H  H20  1  0.13740566  0.75784317  0.69353660  1  0  0.075062  0  0.93798  0  0  0.08509  0  0.997234  0  0  0.088055  0  0.994451  0  0  0.122184  0.082473  0  0.999969  0
H  H21  1  0.86259752  0.24215388  0.30645705  1  0  0.075101  0  0.937861  0  0  0.085078  0  0.99718  0  0  0.088042  0  0.994397  0  0  0.122172  0.082454  0  0.999921  0
H  H22  1  0.56155655  0.70062637  0.73355099  1  0  0.068383  0  0.926458  0  0  0.078499  0  0.984858  0  0  0.081263  0  0.982646  0  0  0.119626  0.07648  0  0.986449  0
H  H23  1  0.43844366  0.29937169  0.26644830  1  0  0.068371  0  0.926458  0  0  0.078511  0  0.984821  0  0  0.081275  0  0.982608  0  0  0.119637  0.076491  0  0.986413  0
H  H24  1  0.45819313  0.46096197  0.71913564  1  0  0.121722  0  0.939204  0  0  0.129958  0  0.996196  0  0  0.134261  0  0.994232  0  0  0.112132  0.126704  0  0.997962  0
H  H25  1  0.54181034  0.53903610  0.28086333  1  0  0.121732  0  0.939169  0  0  0.129973  0  0.99616  0  0  0.134276  0  0.994195  0  0  0.112124  0.126718  0  0.997926  0
H  H26  1  0.07444711  0.98579183  0.57131038  1  0  0.036163  0  0.928391  0  0  0.052072  0  0.994625  0  0  0.052076  0  0.994121  0  0  0.101572  0.052058  0  0.994994  0
H  H27  1  0.92555197  0.01421311  0.42869151  1  0  0.036126  0  0.928369  0  0  0.052019  0  0.994613  0  0  0.052022  0  0.994111  0  0  0.101569  0.052009  0  0.994976  0
H  H28  1  0.13092058  0.83911432  0.55447392  1  0  0.028326  0  0.936659  0  0  0.039353  0  1.010541  0  0  0.040114  0  1.008316  0  0  0.092809  0.038917  0  1.012007  0
H  H29  1  0.86907080  0.16088663  0.44552405  1  0  0.028335  0  0.936675  0  0  0.039332  0  1.010572  0  0  0.040113  0  1.00833  0  0  0.092811  0.038897  0  1.012039  0
H  H30  1  0.15389089  0.79466061  0.37992181  1  0  0.091123  0  0.971951  0  0  0.099155  0  1.038518  0  0  0.102296  0  1.037556  0  0  0.100742  0.096854  0  1.039401  0
H  H31  1  0.84611162  0.20534140  0.62007851  1  0  0.091102  0  0.971989  0  0  0.099129  0  1.038567  0  0  0.102268  0  1.037606  0  0  0.100745  0.096829  0  1.03945  0
H  H32  1  0.29181158  0.85859934  0.25291037  1  0  0.07868  0  0.922979  0  0  0.090041  0  0.977392  0  0  0.092207  0  0.976383  0  0  0.12331  0.088423  0  0.978234  0
H  H33  1  0.70819741  0.14140272  0.74709225  1  0  0.078679  0  0.922931  0  0  0.090056  0  0.97733  0  0  0.092222  0  0.976319  0  0  0.123323  0.088438  0  0.978173  0
H  H34  1  0.37901631  0.17979970  0.59328354  1  0  0.120136  0  0.970383  0  0  0.126865  0  1.032345  0  0  0.131504  0  1.029547  0  0  0.114857  0.12343  0  1.03462  0
H  H35  1  0.62097783  0.82020325  0.40671807  1  0  0.120123  0  0.970495  0  0  0.126884  0  1.032419  0  0  0.131525  0  1.029616  0  0  0.114852  0.12343  0  1.034712  0
H  H36  1  0.51082450  0.22744726  0.45780533  1  0  0.061675  0  0.935762  0  0  0.070885  0  0.99643  0  0  0.073384  0  0.994892  0  0  0.113174  0.069138  0  0.997422  0
H  H37  1  0.48917396  0.77255574  0.54219975  1  0  0.061637  0  0.935856  0  0  0.07084  0  0.99653  0  0  0.073338  0  0.994992  0  0  0.113148  0.069097  0  0.997518  0
H  H38  1  0.46476233  0.37507520  0.96500216  1  0  0.080183  0  0.958832  0  0  0.093149  0  1.017869  0  0  0.096132  0  1.017173  0  0  0.098265  0.091062  0  1.018387  0
H  H39  1  0.53523692  0.62492679  0.03499920  1  0  0.080201  0  0.958841  0  0  0.09314  0  1.017903  0  0  0.096138  0  1.01719  0  0  0.098273  0.091054  0  1.018421  0
H  H40  1  0.70041803  0.40036933  0.09573203  1  0  0.077521  0  0.962581  0  0  0.090582  0  1.020146  0  0  0.092382  0  1.019907  0  0  0.096849  0.089307  0  1.020249  0
H  H41  1  0.29958141  0.59962970  0.90426589  1  0  0.077529  0  0.962451  0  0  0.090552  0  1.020079  0  0  0.092351  0  1.01984  0  0  0.09683  0.089277  0  1.020181  0
H  H42  1  0.81312779  0.21056847  0.08249999  1  0  0.09097  0  0.959951  0  0  0.102466  0  1.018878  0  0  0.105601  0  1.018182  0  0  0.100872  0.100261  0  1.019495  0
H  H43  1  0.18687424  0.78943548  0.91749917  1  0  0.090986  0  0.959934  0  0  0.102473  0  1.018866  0  0  0.105608  0  1.018169  0  0  0.100895  0.100267  0  1.019482  0
H  H44  1  0.62480181  0.88474472  0.93368313  1  0  0.119519  0  0.955955  0  0  0.139453  0  1.02076  0  0  0.139997  0  1.022698  0  0  0.098727  0.139028  0  1.019473  0
H  H45  1  0.37519990  0.11525828  0.06632018  1  0  0.119498  0  0.955957  0  0  0.139422  0  1.020784  0  0  0.139967  0  1.02272  0  0  0.098723  0.138996  0  1.019498  0
H  H46  1  0.81003691  0.99022669  0.99072053  1  0  0.116812  0  0.95477  0  0  0.142053  0  1.007476  0  0  0.143115  0  1.007738  0  0  0.095739  0.141257  0  1.007308  0
H  H47  1  0.18996432  0.00977827  0.00928310  1  0  0.116796  0  0.954694  0  0  0.142045  0  1.007388  0  0  0.143105  0  1.007651  0  0  0.09573  0.141246  0  1.00723  0
H  H48  1  0.73344532  0.94753871  0.85458230  1  0  0.11221  0  0.951502  0  0  0.131496  0  1.01782  0  0  0.133129  0  1.016904  0  0  0.098653  0.130328  0  1.018449  0
H  H49  1  0.26655718  0.05246331  0.14542094  1  0  0.112209  0  0.951458  0  0  0.131484  0  1.017783  0  0  0.133116  0  1.016869  0  0  0.098643  0.130318  0  1.018409  0
C  C50  1  0.07326754  0.10238220  0.82595873  1  0  -0.639142  0  3.733508  0  0  -0.63382  0  3.980854  0  0  -0.644704  0  3.993059  0  0  -0.280981  -0.625603  0  3.971846  0
C  C51  1  0.92672823  0.89761190  0.17403852  1  0  -0.639045  0  3.733526  0  0  -0.633753  0  3.980851  0  0  -0.644637  0  3.993057  0  0  -0.280954  -0.625538  0  3.971846  0
C  C52  1  0.07068637  0.21585270  0.91701054  1  0  -0.196053  0  3.82883  0  0  -0.260767  0  4.062678  0  0  -0.261558  0  4.077277  0  0  -0.249794  -0.260095  0  4.052439  0
C  C53  1  0.92931186  0.78414241  0.08298794  1  0  -0.195974  0  3.828883  0  0  -0.260684  0  4.062715  0  0  -0.261477  0  4.077314  0  0  -0.249798  -0.26002  0  4.052472  0
C  C54  1  0.16305897  0.32881359  0.68360104  1  0  0.12691  0  3.801492  0  0  0.065147  0  4.063238  0  0  0.073001  0  4.069507  0  0  -0.058271  0.059434  0  4.058782  0
C  C55  1  0.83693909  0.67118445  0.31639724  1  0  0.126981  0  3.801565  0  0  0.065178  0  4.063359  0  0  0.073029  0  4.069635  0  0  -0.058264  0.059465  0  4.058901  0
C  C56  1  0.22933703  0.47163773  0.69251182  1  0  0.11489  0  3.722713  0  0  0.131364  0  3.961609  0  0  0.135416  0  3.983984  0  0  0.007831  0.128697  0  3.946601  0
C  C57  1  0.77066349  0.52836130  0.30748624  1  0  0.11497  0  3.722618  0  0  0.13144  0  3.96155  0  0  0.135494  0  3.983921  0  0  0.007839  0.128773  0  3.946543  0
C  C58  1  0.13816139  0.55643926  0.68462416  1  0  -0.191337  0  3.756648  0  0  -0.208216  0  4.001939  0  0  -0.217276  0  4.024739  0  0  -0.091265  -0.202154  0  3.986698  0
C  C59  1  0.86184209  0.44355879  0.31537190  1  0  -0.191428  0  3.756661  0  0  -0.208285  0  4.001939  0  0  -0.217341  0  4.024741  0  0  -0.091251  -0.202221  0  3.986695  0
C  C60  1  0.20448317  0.68795663  0.69609283  1  0  0.126937  0  3.770785  0  0  0.099516  0  4.030889  0  0  0.105687  0  4.048939  0  0  0.047028  0.095512  0  4.019222  0
C  C61  1  0.79551893  0.31204042  0.30390141  1  0  0.126971  0  3.770832  0  0  0.099589  0  4.030927  0  0  0.105763  0  4.048975  0  0  0.047041  0.09559  0  4.019261  0
C  C62  1  0.44085021  0.65658673  0.71935378  1  0  0.131507  0  3.76297  0  0  0.105488  0  4.023501  0  0  0.11158  0  4.04117  0  0  0.051224  0.101737  0  4.011511  0
C  C63  1  0.55915356  0.34341232  0.28064396  1  0  0.131576  0  3.763023  0  0  0.105562  0  4.023527  0  0  0.111655  0  4.041198  0  0  0.051257  0.101811  0  4.011537  0
C  C64  1  0.38439120  0.52403591  0.71039475  1  0  -0.16849  0  3.71445  0  0  -0.187659  0  3.958908  0  0  -0.195565  0  3.979901  0  0  -0.087584  -0.182746  0  3.945153  0
C  C65  1  0.61561011  0.47596214  0.28960250  1  0  -0.168558  0  3.714448  0  0  -0.187743  0  3.958933  0  0  -0.195648  0  3.979924  0  0  -0.087607  -0.182828  0  3.945179  0
C  C66  1  0.17491003  0.94753726  0.57709313  1  0  0.137186  0  3.742356  0  0  0.07839  0  4.000593  0  0  0.086601  0  4.004985  0  0  -0.049738  0.07265  0  3.997451  0
C  C67  1  0.82508567  0.05246372  0.42290613  1  0  0.137289  0  3.742277  0  0  0.078541  0  4.000424  0  0  0.086739  0  4.004816  0  0  -0.049694  0.072798  0  3.997285  0
C  C68  1  0.25540775  0.98262143  0.49744677  1  0  0.105758  0  3.714292  0  0  0.121579  0  3.954038  0  0  0.124829  0  3.977367  0  0  0.010268  0.119601  0  3.938139  0
C  C69  1  0.74459198  0.01737861  0.50255501  1  0  0.105511  0  3.714331  0  0  0.121417  0  3.95396  0  0  0.124666  0  3.977294  0  0  0.010183  0.11944  0  3.938062  0
C  C70  1  0.23120125  0.89255760  0.40019123  1  0  -0.185794  0  3.750355  0  0  -0.201988  0  3.996563  0  0  -0.210817  0  4.019674  0  0  -0.087108  -0.196245  0  3.981064  0
C  C71  1  0.76879830  0.10744538  0.59980962  1  0  -0.185739  0  3.750379  0  0  -0.201954  0  3.996565  0  0  -0.210786  0  4.019689  0  0  -0.087116  -0.196211  0  3.981069  0
C  C72  1  0.30785839  0.92768841  0.32906250  1  0  0.142541  0  3.743752  0  0  0.11764  0  3.999565  0  0  0.124433  0  4.016009  0  0  0.054865  0.113248  0  3.988448  0
C  C73  1  0.69214568  0.07231165  0.67093911  1  0  0.142613  0  3.743682  0  0  0.117698  0  3.999509  0  0  0.12449  0  4.015951  0  0  0.054878  0.113307  0  3.988395  0
C  C74  1  0.35714428  0.10617773  0.51854038  1  0  -0.159603  0  3.698543  0  0  -0.17668  0  3.940353  0  0  -0.184818  0  3.962628  0  0  -0.078912  -0.171433  0  3.925499  0
C  C75  1  0.64285189  0.89382131  0.48146149  1  0  -0.159505  0  3.698605  0  0  -0.176632  0  3.940362  0  0  -0.184771  0  3.962636  0  0  -0.078901  -0.171369  0  3.925521  0
C  C76  1  0.42921355  0.13258441  0.44305875  1  0  0.125225  0  3.767652  0  0  0.101508  0  4.023872  0  0  0.106807  0  4.043137  0  0  0.045025  0.098256  0  4.010558  0
C  C77  1  0.57078786  0.86741763  0.55694653  1  0  0.125347  0  3.767809  0  0  0.101629  0  4.02404  0  0  0.106929  0  4.043304  0  0  0.045117  0.098374  0  4.010722  0
C  C78  1  0.45052244  0.17596077  0.87985264  1  0  -0.235882  0  3.654277  0  0  -0.21684  0  3.925078  0  0  -0.215323  0  3.941651  0  0  0.018447  -0.21706  0  3.913384  0
C  C79  1  0.54947651  0.82404024  0.12014850  1  0  -0.23581  0  3.654191  0  0  -0.21681  0  3.925009  0  0  -0.215293  0  3.941585  0  0  0.01849  -0.217031  0  3.913317  0
C  C80  1  0.51682803  0.29421104  0.96035944  1  0  -0.099226  0  3.835673  0  0  -0.114405  0  4.083288  0  0  -0.122228  0  4.10788  0  0  -0.094508  -0.109424  0  4.066487  0
C  C81  1  0.48316983  0.70578997  0.03964228  1  0  -0.099277  0  3.835836  0  0  -0.114424  0  4.083444  0  0  -0.12226  0  4.108033  0  0  -0.094518  -0.109445  0  4.066644  0
C  C82  1  0.64812886  0.30874781  0.03336040  1  0  -0.020544  0  3.780295  0  0  -0.034303  0  4.024583  0  0  -0.031134  0  4.046296  0  0  -0.082307  -0.035937  0  4.009413  0
C  C83  1  0.35187147  0.69125419  0.96664183  1  0  -0.020489  0  3.780318  0  0  -0.034211  0  4.024587  0  0  -0.031042  0  4.046305  0  0  -0.082281  -0.035846  0  4.009415  0
C  C84  1  0.71146052  0.20349077  0.02612575  1  0  -0.185563  0  3.73337  0  0  -0.200986  0  3.973909  0  0  -0.20991  0  3.996769  0  0  -0.091487  -0.195226  0  3.958513  0
C  C85  1  0.28853921  0.79650925  0.97387458  1  0  -0.185665  0  3.733471  0  0  -0.20106  0  3.974016  0  0  -0.209984  0  3.996874  0  0  -0.091515  -0.195298  0  3.958617  0
C  C86  1  0.64327300  0.08765284  0.94468066  1  0  0.316501  0  3.736085  0  0  0.330143  0  3.975265  0  0  0.338294  0  3.995687  0  0  0.121516  0.324748  0  3.96131  0
C  C87  1  0.35672518  0.91234914  0.05531837  1  0  0.316539  0  3.736005  0  0  0.330123  0  3.975252  0  0  0.338272  0  3.995674  0  0  0.12149  0.324728  0  3.961295  0
C  C88  1  0.70714330  0.97154678  0.93066239  1  0  -0.375453  0  3.707281  0  0  -0.459315  0  3.941111  0  0  -0.462045  0  3.949327  0  0  -0.23012  -0.457197  0  3.935332  0
C  C89  1  0.29285921  0.02845523  0.06933866  1  0  -0.375415  0  3.707172  0  0  -0.459252  0  3.941012  0  0  -0.461981  0  3.949228  0  0  -0.230091  -0.457136  0  3.93523  0
N  N90  1  0.35381583  0.73854713  0.71294230  1  0  -0.404175  0  3.192142  0  0  -0.35692  0  3.471398  0  0  -0.368956  0  3.485828  0  0  -0.404603  -0.349208  0  3.462239  0
N  N91  1  0.64618795  0.26145191  0.28705472  1  0  -0.404252  0  3.192318  0  0  -0.357002  0  3.471573  0  0  -0.369039  0  3.486004  0  0  -0.404648  -0.349288  0  3.462411  0
N  N92  1  0.40678711  0.04564790  0.34955721  1  0  -0.410614  0  3.20367  0  0  -0.363626  0  3.48098  0  0  -0.375931  0  3.495871  0  0  -0.40113  -0.355355  0  3.470812  0
N  N93  1  0.59321724  0.95435317  0.65044754  1  0  -0.410705  0  3.203725  0  0  -0.363732  0  3.481073  0  0  -0.376035  0  3.495962  0  0  -0.401164  -0.35546  0  3.47091  0
N  N94  1  0.51701667  0.07548974  0.87359755  1  0  -0.443187  0  3.211111  0  0  -0.390625  0  3.463935  0  0  -0.404837  0  3.480541  0  0  -0.40277  -0.380994  0  3.452566  0
N  N95  1  0.48298198  0.92451028  0.12640191  1  0  -0.443222  0  3.211037  0  0  -0.390612  0  3.46387  0  0  -0.404822  0  3.480475  0  0  -0.402796  -0.380981  0  3.4525  0
O  O96  1  0.27132767  0.27014426  0.71765959  1  0  -0.689458  0  2.144083  0  0  -0.609351  0  2.39347  0  0  -0.629084  0  2.383673  0  0  -0.338386  -0.594338  0  2.399622  0
O  O97  1  0.72867314  0.72985579  0.28234306  1  0  -0.689488  0  2.144242  0  0  -0.609365  0  2.393644  0  0  -0.629098  0  2.383848  0  0  -0.338362  -0.594353  0  2.399793  0
O  O98  1  0.26672452  0.99521317  0.67864196  1  0  -0.746085  0  2.146561  0  0  -0.663485  0  2.404457  0  0  -0.681406  0  2.391571  0  0  -0.404016  -0.650133  0  2.413645  0
O  O99  1  0.73327166  0.00478585  0.32135772  1  0  -0.746087  0  2.146463  0  0  -0.663507  0  2.40434  0  0  -0.681429  0  2.391459  0  0  -0.404026  -0.650153  0  2.413529  0
