# generated using pymatgen
data_CdH16C19N4O5
_symmetry_space_group_name_H-M   'P 1'
_cell_length_a   8.45372532
_cell_length_b   10.20379885
_cell_length_c   12.54072695
_cell_angle_alpha   109.01109166
_cell_angle_beta   103.73250633
_cell_angle_gamma   98.64725561
_symmetry_Int_Tables_number   1
_chemical_formula_structural   CdH16C19N4O5
_chemical_formula_sum   'Cd2 H32 C38 N8 O10'
_cell_volume   962.51144262
_cell_formula_units_Z   2
loop_
 _symmetry_equiv_pos_site_id
 _symmetry_equiv_pos_as_xyz
  1  'x, y, z'
loop_
 _atom_site_type_symbol
 _atom_site_label
 _atom_site_symmetry_multiplicity
 _atom_site_fract_x
 _atom_site_fract_y
 _atom_site_fract_z
 _atom_site_occupancy
 _atom_site_hle17_bader_spin_density
 _atom_site_hle17_ddec_charge
 _atom_site_hle17_ddec_spin_density
 _atom_site_hle17_ddec_sum_bond_order
 _atom_site_hle17_magmom
 _atom_site_hse06_10hf_bader_spin_density
 _atom_site_hse06_10hf_ddec_charge
 _atom_site_hse06_10hf_ddec_spin_density
 _atom_site_hse06_10hf_ddec_sum_bond_order
 _atom_site_hse06_10hf_magmom
 _atom_site_hse06_bader_spin_density
 _atom_site_hse06_ddec_charge
 _atom_site_hse06_ddec_spin_density
 _atom_site_hse06_ddec_sum_bond_order
 _atom_site_hse06_magmom
 _atom_site_pbe_bader_spin_density
 _atom_site_pbe_cm5_charge
 _atom_site_pbe_ddec_charge
 _atom_site_pbe_ddec_spin_density
 _atom_site_pbe_ddec_sum_bond_order
 _atom_site_pbe_magmom
Cd  Cd0  1  0.84322669  0.88075409  0.29835856  1  0  1.127985  0  1.690767  0  0  0.941537  0  2.134974  0  0  0.998182  0  2.083175  0  0  0.769304  0.898893  0  2.172037  0
Cd  Cd1  1  0.15677724  0.11924550  0.70164015  1  0  1.127969  0  1.690803  0  0  0.941536  0  2.134985  0  0  0.998178  0  2.083191  0  0  0.76929  0.898888  0  2.172045  0
H  H2  1  0.13491641  0.09362713  0.43702044  1  0  0.4288  0  0.872843  0  0  0.397871  0  0.937172  0  0  0.409436  0  0.920328  0  0  0.289431  0.389685  0  0.949076  0
H  H3  1  0.86510216  0.90636143  0.56296956  1  0  0.428636  0  0.873057  0  0  0.397686  0  0.937423  0  0  0.409252  0  0.920578  0  0  0.289293  0.3895  0  0.949329  0
H  H4  1  0.19010346  0.95975559  0.44701667  1  0  0.420946  0  0.887991  0  0  0.388773  0  0.954583  0  0  0.399904  0  0.938412  0  0  0.283089  0.380824  0  0.966169  0
H  H5  1  0.80989669  0.04022929  0.55298205  1  0  0.420875  0  0.88807  0  0  0.388719  0  0.954625  0  0  0.399849  0  0.938455  0  0  0.283051  0.380777  0  0.966198  0
H  H6  1  0.13939835  0.70030071  0.96155975  1  0  0.321264  0  0.846137  0  0  0.314843  0  0.887269  0  0  0.321393  0  0.88293  0  0  0.343178  0.310175  0  0.890427  0
H  H7  1  0.86059629  0.29970254  0.03843063  1  0  0.321224  0  0.846166  0  0  0.314842  0  0.887253  0  0  0.321391  0  0.882913  0  0  0.343198  0.310172  0  0.890413  0
H  H8  1  0.42656990  0.89806678  0.29575890  1  0  0.11605  0  0.924074  0  0  0.125813  0  0.984448  0  0  0.12864  0  0.981063  0  0  0.143331  0.123571  0  0.987083  0
H  H9  1  0.57341406  0.10192373  0.70424625  1  0  0.116086  0  0.924073  0  0  0.125852  0  0.984447  0  0  0.12868  0  0.98106  0  0  0.14336  0.123629  0  0.987054  0
H  H10  1  0.60056622  0.55928569  0.10319052  1  0  0.104998  0  0.974613  0  0  0.112781  0  1.037976  0  0  0.115481  0  1.036634  0  0  0.114918  0.110827  0  1.038974  0
H  H11  1  0.39943849  0.44073587  0.89679034  1  0  0.105072  0  0.974472  0  0  0.112823  0  1.037888  0  0  0.115531  0  1.036533  0  0  0.114901  0.11087  0  1.038887  0
H  H12  1  0.25473879  0.46454472  0.05693227  1  0  0.11438  0  0.987486  0  0  0.120461  0  1.055198  0  0  0.122754  0  1.055233  0  0  0.11823  0.118522  0  1.055819  0
H  H13  1  0.74526702  0.53546730  0.94303049  1  0  0.114337  0  0.987507  0  0  0.120379  0  1.055294  0  0  0.122673  0  1.055327  0  0  0.118164  0.118438  0  1.055922  0
H  H14  1  0.12643818  0.74566858  0.27139218  1  0  0.126179  0  0.925327  0  0  0.140019  0  0.984525  0  0  0.141526  0  0.983513  0  0  0.131995  0.13877  0  0.985513  0
H  H15  1  0.87354239  0.25430489  0.72859250  1  0  0.126156  0  0.925527  0  0  0.139956  0  0.98472  0  0  0.141464  0  0.983709  0  0  0.132025  0.138707  0  0.98571  0
H  H16  1  0.05474838  0.57301144  0.16371750  1  0  0.122614  0  0.910432  0  0  0.133255  0  0.972366  0  0  0.136421  0  0.969567  0  0  0.124248  0.131041  0  0.974427  0
H  H17  1  0.94524603  0.42696760  0.83625511  1  0  0.122589  0  0.910447  0  0  0.133197  0  0.972374  0  0  0.136364  0  0.969572  0  0  0.124156  0.13098  0  0.974442  0
H  H18  1  0.97823461  0.80209775  0.77873916  1  0  0.128925  0  0.955  0  0  0.137014  0  1.016696  0  0  0.140945  0  1.013866  0  0  0.108045  0.134183  0  1.018692  0
H  H19  1  0.02174557  0.19790978  0.22125276  1  0  0.12888  0  0.954946  0  0  0.136917  0  1.016704  0  0  0.140839  0  1.013901  0  0  0.108043  0.134093  0  1.018679  0
H  H20  1  0.74255914  0.91392354  0.73464278  1  0  0.094616  0  0.971086  0  0  0.104433  0  1.034601  0  0  0.107309  0  1.03297  0  0  0.096406  0.102268  0  1.035994  0
H  H21  1  0.25743593  0.08610063  0.26536302  1  0  0.094648  0  0.971017  0  0  0.104398  0  1.034629  0  0  0.107272  0  1.033  0  0  0.096374  0.102236  0  1.03602  0
H  H22  1  0.56852127  0.97318100  0.86856112  1  0  0.083016  0  0.969826  0  0  0.092862  0  1.034441  0  0  0.09527  0  1.033684  0  0  0.093902  0.091023  0  1.035189  0
H  H23  1  0.43145986  0.02681349  0.13144061  1  0  0.083051  0  0.969923  0  0  0.092936  0  1.034492  0  0  0.095318  0  1.03376  0  0  0.093935  0.091094  0  1.035247  0
H  H24  1  0.63478634  0.93213158  0.05961129  1  0  0.105878  0  0.960658  0  0  0.115334  0  1.024082  0  0  0.118421  0  1.022196  0  0  0.102036  0.113219  0  1.025233  0
H  H25  1  0.36520312  0.06786284  0.94038912  1  0  0.105878  0  0.960692  0  0  0.115337  0  1.024111  0  0  0.118424  0  1.022232  0  0  0.102036  0.11322  0  1.025263  0
H  H26  1  0.84022357  0.36092599  0.30714718  1  0  0.100007  0  0.955251  0  0  0.105946  0  1.024402  0  0  0.110878  0  1.01938  0  0  0.100183  0.102356  0  1.02812  0
H  H27  1  0.15979220  0.63906833  0.69286781  1  0  0.099952  0  0.955187  0  0  0.105913  0  1.024339  0  0  0.110844  0  1.019317  0  0  0.100149  0.10233  0  1.028051  0
H  H28  1  0.73320727  0.69330517  0.57342217  1  0  0.090369  0  0.962652  0  0  0.101071  0  1.026087  0  0  0.104093  0  1.023917  0  0  0.102892  0.099042  0  1.027335  0
H  H29  1  0.26680215  0.30670006  0.42658259  1  0  0.090446  0  0.962627  0  0  0.101089  0  1.026111  0  0  0.104143  0  1.023903  0  0  0.102916  0.099062  0  1.027356  0
H  H30  1  0.64000347  0.51924272  0.65948589  1  0  0.089605  0  0.950048  0  0  0.099756  0  1.008039  0  0  0.102625  0  1.008414  0  0  0.098248  0.097756  0  1.007821  0
H  H31  1  0.35997051  0.48076297  0.34051038  1  0  0.089573  0  0.950009  0  0  0.099705  0  1.008038  0  0  0.102569  0  1.00841  0  0  0.098242  0.097707  0  1.007819  0
H  H32  1  0.64506688  0.26268506  0.56620890  1  0  0.088898  0  0.960159  0  0  0.097623  0  1.025317  0  0  0.101122  0  1.022352  0  0  0.098594  0.09521  0  1.027264  0
H  H33  1  0.35494110  0.73732172  0.43380404  1  0  0.088934  0  0.960002  0  0  0.097638  0  1.025195  0  0  0.101138  0  1.022228  0  0  0.09858  0.095218  0  1.027149  0
C  C34  1  0.42834152  0.79507414  0.23448509  1  0  0.166627  0  3.633053  0  0  0.105211  0  3.901055  0  0  0.118841  0  3.913712  0  0  0.146656  0.096179  0  3.892492  0
C  C35  1  0.57164786  0.20491937  0.76551748  1  0  0.166644  0  3.632808  0  0  0.105218  0  3.900855  0  0  0.118849  0  3.913508  0  0  0.146734  0.096172  0  3.892287  0
C  C36  1  0.51123575  0.61648152  0.13235479  1  0  0.014559  0  3.760252  0  0  -0.018292  0  4.019757  0  0  -0.015571  0  4.039197  0  0  -0.001514  -0.020094  0  4.006504  0
C  C37  1  0.48876323  0.38352568  0.86763150  1  0  0.014382  0  3.760333  0  0  -0.01845  0  4.019839  0  0  -0.015734  0  4.039277  0  0  -0.001444  -0.020251  0  4.006584  0
C  C38  1  0.34141582  0.56818465  0.10948242  1  0  -0.090496  0  3.681641  0  0  -0.126457  0  3.936474  0  0  -0.125602  0  3.954971  0  0  -0.007927  -0.127158  0  3.924609  0
C  C39  1  0.65858450  0.43182519  0.89049588  1  0  -0.090385  0  3.681854  0  0  -0.126308  0  3.936627  0  0  -0.125449  0  3.955127  0  0  -0.007873  -0.12701  0  3.924766  0
C  C40  1  0.12129489  0.68239360  0.18094821  1  0  -0.112177  0  3.67729  0  0  -0.17397  0  3.926593  0  0  -0.171971  0  3.933664  0  0  -0.037333  -0.175438  0  3.92196  0
C  C41  1  0.87869830  0.31758802  0.81903205  1  0  -0.112113  0  3.677402  0  0  -0.173712  0  3.926452  0  0  -0.171724  0  3.933541  0  0  -0.037231  -0.175182  0  3.921812  0
C  C42  1  0.02429486  0.74090096  0.09881688  1  0  0.38328  0  3.712904  0  0  0.347098  0  4.003227  0  0  0.365125  0  4.015092  0  0  0.230598  0.335293  0  3.994583  0
C  C43  1  0.97569938  0.25909600  0.90117356  1  0  0.383388  0  3.712898  0  0  0.34716  0  4.003256  0  0  0.365186  0  4.015116  0  0  0.23058  0.33536  0  3.994603  0
C  C44  1  0.93038759  0.79718255  0.94129382  1  0  0.149421  0  3.797683  0  0  0.142241  0  4.045519  0  0  0.145799  0  4.068143  0  0  0.091562  0.13974  0  4.030714  0
C  C45  1  0.06961235  0.20282963  0.05870497  1  0  0.149375  0  3.797404  0  0  0.142318  0  4.045089  0  0  0.145877  0  4.067704  0  0  0.091508  0.139816  0  4.030288  0
C  C46  1  0.90061207  0.82492527  0.83740433  1  0  -0.145689  0  3.718753  0  0  -0.16208  0  3.968393  0  0  -0.165321  0  3.988678  0  0  -0.090431  -0.160021  0  3.955138  0
C  C47  1  0.09938916  0.17508698  0.16259544  1  0  -0.145666  0  3.71884  0  0  -0.162055  0  3.968491  0  0  -0.165299  0  3.988762  0  0  -0.090414  -0.159992  0  3.955241  0
C  C48  1  0.76839518  0.88873883  0.81414869  1  0  -0.063065  0  3.756773  0  0  -0.082138  0  4.015567  0  0  -0.084931  0  4.039489  0  0  -0.098054  -0.080373  0  3.999468  0
C  C49  1  0.23160074  0.11128423  0.18585616  1  0  -0.062869  0  3.757004  0  0  -0.081877  0  4.015763  0  0  -0.084665  0  4.039685  0  0  -0.097909  -0.080115  0  3.999669  0
C  C50  1  0.67147602  0.92469650  0.89172071  1  0  -0.085482  0  3.802483  0  0  -0.103432  0  4.061439  0  0  -0.106008  0  4.084993  0  0  -0.103583  -0.10155  0  4.045296  0
C  C51  1  0.32852164  0.07531921  0.10828422  1  0  -0.085714  0  3.802875  0  0  -0.103688  0  4.061822  0  0  -0.106241  0  4.08538  0  0  -0.103704  -0.101806  0  4.045683  0
C  C52  1  0.70484256  0.90059503  0.99693704  1  0  -0.136705  0  3.745692  0  0  -0.15619  0  3.993648  0  0  -0.158546  0  4.013588  0  0  -0.09558  -0.154397  0  3.97978  0
C  C53  1  0.29515540  0.09941318  0.00306535  1  0  -0.136629  0  3.745911  0  0  -0.156146  0  3.993932  0  0  -0.158506  0  4.013872  0  0  -0.095549  -0.154352  0  3.980062  0
C  C54  1  0.83630698  0.83573530  0.02116816  1  0  0.141966  0  3.839874  0  0  0.142007  0  4.082912  0  0  0.144859  0  4.107749  0  0  0.084856  0.140035  0  4.066155  0
C  C55  1  0.16369446  0.16427710  0.97883408  1  0  0.141889  0  3.839829  0  0  0.141895  0  4.082882  0  0  0.144747  0  4.107719  0  0  0.084794  0.139922  0  4.066124  0
C  C56  1  0.76096972  0.14618243  0.38309612  1  0  0.641282  0  3.92726  0  0  0.589935  0  4.218979  0  0  0.624266  0  4.213358  0  0  0.195723  0.566858  0  4.221474  0
C  C57  1  0.23904104  0.85381865  0.61694300  1  0  0.641405  0  3.927438  0  0  0.589891  0  4.219401  0  0  0.624225  0  4.213772  0  0  0.195795  0.566811  0  4.221905  0
C  C58  1  0.74744751  0.29695050  0.43323308  1  0  -0.075815  0  3.773132  0  0  -0.049053  0  4.005514  0  0  -0.059491  0  4.030275  0  0  -0.0228  -0.04254  0  3.989167  0
C  C59  1  0.25256016  0.70305435  0.56678256  1  0  -0.075869  0  3.773229  0  0  -0.049086  0  4.005688  0  0  -0.059528  0  4.030456  0  0  -0.022941  -0.042572  0  3.989339  0
C  C60  1  0.79651663  0.39515000  0.38428315  1  0  -0.057699  0  3.706428  0  0  -0.092992  0  3.949707  0  0  -0.089962  0  3.968489  0  0  -0.07518  -0.094702  0  3.937637  0
C  C61  1  0.20350617  0.60485277  0.61573236  1  0  -0.057572  0  3.706189  0  0  -0.092855  0  3.949481  0  0  -0.089827  0  3.968272  0  0  -0.075038  -0.094569  0  3.937405  0
C  C62  1  0.79145898  0.53790526  0.43420416  1  0  -0.0705  0  3.755117  0  0  -0.042572  0  3.98505  0  0  -0.052547  0  4.009129  0  0  -0.019746  -0.036352  0  3.969276  0
C  C63  1  0.20856447  0.46209711  0.56580495  1  0  -0.070597  0  3.75534  0  0  -0.042722  0  3.985326  0  0  -0.052697  0  4.009413  0  0  -0.019798  -0.036499  0  3.969551  0
C  C64  1  0.73794987  0.58232166  0.53491881  1  0  -0.046645  0  3.716905  0  0  -0.075321  0  3.966303  0  0  -0.072523  0  3.985409  0  0  -0.076651  -0.076663  0  3.952857  0
C  C65  1  0.26205196  0.41767730  0.46508667  1  0  -0.046779  0  3.717176  0  0  -0.075401  0  3.966611  0  0  -0.072622  0  3.985696  0  0  -0.076753  -0.076744  0  3.953169  0
C  C66  1  0.68608039  0.48433059  0.58324012  1  0  -0.083695  0  3.779416  0  0  -0.093207  0  4.033361  0  0  -0.098657  0  4.055854  0  0  -0.094813  -0.089679  0  4.017878  0
C  C67  1  0.31391397  0.51566733  0.41676575  1  0  -0.083683  0  3.779211  0  0  -0.093186  0  4.033155  0  0  -0.098627  0  4.055646  0  0  -0.094806  -0.08966  0  4.017675  0
C  C68  1  0.68929235  0.34181542  0.53193665  1  0  -0.051751  0  3.714479  0  0  -0.078559  0  3.963015  0  0  -0.076097  0  3.982183  0  0  -0.082671  -0.079707  0  3.949767  0
C  C69  1  0.31071626  0.65818924  0.46807586  1  0  -0.051648  0  3.714363  0  0  -0.078412  0  3.962854  0  0  -0.075951  0  3.982027  0  0  -0.08253  -0.079553  0  3.949602  0
C  C70  1  0.83838464  0.63936434  0.37664939  1  0  0.64681  0  3.920436  0  0  0.59643  0  4.212187  0  0  0.630552  0  4.206509  0  0  0.195959  0.573195  0  4.21527  0
C  C71  1  0.16162632  0.36061623  0.62334732  1  0  0.646852  0  3.920457  0  0  0.596538  0  4.212128  0  0  0.630657  0  4.206439  0  0  0.196059  0.573296  0  4.215218  0
N  N72  1  0.56292754  0.75725957  0.20958223  1  0  -0.376078  0  3.257171  0  0  -0.304335  0  3.539572  0  0  -0.32488  0  3.556945  0  0  -0.352868  -0.290176  0  3.527473  0
N  N73  1  0.43706968  0.24274554  0.79042092  1  0  -0.375947  0  3.25719  0  0  -0.304218  0  3.53957  0  0  -0.324762  0  3.556947  0  0  -0.352872  -0.290061  0  3.527473  0
N  N74  1  0.29060222  0.68278030  0.17490041  1  0  -0.055843  0  3.602572  0  0  0.035156  0  3.82328  0  0  0.020574  0  3.849813  0  0  -0.246497  0.044791  0  3.805311  0
N  N75  1  0.70938809  0.31721987  0.82509107  1  0  -0.055987  0  3.602521  0  0  0.034958  0  3.823247  0  0  0.020376  0  3.849775  0  0  -0.246687  0.044592  0  3.805283  0
N  N76  1  0.89959320  0.80033062  0.11827736  1  0  -0.470216  0  3.138498  0  0  -0.407558  0  3.416253  0  0  -0.429844  0  3.430515  0  0  -0.346776  -0.391763  0  3.405561  0
N  N77  1  0.10040652  0.19967197  0.88171912  1  0  -0.470188  0  3.138376  0  0  -0.407542  0  3.416176  0  0  -0.429828  0  3.43044  0  0  -0.346752  -0.391747  0  3.40548  0
N  N78  1  0.04692287  0.73520859  0.99297135  1  0  -0.391461  0  3.35509  0  0  -0.34129  0  3.596287  0  0  -0.357699  0  3.606179  0  0  -0.37644  -0.330198  0  3.589302  0
N  N79  1  0.95306789  0.26479361  0.00701908  1  0  -0.391493  0  3.354985  0  0  -0.341404  0  3.5962  0  0  -0.357804  0  3.606079  0  0  -0.376425  -0.330315  0  3.58922  0
O  O80  1  0.81891439  0.10851898  0.29554558  1  0  -0.639226  0  1.950122  0  0  -0.576703  0  2.191369  0  0  -0.605147  0  2.182105  0  0  -0.330687  -0.556034  0  2.196235  0
O  O81  1  0.18111858  0.89146279  0.70450302  1  0  -0.639228  0  1.950011  0  0  -0.576714  0  2.191387  0  0  -0.605138  0  2.18208  0  0  -0.330717  -0.556043  0  2.19625  0
O  O82  1  0.71507647  0.05893825  0.43025606  1  0  -0.676559  0  1.995554  0  0  -0.610225  0  2.223712  0  0  -0.637166  0  2.211947  0  0  -0.336458  -0.590291  0  2.231378  0
O  O83  1  0.28488748  0.94106719  0.56977001  1  0  -0.676747  0  1.995867  0  0  -0.610295  0  2.224099  0  0  -0.637246  0  2.212327  0  0  -0.33649  -0.590356  0  2.231778  0
O  O84  1  0.85425224  0.59208612  0.27477429  1  0  -0.647766  0  1.914403  0  0  -0.601665  0  2.146364  0  0  -0.625775  0  2.137589  0  0  -0.339146  -0.584232  0  2.151427  0
O  O85  1  0.14574077  0.40788251  0.72521645  1  0  -0.647829  0  1.91467  0  0  -0.601752  0  2.146623  0  0  -0.625862  0  2.137849  0  0  -0.339189  -0.584328  0  2.15171  0
O  O86  1  0.85555504  0.77420841  0.43460381  1  0  -0.689708  0  2.065507  0  0  -0.61166  0  2.3102  0  0  -0.643465  0  2.299769  0  0  -0.336954  -0.588637  0  2.317184  0
O  O87  1  0.14445783  0.22577695  0.56538549  1  0  -0.689679  0  2.06554  0  0  -0.611651  0  2.310188  0  0  -0.643466  0  2.299792  0  0  -0.336987  -0.588626  0  2.317177  0
O  O88  1  0.13353922  0.99498533  0.38576595  1  0  -0.841865  0  1.845685  0  0  -0.779724  0  2.037862  0  0  -0.803158  0  2.004233  0  0  -0.59128  -0.763401  0  2.061592  0
O  O89  1  0.86648147  0.00500046  0.61423006  1  0  -0.841655  0  1.845878  0  0  -0.779481  0  2.038038  0  0  -0.802921  0  2.004416  0  0  -0.591068  -0.763159  0  2.06176  0
