# generated using pymatgen
data_CdH12(C6N5)2
_symmetry_space_group_name_H-M   'P 1'
_cell_length_a   7.62553529
_cell_length_b   8.95856987
_cell_length_c   13.93160064
_cell_angle_alpha   79.23816920
_cell_angle_beta   74.11615121
_cell_angle_gamma   64.82729717
_symmetry_Int_Tables_number   1
_chemical_formula_structural   CdH12(C6N5)2
_chemical_formula_sum   'Cd2 H24 C24 N20'
_cell_volume   825.74230737
_cell_formula_units_Z   2
loop_
 _symmetry_equiv_pos_site_id
 _symmetry_equiv_pos_as_xyz
  1  'x, y, z'
loop_
 _atom_site_type_symbol
 _atom_site_label
 _atom_site_symmetry_multiplicity
 _atom_site_fract_x
 _atom_site_fract_y
 _atom_site_fract_z
 _atom_site_occupancy
 _atom_site_hle17_bader_spin_density
 _atom_site_hle17_ddec_charge
 _atom_site_hle17_ddec_spin_density
 _atom_site_hle17_ddec_sum_bond_order
 _atom_site_hle17_magmom
 _atom_site_hse06_10hf_bader_spin_density
 _atom_site_hse06_10hf_ddec_charge
 _atom_site_hse06_10hf_ddec_spin_density
 _atom_site_hse06_10hf_ddec_sum_bond_order
 _atom_site_hse06_10hf_magmom
 _atom_site_hse06_bader_spin_density
 _atom_site_hse06_ddec_charge
 _atom_site_hse06_ddec_spin_density
 _atom_site_hse06_ddec_sum_bond_order
 _atom_site_hse06_magmom
 _atom_site_pbe_bader_spin_density
 _atom_site_pbe_cm5_charge
 _atom_site_pbe_ddec_charge
 _atom_site_pbe_ddec_spin_density
 _atom_site_pbe_ddec_sum_bond_order
 _atom_site_pbe_magmom
Cd  Cd0  1  0.00000422  0.49999997  0.99999877  1  0  1.152987  0  1.891537  0  0  0.962923  0  2.385757  0  0  1.010041  0  2.336846  0  0  0.827207  0.93002  0  2.418922  0
Cd  Cd1  1  0.49999972  0.00000796  0.49999751  1  0  1.153447  0  1.88905  0  0  0.963459  0  2.383148  0  0  1.010558  0  2.334262  0  0  0.827298  0.930565  0  2.416272  0
H  H2  1  0.61572586  0.38137487  0.01184415  1  0  0.099865  0  0.970762  0  0  0.109219  0  1.033904  0  0  0.111233  0  1.033275  0  0  0.113674  0.107731  0  1.034478  0
H  H3  1  0.00859487  0.11818608  0.48844064  1  0  0.099285  0  0.970949  0  0  0.108936  0  1.03386  0  0  0.110949  0  1.033229  0  0  0.113378  0.107489  0  1.034404  0
H  H4  1  0.38427585  0.61863006  0.98815306  1  0  0.099871  0  0.97074  0  0  0.109202  0  1.033906  0  0  0.111212  0  1.033282  0  0  0.113663  0.107737  0  1.034446  0
H  H5  1  0.99141175  0.88181270  0.51155896  1  0  0.099267  0  0.970938  0  0  0.108897  0  1.033884  0  0  0.110911  0  1.033251  0  0  0.11336  0.107449  0  1.034426  0
H  H6  1  0.65715223  0.13733254  0.89995392  1  0  0.115845  0  0.990327  0  0  0.120973  0  1.058019  0  0  0.123758  0  1.057088  0  0  0.116671  0.118975  0  1.058751  0
H  H7  1  0.69411904  0.36237014  0.60018362  1  0  0.11604  0  0.989702  0  0  0.120706  0  1.058035  0  0  0.123435  0  1.057183  0  0  0.116663  0.118731  0  1.058723  0
H  H8  1  0.34284845  0.86266996  0.10004558  1  0  0.115817  0  0.990353  0  0  0.120945  0  1.058041  0  0  0.123728  0  1.057112  0  0  0.116651  0.118948  0  1.058772  0
H  H9  1  0.30588184  0.63761387  0.39982129  1  0  0.116097  0  0.98968  0  0  0.120752  0  1.058011  0  0  0.123487  0  1.057162  0  0  0.116654  0.118776  0  1.058699  0
H  H10  1  0.21974354  0.14622443  0.87268084  1  0  0.091108  0  0.979125  0  0  0.093788  0  1.055861  0  0  0.096263  0  1.053143  0  0  0.12777  0.09202  0  1.057654  0
H  H11  1  0.23824800  0.35385152  0.62734504  1  0  0.090897  0  0.979247  0  0  0.093772  0  1.055895  0  0  0.096143  0  1.053319  0  0  0.127699  0.092054  0  1.057629  0
H  H12  1  0.78026236  0.85376823  0.12732269  1  0  0.09115  0  0.979056  0  0  0.093822  0  1.055801  0  0  0.096308  0  1.05306  0  0  0.1278  0.092057  0  1.057593  0
H  H13  1  0.76174643  0.64615106  0.37265926  1  0  0.090913  0  0.979296  0  0  0.093783  0  1.055932  0  0  0.096159  0  1.053361  0  0  0.127706  0.092063  0  1.057669  0
H  H14  1  0.21430711  0.94504259  0.77407936  1  0  0.104735  0  0.949917  0  0  0.124812  0  1.014111  0  0  0.124848  0  1.015374  0  0  0.108712  0.124652  0  1.013362  0
H  H15  1  0.93322836  0.55525712  0.72570308  1  0  0.105438  0  0.948998  0  0  0.125413  0  1.013277  0  0  0.12545  0  1.014507  0  0  0.10902  0.125263  0  1.012529  0
H  H16  1  0.78569460  0.05495007  0.22592427  1  0  0.104665  0  0.949903  0  0  0.12475  0  1.014106  0  0  0.124785  0  1.01537  0  0  0.108678  0.124591  0  1.013357  0
H  H17  1  0.06676554  0.44473065  0.27430408  1  0  0.105352  0  0.949085  0  0  0.125341  0  1.013363  0  0  0.125372  0  1.014586  0  0  0.109005  0.125193  0  1.012614  0
H  H18  1  0.98638144  0.00037414  0.73858913  1  0  0.105364  0  0.934388  0  0  0.125188  0  0.996481  0  0  0.125475  0  0.997374  0  0  0.105868  0.124862  0  0.99596  0
H  H19  1  0.72498576  0.50009497  0.76134695  1  0  0.106479  0  0.933679  0  0  0.126263  0  0.995881  0  0  0.126545  0  0.996776  0  0  0.106196  0.125975  0  0.995336  0
H  H20  1  0.01361838  0.99962466  0.26141180  1  0  0.105401  0  0.934398  0  0  0.125229  0  0.996482  0  0  0.125524  0  0.997366  0  0  0.105885  0.124902  0  0.995962  0
H  H21  1  0.27501004  0.49989645  0.23865642  1  0  0.106454  0  0.933696  0  0  0.12624  0  0.995906  0  0  0.126522  0  0.9968  0  0  0.106192  0.125953  0  0.995362  0
H  H22  1  0.04469893  0.85476811  0.84474818  1  0  0.102625  0  0.956539  0  0  0.119909  0  1.024964  0  0  0.119818  0  1.026488  0  0  0.103059  0.119855  0  1.024  0
H  H23  1  0.74415166  0.64533437  0.65498859  1  0  0.103377  0  0.955809  0  0  0.120749  0  1.024063  0  0  0.120646  0  1.025607  0  0  0.103344  0.120704  0  1.023093  0
H  H24  1  0.95530001  0.14523196  0.15525432  1  0  0.102575  0  0.95649  0  0  0.119869  0  1.024915  0  0  0.119775  0  1.026443  0  0  0.103036  0.119816  0  1.023952  0
H  H25  1  0.25584528  0.35465953  0.34501506  1  0  0.103365  0  0.955856  0  0  0.120712  0  1.024138  0  0  0.120608  0  1.025682  0  0  0.103325  0.120668  0  1.023165  0
C  C26  1  0.29175446  0.51861069  0.75988357  1  0  0.484071  0  4.010434  0  0  0.448947  0  4.29103  0  0  0.474231  0  4.301767  0  0  0.297327  0.431672  0  4.283546  0
C  C27  1  0.57005280  0.98152107  0.74011154  1  0  0.485309  0  4.009225  0  0  0.450049  0  4.289746  0  0  0.475357  0  4.300447  0  0  0.29758  0.432761  0  4.282278  0
C  C28  1  0.70823509  0.48140653  0.24010843  1  0  0.484324  0  4.010135  0  0  0.449212  0  4.290705  0  0  0.474494  0  4.301438  0  0  0.297363  0.431935  0  4.283227  0
C  C29  1  0.42995241  0.01848258  0.25988287  1  0  0.48556  0  4.00935  0  0  0.45032  0  4.289842  0  0  0.475626  0  4.300539  0  0  0.297745  0.433031  0  4.282381  0
C  C30  1  0.74765913  0.29740714  0.96582720  1  0  -0.005241  0  3.783702  0  0  -0.03935  0  4.051478  0  0  -0.037748  0  4.072544  0  0  -0.009134  -0.040374  0  4.0372  0
C  C31  1  0.01054409  0.20222830  0.53440977  1  0  -0.004988  0  3.778843  0  0  -0.03938  0  4.046839  0  0  -0.037787  0  4.067892  0  0  -0.009113  -0.040452  0  4.032583  0
C  C32  1  0.25234719  0.70259167  0.03417404  1  0  -0.005243  0  3.783716  0  0  -0.039339  0  4.051529  0  0  -0.037732  0  4.07259  0  0  -0.009098  -0.04038  0  4.037229  0
C  C33  1  0.98946532  0.79776307  0.46559097  1  0  -0.004967  0  3.778834  0  0  -0.039357  0  4.046831  0  0  -0.037764  0  4.067886  0  0  -0.009123  -0.040426  0  4.032572  0
C  C34  1  0.76559202  0.17637901  0.91159864  1  0  -0.074677  0  3.67268  0  0  -0.114972  0  3.928613  0  0  -0.113993  0  3.947881  0  0  -0.006055  -0.115563  0  3.915677  0
C  C35  1  0.85320075  0.32334977  0.58856033  1  0  -0.074284  0  3.667612  0  0  -0.114157  0  3.924102  0  0  -0.113132  0  3.943373  0  0  -0.006019  -0.114777  0  3.911196  0
C  C36  1  0.23441200  0.82361980  0.08840219  1  0  -0.074655  0  3.672618  0  0  -0.114933  0  3.928524  0  0  -0.113957  0  3.947798  0  0  -0.006074  -0.115526  0  3.915595  0
C  C37  1  0.14679431  0.67664166  0.41144376  1  0  -0.074347  0  3.667713  0  0  -0.114178  0  3.92414  0  0  -0.113164  0  3.943417  0  0  -0.005954  -0.114796  0  3.911235  0
C  C38  1  0.36439126  0.67427681  0.61653475  1  0  0.495339  0  3.993402  0  0  0.459722  0  4.272929  0  0  0.484812  0  4.284479  0  0  0.303325  0.442594  0  4.264855  0
C  C39  1  0.65500111  0.82567066  0.88341171  1  0  0.494147  0  3.990142  0  0  0.458443  0  4.269708  0  0  0.483513  0  4.281269  0  0  0.303106  0.441332  0  4.261621  0
C  C40  1  0.63560054  0.32574420  0.38346115  1  0  0.494917  0  3.993807  0  0  0.459296  0  4.273334  0  0  0.48438  0  4.284886  0  0  0.303074  0.442167  0  4.265259  0
C  C41  1  0.34499963  0.17432806  0.11658430  1  0  0.494159  0  3.990282  0  0  0.458469  0  4.269844  0  0  0.483536  0  4.281404  0  0  0.303062  0.441357  0  4.261761  0
C  C42  1  0.06053445  0.18054251  0.89525540  1  0  0.152496  0  3.671831  0  0  0.091495  0  3.936211  0  0  0.104848  0  3.950103  0  0  0.134645  0.082929  0  3.926475  0
C  C43  1  0.13593767  0.31942629  0.60481162  1  0  0.152575  0  3.671801  0  0  0.091429  0  3.93598  0  0  0.10484  0  3.949921  0  0  0.134031  0.082824  0  3.926185  0
C  C44  1  0.93947030  0.81945628  0.10474472  1  0  0.152523  0  3.671777  0  0  0.091535  0  3.936145  0  0  0.104887  0  3.950038  0  0  0.134617  0.082966  0  3.926413  0
C  C45  1  0.86405355  0.68057755  0.39519384  1  0  0.152478  0  3.67192  0  0  0.091343  0  3.9361  0  0  0.104743  0  3.950048  0  0  0.134025  0.08274  0  3.926307  0
C  C46  1  0.05725434  0.96749835  0.80259200  1  0  -0.166936  0  3.628746  0  0  -0.268782  0  3.869724  0  0  -0.26538  0  3.879931  0  0  -0.127625  -0.270774  0  3.862828  0
C  C47  1  0.82709742  0.53270472  0.69727746  1  0  -0.169717  0  3.627939  0  0  -0.271762  0  3.869741  0  0  -0.268338  0  3.879947  0  0  -0.128575  -0.273804  0  3.862806  0
C  C48  1  0.94274953  0.03249923  0.19740962  1  0  -0.166863  0  3.628683  0  0  -0.268733  0  3.869656  0  0  -0.265336  0  3.879863  0  0  -0.127591  -0.270724  0  3.862764  0
C  C49  1  0.17289577  0.46728672  0.30272714  1  0  -0.169677  0  3.62779  0  0  -0.271731  0  3.869669  0  0  -0.268296  0  3.87987  0  0  -0.128573  -0.273769  0  3.862727  0
N  N50  1  0.23351506  0.48751876  0.84551780  1  0  -0.596881  0  2.785397  0  0  -0.551217  0  3.060171  0  0  -0.572029  0  3.063905  0  0  -0.382732  -0.537004  0  3.057581  0
N  N51  1  0.56636608  0.01274103  0.65448551  1  0  -0.597808  0  2.783561  0  0  -0.552396  0  3.058815  0  0  -0.573188  0  3.062466  0  0  -0.383189  -0.538182  0  3.056264  0
N  N52  1  0.76647582  0.51249473  0.15447348  1  0  -0.597078  0  2.785357  0  0  -0.551426  0  3.060149  0  0  -0.57224  0  3.063881  0  0  -0.382805  -0.537211  0  3.057563  0
N  N53  1  0.43364748  0.98726757  0.34550885  1  0  -0.597968  0  2.78367  0  0  -0.552563  0  3.058915  0  0  -0.573357  0  3.062562  0  0  -0.383316  -0.538348  0  3.056369  0
N  N54  1  0.36047626  0.53629966  0.66427298  1  0  -0.467355  0  3.2987  0  0  -0.409892  0  3.553447  0  0  -0.433352  0  3.556836  0  0  -0.310228  -0.39356  0  3.550508  0
N  N55  1  0.56095050  0.96371113  0.83571754  1  0  -0.467626  0  3.298528  0  0  -0.409793  0  3.552958  0  0  -0.433334  0  3.556465  0  0  -0.310207  -0.393442  0  3.549994  0
N  N56  1  0.63952049  0.46372252  0.33571876  1  0  -0.467339  0  3.298499  0  0  -0.409878  0  3.553235  0  0  -0.43333  0  3.556622  0  0  -0.310113  -0.393543  0  3.550308  0
N  N57  1  0.43904535  0.03628264  0.16427913  1  0  -0.467742  0  3.298677  0  0  -0.409938  0  3.553126  0  0  -0.433476  0  3.556631  0  0  -0.310212  -0.393585  0  3.550169  0
N  N58  1  0.37411181  0.79286713  0.56608434  1  0  -0.594023  0  2.781063  0  0  -0.547245  0  3.055628  0  0  -0.56821  0  3.059988  0  0  -0.380376  -0.532915  0  3.052582  0
N  N59  1  0.73288393  0.70705795  0.93382861  1  0  -0.593242  0  2.777873  0  0  -0.546488  0  3.052223  0  0  -0.567438  0  3.056638  0  0  -0.380176  -0.532169  0  3.049142  0
N  N60  1  0.62587537  0.20716000  0.43390753  1  0  -0.593675  0  2.781406  0  0  -0.546874  0  3.055932  0  0  -0.567836  0  3.060294  0  0  -0.380211  -0.532544  0  3.052885  0
N  N61  1  0.26712029  0.29293830  0.06616795  1  0  -0.59325  0  2.778032  0  0  -0.546491  0  3.052367  0  0  -0.567442  0  3.056779  0  0  -0.380164  -0.532171  0  3.04929  0
N  N62  1  0.93237557  0.29898690  0.95482858  1  0  -0.404016  0  3.294773  0  0  -0.326756  0  3.576168  0  0  -0.347996  0  3.594622  0  0  -0.363924  -0.312176  0  3.563095  0
N  N63  1  0.18584100  0.20079813  0.54534504  1  0  -0.404638  0  3.290197  0  0  -0.327343  0  3.571554  0  0  -0.348552  0  3.589938  0  0  -0.363571  -0.312779  0  3.558533  0
N  N64  1  0.06762788  0.70101066  0.04517211  1  0  -0.404074  0  3.294826  0  0  -0.326814  0  3.57621  0  0  -0.348056  0  3.594665  0  0  -0.363931  -0.312234  0  3.563143  0
N  N65  1  0.81416139  0.79920444  0.45465815  1  0  -0.404624  0  3.290142  0  0  -0.327326  0  3.571481  0  0  -0.348534  0  3.589864  0  0  -0.363551  -0.312761  0  3.558458  0
N  N66  1  0.96514893  0.10336083  0.86727568  1  0  -0.018602  0  3.581836  0  0  0.082911  0  3.797435  0  0  0.068659  0  3.823997  0  0  -0.244537  0.092266  0  3.779352  0
N  N67  1  0.93542856  0.39657568  0.63277608  1  0  -0.018147  0  3.580056  0  0  0.083643  0  3.795488  0  0  0.069384  0  3.822029  0  0  -0.243849  0.093006  0  3.777425  0
N  N68  1  0.03485219  0.89663920  0.13272467  1  0  -0.018612  0  3.581762  0  0  0.082898  0  3.797359  0  0  0.068644  0  3.823924  0  0  -0.244518  0.092254  0  3.779278  0
N  N69  1  0.06456429  0.60342074  0.36723029  1  0  -0.018022  0  3.579863  0  0  0.083746  0  3.79529  0  0  0.069491  0  3.821831  0  0  -0.243871  0.093107  0  3.777231  0
