# generated using pymatgen
data_CuH6C6(NO2)2
_symmetry_space_group_name_H-M   'P 1'
_cell_length_a   7.74441790
_cell_length_b   8.24631250
_cell_length_c   8.05082349
_cell_angle_alpha   63.11899030
_cell_angle_beta   61.19868140
_cell_angle_gamma   62.00663326
_symmetry_Int_Tables_number   1
_chemical_formula_structural   CuH6C6(NO2)2
_chemical_formula_sum   'Cu2 H12 C12 N4 O8'
_cell_volume   380.48437378
_cell_formula_units_Z   2
loop_
 _symmetry_equiv_pos_site_id
 _symmetry_equiv_pos_as_xyz
  1  'x, y, z'
loop_
 _atom_site_type_symbol
 _atom_site_label
 _atom_site_symmetry_multiplicity
 _atom_site_fract_x
 _atom_site_fract_y
 _atom_site_fract_z
 _atom_site_occupancy
 _atom_site_pbe_cm5_charge
 _atom_site_pbe_ddec_charge
 _atom_site_pbe_ddec_spin_density
 _atom_site_pbe_ddec_sum_bond_order
 _atom_site_pbe_magmom
Cu  Cu0  1  0.99999694  0.00000070  0.49999808  1  0.73959  0.796534  -0.735726  2.2249  -0.575
Cu  Cu1  1  0.50000294  0.49999781  0.00000010  1  0.739762  0.799554  -0.735665  2.220467  -0.575
H  H2  1  0.09420541  0.78355014  0.96432472  1  0.107115  0.023659  -0.000401  1.028691  -0.001
H  H3  1  0.84303089  0.71589961  0.53516594  1  0.106965  0.023331  -0.0004  1.028347  -0.001
H  H4  1  0.90579933  0.21644598  0.03566696  1  0.107132  0.023659  -0.000401  1.028765  -0.001
H  H5  1  0.15697437  0.28409463  0.46483463  1  0.106954  0.023299  -0.0004  1.028338  -0.001
H  H6  1  0.56001455  0.04387791  0.58263870  1  0.127234  0.103447  -0.001347  1.018789  -0.002
H  H7  1  0.18631282  0.45560901  0.91804910  1  0.127218  0.10352  -0.001348  1.019542  -0.002
H  H8  1  0.43997178  0.95612736  0.41736500  1  0.127245  0.103439  -0.001346  1.018803  -0.002
H  H9  1  0.81368756  0.54438773  0.08196192  1  0.127222  0.103516  -0.001347  1.019601  -0.002
H  H10  1  0.20269081  0.24986250  0.75019788  1  0.116392  0.14126  -0.000897  1.027751  -0.001
H  H11  1  0.79729934  0.75014576  0.24980883  1  0.116444  0.14131  -0.000897  1.027696  -0.001
H  H12  1  0.83159690  0.24931184  0.75069984  1  0.134589  0.085543  -0.001178  1.053217  -0.002
H  H13  1  0.16840465  0.75068604  0.24929632  1  0.134606  0.085609  -0.001178  1.053155  -0.002
C  C14  1  0.20951348  0.84688990  0.83188777  1  0.132591  0.479869  0.003207  4.207055  0.004
C  C15  1  0.88882469  0.65270232  0.66768331  1  0.131933  0.479569  0.003192  4.207959  0.004
C  C16  1  0.79049254  0.15310935  0.16810841  1  0.132565  0.479797  0.003207  4.207178  0.004
C  C17  1  0.11117663  0.34729968  0.33231588  1  0.13195  0.479645  0.003191  4.20793  0.004
C  C18  1  0.53833747  0.13651889  0.65816468  1  0.078033  0.159029  0.004157  3.840264  0.002
C  C19  1  0.33288421  0.36288247  0.84259161  1  0.077691  0.158482  0.004135  3.844596  0.002
C  C20  1  0.46166472  0.86348171  0.34182854  1  0.07803  0.158998  0.004155  3.840453  0.002
C  C21  1  0.66712215  0.63711697  0.15741051  1  0.077702  0.158539  0.004138  3.844066  0.002
C  C22  1  0.34308312  0.24976530  0.75032129  1  -0.070223  -0.148213  -0.00745  3.867125  -0.009
C  C23  1  0.65690553  0.75024831  0.24968400  1  -0.070276  -0.148255  -0.007447  3.867284  -0.009
C  C24  1  0.69101929  0.24948144  0.75059235  1  0.187817  0.23732  0.004022  3.901696  0.003
C  C25  1  0.30898604  0.75051510  0.24940230  1  0.187787  0.237135  0.004018  3.901981  0.003
N  N26  1  0.71174514  0.13949911  0.65645433  1  -0.336249  -0.250545  -0.05515  3.551747  -0.072
N  N27  1  0.50754438  0.35966895  0.84453792  1  -0.335471  -0.251262  -0.055104  3.553099  -0.072
N  N28  1  0.28824654  0.86050178  0.34354336  1  -0.336269  -0.250452  -0.055151  3.55158  -0.072
N  N29  1  0.49244334  0.64033303  0.15546871  1  -0.335461  -0.251232  -0.055104  3.552875  -0.072
O  O30  1  0.14913936  0.00364779  0.71045518  1  -0.327399  -0.548211  -0.011408  2.310357  -0.017
O  O31  1  0.86351664  0.49593564  0.78913951  1  -0.3275  -0.549208  -0.011396  2.313204  -0.017
O  O32  1  0.85087235  0.99635162  0.28954099  1  -0.327373  -0.548157  -0.011408  2.310398  -0.017
O  O33  1  0.13648461  0.50405970  0.21086554  1  -0.327515  -0.54923  -0.011394  2.313298  -0.017
O  O34  1  0.40294584  0.75227987  0.81091928  1  -0.335696  -0.523561  -0.068478  2.382685  -0.098
O  O35  1  0.96646488  0.74742314  0.68875643  1  -0.33471  -0.522085  -0.068464  2.383033  -0.098
O  O36  1  0.59706052  0.24771522  0.18908279  1  -0.335717  -0.523537  -0.06847  2.38267  -0.098
O  O37  1  0.03353324  0.25257625  0.31124719  1  -0.334708  -0.522115  -0.068467  2.382954  -0.098
