# generated using pymatgen
data_ZnH18C17NO4
_symmetry_space_group_name_H-M   'P 1'
_cell_length_a   9.66090222
_cell_length_b   11.03603988
_cell_length_c   16.02285363
_cell_angle_alpha   89.05772156
_cell_angle_beta   88.47528008
_cell_angle_gamma   91.48997970
_symmetry_Int_Tables_number   1
_chemical_formula_structural   ZnH18C17NO4
_chemical_formula_sum   'Zn2 H36 C34 N2 O8'
_cell_volume   1706.89295023
_cell_formula_units_Z   2
loop_
 _symmetry_equiv_pos_site_id
 _symmetry_equiv_pos_as_xyz
  1  'x, y, z'
loop_
 _atom_site_type_symbol
 _atom_site_label
 _atom_site_symmetry_multiplicity
 _atom_site_fract_x
 _atom_site_fract_y
 _atom_site_fract_z
 _atom_site_occupancy
 _atom_site_pbe_bader_charge
 _atom_site_pbe_bader_spin_density
 _atom_site_pbe_cm5_charge
 _atom_site_pbe_ddec_charge
 _atom_site_pbe_ddec_spin_density
 _atom_site_pbe_ddec_sum_bond_order
 _atom_site_pbe_magmom
Zn  Zn0  1  0.63529273  0.49807510  0.49351591  1  1.27959  0  0.660331  0.837361  0  2.470599  0
Zn  Zn1  1  0.35432367  0.51039830  0.50033009  1  1.282581  0  0.662029  0.837051  0  2.470458  0
H  H2  1  0.70876873  0.54957726  0.08121936  1  0.016382  0  0.09448  0.097381  0  0.981538  0
H  H3  1  0.09057115  0.59015281  0.49687347  1  0.415476  0  0.321795  0.286223  0  0.90639  0
H  H4  1  0.27880126  0.45787472  0.05372321  1  0.029737  0  0.09691  0.072918  0  0.9923  0
H  H5  1  0.38937561  0.66178393  0.94230096  1  0.043071  0  0.094897  0.064181  0  1.00086  0
H  H6  1  0.63217221  0.34273470  0.05165355  1  0.030032  0  0.097138  0.070285  0  0.957487  0
H  H7  1  0.69408245  0.68830864  0.84817114  1  0.032412  0  0.087126  0.122048  0  1.0132  0
H  H8  1  0.58676743  0.75619193  0.92512270  1  0.027163  0  0.082396  0.107415  0  1.027302  0
H  H9  1  0.76314726  0.73195652  0.94559043  1  0.040502  0  0.088406  0.12312  0  0.993528  0
H  H10  1  0.28206149  0.06298032  0.34120372  1  0.034642  0  0.090532  0.125531  0  1.00166  0
H  H11  1  0.17695627  0.09251213  0.43018234  1  0.021506  0  0.093004  0.127508  0  0.989619  0
H  H12  1  0.29019520  0.20896710  0.38892485  1  0.09341  0  0.095033  0.147594  0  1.012057  0
H  H13  1  0.72332566  0.50914667  0.93970544  1  0.014657  0  0.094228  0.060169  0  0.974706  0
H  H14  1  0.71905978  0.87042872  0.38800919  1  0.053665  0  0.091544  0.130665  0  0.996329  0
H  H15  1  0.66462083  0.01905947  0.41551298  1  0.047757  0  0.089258  0.124467  0  1.01595  0
H  H16  1  0.73404642  0.91933787  0.49136628  1  0.049692  0  0.090671  0.12506  0  0.990849  0
H  H17  1  0.40968858  0.78427586  0.03153685  1  0.051791  0  0.094141  0.087528  0  1.039461  0
H  H18  1  0.31919926  0.94479541  0.12052183  1  0.073518  0  0.09602  0.092096  0  1.006771  0
H  H19  1  0.15176942  0.89409841  0.23788974  1  0.036368  0  0.095851  0.088831  0  1.010685  0
H  H20  1  0.07646980  0.67837416  0.26408203  1  0.017481  0  0.094506  0.08668  0  1.000079  0
H  H21  1  0.16951624  0.51649190  0.17550598  1  0.048912  0  0.098141  0.095833  0  1.002815  0
H  H22  1  0.21509436  0.43242876  0.90932736  1  0.022076  0  0.081971  0.106993  0  1.022213  0
H  H23  1  0.15120538  0.57657670  0.93533074  1  -0.018747  0  0.086797  0.121963  0  0.99919  0
H  H24  1  0.39722810  0.33140578  0.93223928  1  0.029026  0  0.095793  0.067563  0  0.975651  0
H  H25  1  0.24588306  0.55776354  0.83961022  1  0.037554  0  0.087305  0.125936  0  1.010681  0
H  H26  1  0.46003657  0.16954275  0.04902029  1  0.023804  0  0.085828  0.11587  0  1.008758  0
H  H27  1  0.45848644  0.24325784  0.14704125  1  0.045633  0  0.087209  0.122974  0  1.012422  0
H  H28  1  0.32471598  0.26862249  0.07519100  1  0.023777  0  0.083274  0.109342  0  1.02115  0
H  H29  1  0.58401997  0.28537838  0.83141706  1  0.034071  0  0.08724  0.1239  0  1.011579  0
H  H30  1  0.71226228  0.32223812  0.90514732  1  -0.00487  0  0.083299  0.108849  0  1.022069  0
H  H31  1  0.59907574  0.19506867  0.92360402  1  0.025125  0  0.086346  0.118404  0  1.004872  0
H  H32  1  0.55216036  0.09133410  0.54092285  1  0.066985  0  0.104846  0.130549  0  1.001553  0
H  H33  1  0.31114529  0.87950222  0.46513225  1  0.098617  0  0.101572  0.110594  0  1.009554  0
H  H34  1  0.85729226  0.38425606  0.59742902  1  0.142651  0  0.150705  0.123374  0  0.927331  0
H  H35  1  0.90293751  0.51647287  0.43867734  1  0.452613  0  0.321872  0.286504  0  0.907134  0
H  H36  1  0.11935584  0.34290682  0.56165672  1  0.161705  0  0.148995  0.123289  0  0.937325  0
H  H37  1  0.58951415  0.66594234  0.06857569  1  0.0106  0  0.092747  0.097223  0  1.003651  0
C  C38  1  0.51373445  0.73721449  0.47014581  1  1.54418  0  0.212652  0.584294  0  4.154895  0
C  C39  1  0.47304227  0.13505462  0.50460213  1  -0.011978  0  -0.104266  -0.316854  0  3.859432  0
C  C40  1  0.40724870  0.93414700  0.45907792  1  -0.108721  0  -0.081982  -0.168742  0  3.933999  0
C  C41  1  0.48680699  0.47717691  0.33543958  1  1.694256  0  0.215488  0.673726  0  4.243082  0
C  C42  1  0.52571868  0.87159404  0.45541665  1  0.000313  0  -0.01683  0.025983  0  3.923762  0
C  C43  1  0.91444630  0.42825463  0.54467876  1  0.753215  0  0.131083  0.177155  0  3.841506  0
C  C44  1  0.06740654  0.42476466  0.54073135  1  0.678478  0  0.129874  0.17551  0  3.838449  0
C  C45  1  0.47314139  0.26824119  0.51121043  1  1.542493  0  0.205863  0.646076  0  4.183167  0
C  C46  1  0.50954661  0.52100249  0.65949607  1  1.663496  0  0.215098  0.678335  0  4.240466  0
C  C47  1  0.61371703  0.57355118  0.04929144  1  0.009732  0  -0.155312  -0.234073  0  3.859215  0
C  C48  1  0.35400776  0.53423833  0.04581957  1  -0.010556  0  -0.072439  -0.092856  0  3.767775  0
C  C49  1  0.63544990  0.56780663  0.95358434  1  0.029616  0  -0.081191  0.03636  0  3.810644  0
C  C50  1  0.37161332  0.56358154  0.95114118  1  -0.007948  0  -0.078697  0.004963  0  3.794509  0
C  C51  1  0.51230485  0.51812557  0.74959154  1  -0.050635  0  -0.061283  -0.233837  0  3.969681  0
C  C52  1  0.49431610  0.48618862  0.07937480  1  0.195135  0  0.004572  0.118057  0  3.85621  0
C  C53  1  0.67163445  0.69288438  0.91554627  1  -0.098621  0  -0.244613  -0.392807  0  3.961146  0
C  C54  1  0.27993092  0.11118303  0.40076208  1  -0.061289  0  -0.238862  -0.416105  0  3.953023  0
C  C55  1  0.66809144  0.92416539  0.43647626  1  -0.067471  0  -0.24273  -0.39035  0  4.016345  0
C  C56  1  0.29644666  0.63729297  0.09654260  1  0.021459  0  -0.011274  0.087558  0  3.945295  0
C  C57  1  0.33695841  0.75914313  0.08250927  1  -0.150432  0  -0.098565  -0.144795  0  4.000702  0
C  C58  1  0.28565800  0.85082697  0.13288959  1  -0.050187  0  -0.100125  -0.088198  0  4.057942  0
C  C59  1  0.19197771  0.82258905  0.19857239  1  -0.077512  0  -0.101171  -0.099597  0  4.052421  0
C  C60  1  0.50545684  0.50340911  0.91596687  1  0.168659  0  0.004564  0.068412  0  3.810488  0
C  C61  1  0.14992945  0.70185900  0.21309824  1  0.03822  0  -0.095939  -0.074274  0  4.042  0
C  C62  1  0.20174249  0.61068071  0.16271460  1  -0.039778  0  -0.092253  -0.133094  0  3.990671  0
C  C63  1  0.23889890  0.53051573  0.90580761  1  -0.019134  0  -0.246181  -0.39351  0  3.961976  0
C  C64  1  0.43650794  0.25467329  0.08053296  1  -0.08554  0  -0.244893  -0.392123  0  3.968993  0
C  C65  1  0.60511281  0.28836567  0.89835310  1  -0.05197  0  -0.245167  -0.394921  0  3.970428  0
C  C66  1  0.50199790  0.36721242  0.94499859  1  0.013665  0  -0.079169  0.000171  0  3.789224  0
C  C67  1  0.52203266  0.35978016  0.04056141  1  0.010897  0  -0.077213  -0.00394  0  3.78997  0
C  C68  1  0.51058989  0.51198105  0.82547572  1  -0.337115  0  -0.017048  0.001856  0  4.024084  0
C  C69  1  0.49142009  0.47752788  0.16971420  1  -0.6137  0  -0.022654  -0.02155  0  4.040376  0
C  C70  1  0.48899615  0.47280079  0.24554601  1  0.218064  0  -0.059922  -0.218621  0  3.97921  0
C  C71  1  0.39152583  0.06544360  0.45606416  1  -0.012005  0  0.004684  0.22541  0  3.96812  0
N  N72  1  0.84510941  0.48051243  0.48831372  1  -1.198086  0  -0.429947  -0.369411  0  3.261707  0
N  N73  1  0.14332675  0.51404074  0.51330480  1  -1.169582  0  -0.428547  -0.367626  0  3.254423  0
O  O74  1  0.62546232  0.67830789  0.46312524  1  -1.159804  0  -0.321717  -0.543243  0  2.298929  0
O  O75  1  0.39482489  0.69083023  0.49048623  1  -1.172756  0  -0.32766  -0.559339  0  2.343297  0
O  O76  1  0.60084427  0.45689650  0.37101046  1  -1.147341  0  -0.325904  -0.557979  0  2.253519  0
O  O77  1  0.37187217  0.50204384  0.37116014  1  -1.146455  0  -0.318052  -0.546749  0  2.244533  0
O  O78  1  0.59010214  0.31898494  0.52634448  1  -1.168235  0  -0.331052  -0.570474  0  2.271901  0
O  O79  1  0.36009802  0.32406900  0.50169512  1  -1.167979  0  -0.319427  -0.563877  0  2.320209  0
O  O80  1  0.62551605  0.53459984  0.61992579  1  -1.140056  0  -0.325071  -0.562368  0  2.243995  0
O  O81  1  0.39078377  0.50871467  0.62746395  1  -1.147955  0  -0.32096  -0.555826  0  2.251603  0
