# generated using pymatgen
data_CuH4C10(N3O)2
_symmetry_space_group_name_H-M   'P 1'
_cell_length_a   6.74992015
_cell_length_b   10.15763587
_cell_length_c   15.59828920
_cell_angle_alpha   90.00042769
_cell_angle_beta   89.99957312
_cell_angle_gamma   89.99993450
_symmetry_Int_Tables_number   1
_chemical_formula_structural   CuH4C10(N3O)2
_chemical_formula_sum   'Cu4 H16 C40 N24 O8'
_cell_volume   1069.46910565
_cell_formula_units_Z   4
loop_
 _symmetry_equiv_pos_site_id
 _symmetry_equiv_pos_as_xyz
  1  'x, y, z'
loop_
 _atom_site_type_symbol
 _atom_site_label
 _atom_site_symmetry_multiplicity
 _atom_site_fract_x
 _atom_site_fract_y
 _atom_site_fract_z
 _atom_site_occupancy
 _atom_site_hle17_ddec_charge
 _atom_site_hle17_ddec_spin_density
 _atom_site_hle17_ddec_sum_bond_order
 _atom_site_hle17_magmom
 _atom_site_hse06_10hf_ddec_charge
 _atom_site_hse06_10hf_ddec_spin_density
 _atom_site_hse06_10hf_ddec_sum_bond_order
 _atom_site_hse06_10hf_magmom
 _atom_site_hse06_ddec_charge
 _atom_site_hse06_ddec_spin_density
 _atom_site_hse06_ddec_sum_bond_order
 _atom_site_hse06_magmom
 _atom_site_pbe_cm5_charge
 _atom_site_pbe_ddec_charge
 _atom_site_pbe_ddec_spin_density
 _atom_site_pbe_ddec_sum_bond_order
 _atom_site_pbe_magmom
Cu  Cu0  1  0.75000629  0.34137779  0.26266825  1  0.780917  -0.689297  1.901729  -0.489  0.753085  -0.78813  2.284374  -0.606  0.836808  -0.868422  2.224198  -0.692  0.773029  0.702762  -0.723239  2.326288  -0.544
Cu  Cu1  1  0.24999919  0.15862054  0.76266443  1  0.780957  -0.689315  1.901657  -0.489  0.753108  -0.788161  2.284317  -0.606  0.836824  -0.868442  2.224134  -0.692  0.773026  0.702788  -0.72326  2.326178  -0.544
Cu  Cu2  1  0.74999864  0.84137885  0.23733345  1  0.780882  0.689295  1.901715  0.489  0.753048  0.788153  2.284435  0.606  0.836778  0.868446  2.224245  0.692  0.772985  0.70265  0.723245  2.326393  0.544
Cu  Cu3  1  0.24999598  0.65862160  0.73733027  1  0.780918  0.689324  1.901761  0.489  0.753149  0.788152  2.2844  0.606  0.836875  0.868438  2.224218  0.692  0.772992  0.702802  0.723255  2.326295  0.544
H  H4  1  0.43613993  0.23396650  0.15121522  1  0.101638  -0.001515  0.931014  -0.002  0.1088  -0.001392  0.993632  -0.002  0.110044  -0.001026  0.992984  -0.002  0.129671  0.107694  -0.001736  0.994665  -0.002
H  H5  1  0.93612520  0.26603152  0.65121100  1  0.101587  -0.001518  0.93106  -0.002  0.108821  -0.001392  0.993642  -0.002  0.110068  -0.001025  0.992991  -0.002  0.129679  0.107708  -0.001735  0.994674  -0.002
H  H6  1  0.06387479  0.23396269  0.15121261  1  0.101653  -0.001514  0.931003  -0.002  0.108843  -0.001392  0.993592  -0.002  0.110085  -0.001026  0.992948  -0.002  0.129712  0.107734  -0.001736  0.994624  -0.002
H  H7  1  0.43612739  0.73396774  0.34878820  1  0.101622  0.001515  0.931034  0.002  0.108823  0.001393  0.993617  0.002  0.110068  0.001026  0.992967  0.002  0.129691  0.107715  0.001736  0.994648  0.002
H  H8  1  0.56386530  0.76603191  0.84878651  1  0.101568  0.001512  0.931092  0.002  0.108814  0.001393  0.993634  0.002  0.110057  0.001026  0.992984  0.002  0.129646  0.107705  0.001736  0.994669  0.002
H  H9  1  0.06386669  0.73396885  0.34878496  1  0.101633  0.001517  0.931107  0.002  0.108849  0.001392  0.993665  0.002  0.110093  0.001025  0.993016  0.002  0.129681  0.107739  0.001735  0.994697  0.002
H  H10  1  0.93613044  0.76603079  0.84878463  1  0.101639  0.001517  0.931069  0.002  0.108832  0.001393  0.993699  0.002  0.110075  0.001026  0.993051  0.002  0.129667  0.10772  0.001736  0.994733  0.002
H  H11  1  0.56386302  0.26602968  0.65121224  1  0.101615  -0.001517  0.931075  -0.002  0.108839  -0.001393  0.993624  -0.002  0.110086  -0.001026  0.99297  -0.002  0.129669  0.107727  -0.001736  0.994656  -0.002
H  H12  1  0.43843705  0.44569117  0.37982738  1  0.118089  -0.001531  0.909788  -0.002  0.125248  -0.001414  0.968774  -0.002  0.127635  -0.001034  0.966562  -0.002  0.137243  0.123047  -0.001767  0.971395  -0.003
H  H13  1  0.93843160  0.05431121  0.87982269  1  0.118123  -0.001525  0.909727  -0.002  0.125273  -0.001414  0.968716  -0.002  0.127674  -0.001034  0.966486  -0.002  0.137292  0.123056  -0.001767  0.971358  -0.003
H  H14  1  0.06156592  0.44568343  0.37982606  1  0.118181  -0.001524  0.909764  -0.002  0.125342  -0.001413  0.968753  -0.002  0.127731  -0.001034  0.966537  -0.002  0.137288  0.123157  -0.001766  0.971355  -0.003
H  H15  1  0.43843586  0.94568805  0.12017587  1  0.118156  0.001523  0.909801  0.002  0.125311  0.001413  0.968785  0.002  0.127711  0.001034  0.966556  0.002  0.1373  0.123096  0.001766  0.971426  0.003
H  H16  1  0.56156077  0.55429739  0.62017627  1  0.118155  0.001526  0.909627  0.002  0.125259  0.001414  0.968665  0.002  0.127645  0.001035  0.966455  0.002  0.137293  0.123067  0.001768  0.971279  0.003
H  H17  1  0.06156474  0.94568916  0.12017199  1  0.118091  0.001527  0.909761  0.002  0.125251  0.001414  0.968728  0.002  0.127636  0.001035  0.966518  0.002  0.137245  0.123045  0.001767  0.971356  0.003
H  H18  1  0.93843190  0.55430218  0.62017694  1  0.118241  0.001529  0.909732  0.002  0.125366  0.001413  0.968783  0.002  0.127753  0.001034  0.966573  0.002  0.137361  0.123198  0.001766  0.971366  0.003
H  H19  1  0.56156196  0.05430937  0.87982393  1  0.118134  -0.001526  0.9098  -0.002  0.125302  -0.001412  0.968764  -0.002  0.127689  -0.001034  0.966552  -0.002  0.137315  0.123093  -0.001765  0.971399  -0.003
C  C20  1  0.74999486  0.17045687  0.40392239  1  0.396093  0.005721  3.853398  0.012  0.375609  0.002045  4.139108  0.006  0.398861  0.001563  4.145833  0.005  0.208296  0.359904  0.002353  4.13332  0.007
C  C21  1  0.24999633  0.32955574  0.90392396  1  0.396277  0.005732  3.852966  0.012  0.375933  0.002043  4.138549  0.006  0.399206  0.001563  4.145235  0.005  0.208536  0.360214  0.002352  4.132801  0.007
C  C22  1  0.75000298  0.67045645  0.09608033  1  0.396328  -0.005721  3.853373  -0.012  0.375833  -0.002043  4.13908  -0.006  0.39909  -0.001561  4.145804  -0.005  0.208405  0.360135  -0.002352  4.133296  -0.007
C  C23  1  0.24999704  0.82954646  0.59607357  1  0.396003  -0.005724  3.853401  -0.012  0.375557  -0.002044  4.139103  -0.006  0.39881  -0.001562  4.145818  -0.005  0.208297  0.359834  -0.002352  4.133342  -0.007
C  C24  1  0.74998966  0.07629185  0.32978837  1  0.406112  -0.007028  3.883042  -0.008  0.374907  -0.002287  4.173396  -0.004  0.399787  -0.002428  4.177997  -0.004  0.20119  0.358668  -0.002175  4.169188  -0.003
C  C25  1  0.24999392  0.42371112  0.82979300  1  0.406159  -0.007023  3.882668  -0.008  0.37476  -0.00229  4.173263  -0.004  0.399637  -0.002426  4.177844  -0.004  0.201131  0.35853  -0.002174  4.169072  -0.003
C  C26  1  0.75000687  0.57629614  0.17021385  1  0.406021  0.007014  3.882802  0.008  0.374825  0.002293  4.173203  0.004  0.399697  0.002423  4.1778  0.004  0.201231  0.358582  0.002175  4.168998  0.003
C  C27  1  0.24999779  0.92370753  0.67020502  1  0.406147  0.007022  3.882851  0.008  0.374855  0.00229  4.173332  0.004  0.399734  0.002426  4.177921  0.004  0.201128  0.358623  0.002174  4.169131  0.003
C  C28  1  0.75000284  0.90319247  0.42992140  1  0.098198  0.005653  3.906539  0.004  0.089864  0.004186  4.170385  0.003  0.094847  0.003425  4.190597  0.002  0.10161  0.08685  0.004591  4.15661  0.003
C  C29  1  0.25000030  0.59681688  0.92992367  1  0.098579  0.00565  3.906312  0.004  0.090197  0.004187  4.170204  0.003  0.095184  0.003427  4.190416  0.002  0.101715  0.087183  0.004592  4.156449  0.003
C  C30  1  0.74999900  0.40318939  0.07008062  1  0.098222  -0.005655  3.906343  -0.004  0.089917  -0.004184  4.170188  -0.003  0.094899  -0.003428  4.190394  -0.002  0.101661  0.086915  -0.004591  4.156419  -0.003
C  C31  1  0.24999943  0.09680987  0.57007712  1  0.098443  -0.005654  3.906456  -0.004  0.090056  -0.004183  4.170367  -0.003  0.095036  -0.003426  4.190577  -0.002  0.101717  0.087047  -0.004591  4.156583  -0.003
C  C32  1  0.75000070  0.99462059  0.49673346  1  0.094483  0.000969  3.956109  0.001  0.087015  0.001094  4.218565  0.001  0.090827  0.00049  4.237241  0.0  0.102504  0.084585  0.00162  4.205607  0.002
C  C33  1  0.25000573  0.50539242  0.99673075  1  0.094169  0.000955  3.956388  0.001  0.086686  0.001094  4.218928  0.001  0.09049  0.00049  4.237614  0.0  0.10242  0.084238  0.001618  4.206009  0.002
C  C34  1  0.75000690  0.49461977  0.00327161  1  0.094571  -0.000963  3.956028  -0.001  0.087059  -0.001097  4.218533  -0.001  0.090871  -0.000488  4.237214  0.0  0.102503  0.084611  -0.00162  4.205609  -0.002
C  C35  1  0.24999861  0.00537683  0.50326570  1  0.09435  -0.000962  3.956194  -0.001  0.086916  -0.001095  4.218631  -0.001  0.09073  -0.000489  4.2373  0.0  0.1025  0.084471  -0.00162  4.205685  -0.002
C  C36  1  0.75001023  0.76582792  0.44666903  1  0.233986  0.001419  3.765038  0.002  0.212477  0.001205  4.061268  0.002  0.222323  0.000868  4.07617  0.001  0.177439  0.205381  0.001541  4.051365  0.002
C  C37  1  0.25001780  0.73418752  0.94666561  1  0.233779  0.001464  3.765172  0.002  0.212292  0.001202  4.061373  0.002  0.222134  0.000869  4.076274  0.001  0.177301  0.205194  0.001541  4.051492  0.002
C  C38  1  0.75000520  0.26581778  0.05333099  1  0.233725  -0.001505  3.765228  -0.002  0.212229  -0.001205  4.061419  -0.002  0.222079  -0.000872  4.076312  -0.001  0.177208  0.205129  -0.001542  4.051526  -0.002
C  C39  1  0.24998463  0.23417246  0.55332692  1  0.233879  -0.001448  3.765029  -0.002  0.212391  -0.001209  4.06126  -0.002  0.222239  -0.000872  4.07616  -0.001  0.17739  0.205286  -0.001541  4.051359  -0.002
C  C40  1  0.75000889  0.94840458  0.58283893  1  0.252273  0.001329  3.726283  0.002  0.243596  0.000804  4.003615  0.001  0.253646  0.000684  4.021127  0.001  0.185049  0.236336  0.000932  3.991949  0.001
C  C41  1  0.25000321  0.55159129  0.08284155  1  0.252557  0.00138  3.726035  0.002  0.243893  0.000805  4.003359  0.001  0.253944  0.000684  4.020875  0.001  0.185247  0.236645  0.000932  3.991716  0.001
C  C42  1  0.75000202  0.44840416  0.91716082  1  0.252248  -0.001336  3.726227  -0.002  0.243592  -0.000807  4.003567  -0.001  0.253637  -0.000685  4.021083  -0.001  0.185108  0.236336  -0.000932  3.991913  -0.001
C  C43  1  0.24998597  0.05159777  0.41716087  1  0.25237  -0.001314  3.726341  -0.002  0.243696  -0.000807  4.003634  -0.001  0.253744  -0.000685  4.021149  -0.001  0.185137  0.236446  -0.000931  3.991977  -0.001
C  C44  1  0.35280958  0.28284726  0.20174859  1  0.104838  -0.000667  3.635889  -0.001  0.074105  -0.002175  3.895217  -0.002  0.079335  -0.000923  3.910718  0.0  0.069161  0.070275  -0.003206  3.886344  -0.003
C  C45  1  0.85280086  0.21714938  0.70174667  1  0.104848  -0.000658  3.635853  -0.001  0.073986  -0.002176  3.895298  -0.002  0.079212  -0.000924  3.910802  0.0  0.069117  0.070162  -0.003205  3.886416  -0.003
C  C46  1  0.14719233  0.28284832  0.20174828  1  0.104692  -0.000693  3.635976  -0.001  0.07399  -0.002175  3.895338  -0.002  0.079218  -0.000927  3.910839  0.0  0.069111  0.070161  -0.003205  3.886461  -0.003
C  C47  1  0.35281124  0.78284797  0.29825087  1  0.104826  0.000678  3.635959  0.001  0.074077  0.002175  3.895355  0.002  0.079306  0.000921  3.910858  0.0  0.069166  0.070255  0.003204  3.886472  0.003
C  C48  1  0.64718973  0.71715311  0.79824929  1  0.104879  0.000726  3.635811  0.001  0.074096  0.002177  3.895281  0.002  0.079327  0.000925  3.910784  0.0  0.06917  0.070263  0.003206  3.886408  0.003
C  C49  1  0.14719103  0.78284804  0.29825185  1  0.10475  0.000658  3.635904  0.001  0.074005  0.002177  3.895275  0.002  0.079237  0.000921  3.910774  0.0  0.069131  0.070183  0.003205  3.88639  0.003
C  C50  1  0.85281438  0.71715009  0.79824896  1  0.104785  0.000633  3.635956  0.001  0.074026  0.002176  3.895369  0.002  0.079259  0.000921  3.910871  0.0  0.069131  0.070194  0.003205  3.886492  0.003
C  C51  1  0.64718806  0.21714847  0.70174893  1  0.104793  -0.000668  3.636174  -0.001  0.074035  -0.002174  3.895547  -0.002  0.079264  -0.000921  3.911051  0.0  0.06917  0.070207  -0.003204  3.886665  -0.003
C  C52  1  0.35315208  0.40111560  0.32812494  1  0.104269  -0.001378  3.606878  -0.002  0.074773  -0.002774  3.862393  -0.003  0.079944  -0.001399  3.87804  -0.001  0.073184  0.071172  -0.003924  3.85304  -0.004
C  C53  1  0.85314507  0.09888236  0.82812304  1  0.104335  -0.001414  3.607015  -0.002  0.074854  -0.002773  3.862521  -0.003  0.080012  -0.001403  3.878164  -0.001  0.073153  0.071259  -0.003923  3.85318  -0.004
C  C54  1  0.14685335  0.40111764  0.32812783  1  0.104364  -0.001431  3.606448  -0.002  0.07488  -0.002772  3.862038  -0.003  0.080049  -0.001403  3.877686  -0.001  0.073196  0.07127  -0.003923  3.852676  -0.004
C  C55  1  0.35314556  0.90111892  0.17187386  1  0.104224  0.00143  3.606711  0.002  0.074739  0.002775  3.862254  0.003  0.079897  0.001401  3.877901  0.001  0.073125  0.071148  0.003925  3.852908  0.004
C  C56  1  0.64685018  0.59887197  0.67187999  1  0.104189  0.001457  3.606829  0.002  0.074831  0.002775  3.862358  0.003  0.080005  0.001403  3.878001  0.001  0.073156  0.071215  0.003924  3.853018  0.004
C  C57  1  0.14685423  0.90111604  0.17187484  1  0.104322  0.001401  3.606849  0.002  0.074886  0.002774  3.862352  0.003  0.080057  0.0014  3.878006  0.001  0.073204  0.07129  0.003924  3.852998  0.004
C  C58  1  0.85314299  0.59886796  0.67187517  1  0.104296  0.001359  3.606527  0.002  0.07482  0.002775  3.862097  0.003  0.079995  0.0014  3.877736  0.001  0.073081  0.071191  0.003925  3.852736  0.004
C  C59  1  0.64685967  0.09887948  0.82812594  1  0.104333  -0.001407  3.606652  -0.002  0.074841  -0.002774  3.862163  -0.003  0.080011  -0.001399  3.877812  -0.001  0.073156  0.071243  -0.003924  3.852818  -0.004
N  N60  1  0.74999864  0.12696686  0.48480037  1  -0.419949  -0.000862  3.021027  -0.001  -0.401909  -0.002046  3.297943  -0.003  -0.418426  -0.000918  3.310435  -0.001  -0.333063  -0.389152  -0.002514  3.287923  -0.003
N  N61  1  0.25000299  0.37303774  0.98479769  1  -0.419914  -0.000844  3.021167  -0.001  -0.401901  -0.002048  3.298079  -0.003  -0.418412  -0.000916  3.31055  -0.001  -0.333097  -0.389142  -0.002515  3.288085  -0.003
N  N62  1  0.75000816  0.62696362  0.01520468  1  -0.420112  0.000838  3.021157  0.001  -0.40206  0.002044  3.298119  0.003  -0.418563  0.000919  3.310582  0.001  -0.333154  -0.389301  0.002515  3.288119  0.003
N  N63  1  0.24999918  0.87303253  0.51519622  1  -0.419974  0.00086  3.021105  0.001  -0.401946  0.002042  3.297994  0.003  -0.418457  0.000922  3.310487  0.001  -0.333164  -0.38919  0.002514  3.287994  0.003
N  N64  1  0.74999759  0.94565959  0.34681561  1  -0.443266  0.07451  3.317308  0.093  -0.410107  0.056061  3.623242  0.074  -0.446022  0.04811  3.642651  0.066  -0.36841  -0.387452  0.058858  3.611011  0.075
N  N65  1  0.25000402  0.55435184  0.84681636  1  -0.443516  0.074516  3.316968  0.093  -0.410258  0.056062  3.622938  0.074  -0.44618  0.048108  3.642362  0.066  -0.368547  -0.387615  0.058852  3.610707  0.075
N  N66  1  0.75000565  0.44565739  0.15318664  1  -0.443297  -0.074515  3.317052  -0.093  -0.410157  -0.056065  3.622976  -0.074  -0.446072  -0.048114  3.642402  -0.066  -0.368472  -0.387511  -0.058856  3.610743  -0.075
N  N67  1  0.24999430  0.05434373  0.65318163  1  -0.44329  -0.07451  3.317039  -0.093  -0.410067  -0.056053  3.622986  -0.074  -0.445983  -0.04811  3.642411  -0.066  -0.368465  -0.387435  -0.058853  3.610761  -0.075
N  N68  1  0.75000979  0.91104685  0.65367737  1  -0.370679  -0.001087  2.607496  -0.001  -0.352935  -0.000333  2.835908  0.0  -0.363092  -0.000399  2.852997  0.0  -0.300341  -0.345694  -0.000248  2.825027  0.0
N  N69  1  0.24999664  0.58895371  0.15368147  1  -0.37079  -0.001137  2.607303  -0.001  -0.353054  -0.000333  2.835712  0.0  -0.363213  -0.0004  2.852803  0.0  -0.300409  -0.345808  -0.000248  2.824838  0.0
N  N70  1  0.74999674  0.41104568  0.84632474  1  -0.370666  0.001091  2.607638  0.001  -0.352916  0.000334  2.836043  0.0  -0.363071  0.0004  2.853134  0.0  -0.300369  -0.345671  0.000248  2.825164  0.0
N  N71  1  0.24998803  0.08895057  0.34632115  1  -0.370696  0.001068  2.607478  0.001  -0.352954  0.000335  2.835892  0.0  -0.36311  0.0004  2.852985  0.0  -0.300353  -0.345716  0.000248  2.825016  0.0
N  N72  1  0.75001317  0.65266682  0.46100043  1  -0.352853  0.000623  2.507504  0.001  -0.329488  0.000268  2.71863  0.0  -0.336704  0.000299  2.728454  0.0  -0.290491  -0.325092  0.000123  2.713649  0.0
N  N73  1  0.25001758  0.84734778  0.96099889  1  -0.352725  0.000578  2.507894  0.001  -0.329358  0.000271  2.718985  0.0  -0.336555  0.000298  2.728786  0.0  -0.29034  -0.324951  0.000123  2.71399  0.0
N  N74  1  0.75000099  0.15265948  0.03899899  1  -0.352653  -0.000533  2.507868  -0.001  -0.329275  -0.000269  2.718935  0.0  -0.3365  -0.000293  2.728771  0.0  -0.290298  -0.324879  -0.000123  2.713956  0.0
N  N75  1  0.24998465  0.34733651  0.53899360  1  -0.352855  -0.000591  2.507468  -0.001  -0.329495  -0.000265  2.71859  0.0  -0.336712  -0.000295  2.728416  0.0  -0.290484  -0.325104  -0.000123  2.713608  0.0
N  N76  1  0.45392721  0.34276504  0.26448239  1  -0.228426  -0.068848  3.339191  -0.086  -0.182403  -0.054532  3.625088  -0.072  -0.206008  -0.04584  3.644885  -0.063  -0.324199  -0.168937  -0.058894  3.614035  -0.075
N  N77  1  0.95392454  0.15723317  0.76448272  1  -0.228439  -0.068839  3.339067  -0.086  -0.182427  -0.054527  3.625053  -0.072  -0.206028  -0.045837  3.64485  -0.063  -0.324194  -0.168965  -0.058893  3.613988  -0.075
N  N78  1  0.04607794  0.34276124  0.26448240  1  -0.228397  -0.068833  3.338943  -0.086  -0.182531  -0.054538  3.625034  -0.072  -0.206137  -0.045841  3.64483  -0.063  -0.324246  -0.169064  -0.058899  3.613986  -0.075
N  N79  1  0.45392404  0.84276608  0.23551899  1  -0.228392  0.068832  3.33901  0.086  -0.182464  0.05453  3.625035  0.072  -0.206074  0.045842  3.644842  0.063  -0.324239  -0.168976  0.058896  3.613964  0.075
N  N80  1  0.54607802  0.65723041  0.73551742  1  -0.228378  0.068801  3.339285  0.086  -0.18252  0.054527  3.62537  0.072  -0.206131  0.045836  3.645167  0.063  -0.324185  -0.169054  0.058895  3.614316  0.075
N  N81  1  0.04607773  0.84276917  0.23551708  1  -0.22834  0.068844  3.339022  0.086  -0.182435  0.054529  3.625048  0.072  -0.206046  0.045842  3.644846  0.063  -0.324171  -0.16895  0.058896  3.613978  0.075
N  N82  1  0.95392284  0.65723125  0.73551676  1  -0.228492  0.068884  3.339018  0.086  -0.182567  0.054532  3.625068  0.072  -0.206179  0.045842  3.644863  0.063  -0.324202  -0.169102  0.058901  3.614016  0.075
N  N83  1  0.54607082  0.15723528  0.76448017  1  -0.228494  -0.068841  3.33898  -0.086  -0.182509  -0.054528  3.624932  -0.072  -0.206111  -0.04584  3.644723  -0.063  -0.32427  -0.169047  -0.058894  3.613875  -0.075
O  O84  1  0.75000081  0.29427398  0.38747732  1  -0.503718  -0.098381  2.053459  -0.129  -0.490577  -0.0635  2.325584  -0.09  -0.532812  -0.049673  2.323803  -0.075  -0.307506  -0.462126  -0.070303  2.327274  -0.096
O  O85  1  0.25000251  0.20572861  0.88747503  1  -0.503919  -0.098461  2.05286  -0.129  -0.490859  -0.063524  2.324992  -0.09  -0.533118  -0.049691  2.323211  -0.075  -0.30772  -0.462404  -0.070331  2.326689  -0.096
O  O86  1  0.75000568  0.79427373  0.11252413  1  -0.503756  0.098403  2.053387  0.129  -0.490622  0.063498  2.325509  0.09  -0.532872  0.049671  2.323745  0.075  -0.307524  -0.46216  0.0703  2.3272  0.096
O  O87  1  0.24999998  0.70572639  0.61251992  1  -0.503599  0.098411  2.053245  0.129  -0.490458  0.063506  2.325296  0.09  -0.532717  0.049671  2.323567  0.075  -0.307457  -0.461999  0.070312  2.326995  0.096
O  O88  1  0.74998732  0.11726260  0.25318713  1  -0.572446  -0.005541  2.017349  -0.007  -0.552551  -0.003255  2.285811  -0.004  -0.581901  -0.002705  2.277775  -0.004  -0.319402  -0.531424  -0.004029  2.29113  -0.005
O  O89  1  0.24999758  0.38274449  0.75318898  1  -0.572491  -0.005539  2.017343  -0.007  -0.552543  -0.003246  2.285912  -0.004  -0.58189  -0.002704  2.277876  -0.004  -0.319362  -0.531382  -0.004023  2.291142  -0.005
O  O90  1  0.75000765  0.61726277  0.24681788  1  -0.572451  0.005551  2.017349  0.007  -0.552517  0.003248  2.285745  0.004  -0.581867  0.002706  2.277709  0.004  -0.319418  -0.531389  0.004028  2.291081  0.005
O  O91  1  0.24998976  0.88273580  0.74680947  1  -0.572542  0.005549  2.017371  0.007  -0.552599  0.003249  2.28583  0.004  -0.58195  0.002705  2.277791  0.004  -0.319368  -0.531446  0.004026  2.291077  0.005
