# generated using pymatgen
data_HgH10C14(SN2)2
_symmetry_space_group_name_H-M   'P 1'
_cell_length_a   8.00643211
_cell_length_b   12.95773091
_cell_length_c   14.75378329
_cell_angle_alpha   90.00056589
_cell_angle_beta   89.99929254
_cell_angle_gamma   90.00016258
_symmetry_Int_Tables_number   1
_chemical_formula_structural   HgH10C14(SN2)2
_chemical_formula_sum   'Hg4 H40 C56 S8 N16'
_cell_volume   1530.63409341
_cell_formula_units_Z   4
loop_
 _symmetry_equiv_pos_site_id
 _symmetry_equiv_pos_as_xyz
  1  'x, y, z'
loop_
 _atom_site_type_symbol
 _atom_site_label
 _atom_site_symmetry_multiplicity
 _atom_site_fract_x
 _atom_site_fract_y
 _atom_site_fract_z
 _atom_site_occupancy
 _atom_site_hle17_bader_spin_density
 _atom_site_hle17_ddec_charge
 _atom_site_hle17_ddec_spin_density
 _atom_site_hle17_ddec_sum_bond_order
 _atom_site_hle17_magmom
 _atom_site_hse06_10hf_bader_spin_density
 _atom_site_hse06_10hf_ddec_charge
 _atom_site_hse06_10hf_ddec_spin_density
 _atom_site_hse06_10hf_ddec_sum_bond_order
 _atom_site_hse06_10hf_magmom
 _atom_site_hse06_bader_spin_density
 _atom_site_hse06_ddec_charge
 _atom_site_hse06_ddec_spin_density
 _atom_site_hse06_ddec_sum_bond_order
 _atom_site_hse06_magmom
 _atom_site_pbe_bader_spin_density
 _atom_site_pbe_cm5_charge
 _atom_site_pbe_ddec_charge
 _atom_site_pbe_ddec_spin_density
 _atom_site_pbe_ddec_sum_bond_order
 _atom_site_pbe_magmom
Hg  Hg0  1  0.25000629  0.06037022  0.24999767  1  0  0.585809  0  2.148757  0  0  0.427632  0  2.641175  0  0  0.46765  0  2.61837  0  0  0.518129  0.400741  0  2.656104  0
Hg  Hg1  1  0.25000897  0.43962153  0.74999989  1  0  0.585802  0  2.148841  0  0  0.427647  0  2.641287  0  0  0.467662  0  2.618479  0  0  0.518187  0.400749  0  2.656226  0
Hg  Hg2  1  0.74999437  0.93962154  0.75000513  1  0  0.585906  0  2.148735  0  0  0.427762  0  2.641189  0  0  0.467778  0  2.618379  0  0  0.518193  0.400868  0  2.656121  0
Hg  Hg3  1  0.74999419  0.56037564  0.25000020  1  0  0.585775  0  2.148805  0  0  0.427628  0  2.641238  0  0  0.467646  0  2.618433  0  0  0.518149  0.400736  0  2.656164  0
H  H4  1  0.89170108  0.15948882  0.31617355  1  0  0.070554  0  0.957034  0  0  0.076975  0  1.026013  0  0  0.078773  0  1.025046  0  0  0.106253  0.075681  0  1.026673  0
H  H5  1  0.60829991  0.34050841  0.81617586  1  0  0.070535  0  0.956945  0  0  0.076918  0  1.025967  0  0  0.078715  0  1.025  0  0  0.106215  0.075626  0  1.02663  0
H  H6  1  0.89170606  0.34050405  0.68383190  1  0  0.070454  0  0.957096  0  0  0.076921  0  1.026025  0  0  0.078718  0  1.025059  0  0  0.106274  0.07563  0  1.026687  0
H  H7  1  0.60830919  0.15949477  0.18382811  1  0  0.07052  0  0.957087  0  0  0.07695  0  1.026068  0  0  0.078751  0  1.025103  0  0  0.106236  0.075651  0  1.026727  0
H  H8  1  0.10828459  0.84051066  0.68382721  1  0  0.070399  0  0.957024  0  0  0.07685  0  1.025973  0  0  0.078646  0  1.025007  0  0  0.106214  0.07556  0  1.026634  0
H  H9  1  0.39170698  0.65949339  0.18383033  1  0  0.070412  0  0.957043  0  0  0.07689  0  1.025973  0  0  0.078687  0  1.025006  0  0  0.106227  0.075596  0  1.026632  0
H  H10  1  0.10830334  0.65948925  0.31616819  1  0  0.070571  0  0.957096  0  0  0.076993  0  1.026072  0  0  0.078792  0  1.025104  0  0  0.106269  0.075699  0  1.026732  0
H  H11  1  0.39169646  0.84050239  0.81617604  1  0  0.070533  0  0.956956  0  0  0.076911  0  1.025979  0  0  0.078708  0  1.025012  0  0  0.106223  0.07562  0  1.02664  0
H  H12  1  0.77540774  0.31217023  0.39893033  1  0  0.116912  0  0.950612  0  0  0.124297  0  1.015437  0  0  0.127512  0  1.014462  0  0  0.107439  0.12195  0  1.016318  0
H  H13  1  0.72459012  0.18782869  0.89893324  1  0  0.116952  0  0.950568  0  0  0.124315  0  1.015411  0  0  0.127532  0  1.014436  0  0  0.107451  0.121965  0  1.016294  0
H  H14  1  0.77541015  0.18782321  0.60107320  1  0  0.116864  0  0.95054  0  0  0.124197  0  1.015423  0  0  0.127411  0  1.014451  0  0  0.1074  0.121863  0  1.016297  0
H  H15  1  0.72459323  0.31217623  0.10106724  1  0  0.116961  0  0.950627  0  0  0.12429  0  1.01548  0  0  0.127505  0  1.014508  0  0  0.10746  0.121945  0  1.016365  0
H  H16  1  0.22458167  0.68782693  0.60107179  1  0  0.116869  0  0.95063  0  0  0.124186  0  1.015523  0  0  0.127401  0  1.014549  0  0  0.107365  0.121855  0  1.016385  0
H  H17  1  0.27541053  0.81217156  0.10107363  1  0  0.11693  0  0.950634  0  0  0.124267  0  1.0155  0  0  0.127482  0  1.014528  0  0  0.107454  0.121935  0  1.016369  0
H  H18  1  0.22459675  0.81217550  0.39891808  1  0  0.116801  0  0.950702  0  0  0.124112  0  1.015631  0  0  0.127326  0  1.014661  0  0  0.107375  0.12178  0  1.016499  0
H  H19  1  0.27540242  0.68782402  0.89893691  1  0  0.116873  0  0.950679  0  0  0.124243  0  1.015512  0  0  0.127458  0  1.014539  0  0  0.107427  0.121882  0  1.016405  0
H  H20  1  0.28580466  0.40065013  0.45869804  1  0  0.112186  0  0.963433  0  0  0.12345  0  1.022205  0  0  0.125499  0  1.022643  0  0  0.106935  0.121999  0  1.022022  0
H  H21  1  0.21418836  0.09934704  0.95869822  1  0  0.112197  0  0.963411  0  0  0.12348  0  1.022161  0  0  0.125529  0  1.0226  0  0  0.10689  0.122024  0  1.021977  0
H  H22  1  0.28581177  0.09935479  0.54128843  1  0  0.112231  0  0.963449  0  0  0.123498  0  1.022201  0  0  0.125548  0  1.02264  0  0  0.106926  0.122046  0  1.022017  0
H  H23  1  0.21418824  0.40064001  0.04129687  1  0  0.112185  0  0.96352  0  0  0.123507  0  1.022202  0  0  0.125558  0  1.02264  0  0  0.106921  0.122055  0  1.022022  0
H  H24  1  0.71418350  0.59934934  0.54129527  1  0  0.112225  0  0.963313  0  0  0.123462  0  1.02211  0  0  0.125513  0  1.022547  0  0  0.106877  0.122009  0  1.021927  0
H  H25  1  0.78580979  0.90065167  0.04129645  1  0  0.112206  0  0.963314  0  0  0.123468  0  1.022101  0  0  0.125519  0  1.02254  0  0  0.106871  0.122015  0  1.021922  0
H  H26  1  0.71420137  0.90065086  0.45870013  1  0  0.112178  0  0.963424  0  0  0.123446  0  1.022198  0  0  0.125495  0  1.022638  0  0  0.106905  0.121993  0  1.022018  0
H  H27  1  0.78580492  0.59934481  0.95869847  1  0  0.112145  0  0.96344  0  0  0.123437  0  1.02219  0  0  0.125485  0  1.022631  0  0  0.106915  0.121984  0  1.022007  0
H  H28  1  0.37859942  0.24861849  0.37329525  1  0  0.081351  0  0.948815  0  0  0.089476  0  1.014742  0  0  0.09119  0  1.013356  0  0  0.111035  0.088204  0  1.015781  0
H  H29  1  0.12139929  0.25137773  0.87329466  1  0  0.081289  0  0.9488  0  0  0.089432  0  1.014713  0  0  0.091144  0  1.013329  0  0  0.11104  0.088158  0  1.015756  0
H  H30  1  0.37860654  0.25138120  0.62669806  1  0  0.081266  0  0.948747  0  0  0.089423  0  1.014641  0  0  0.091133  0  1.013261  0  0  0.111033  0.088151  0  1.015684  0
H  H31  1  0.12140277  0.24861456  0.12670919  1  0  0.081336  0  0.948794  0  0  0.089448  0  1.014736  0  0  0.091162  0  1.01335  0  0  0.111037  0.088174  0  1.01578  0
H  H32  1  0.62138999  0.75137790  0.62670416  1  0  0.081201  0  0.94897  0  0  0.089372  0  1.014858  0  0  0.091083  0  1.013476  0  0  0.11103  0.088095  0  1.015898  0
H  H33  1  0.87860262  0.74862252  0.12670001  1  0  0.081267  0  0.948826  0  0  0.089434  0  1.0147  0  0  0.091147  0  1.013314  0  0  0.111062  0.08816  0  1.015747  0
H  H34  1  0.62140410  0.74862368  0.37329186  1  0  0.081323  0  0.948832  0  0  0.08946  0  1.014738  0  0  0.091174  0  1.013351  0  0  0.111035  0.088188  0  1.015781  0
H  H35  1  0.87859539  0.75137488  0.87329429  1  0  0.081357  0  0.948852  0  0  0.089496  0  1.014763  0  0  0.091209  0  1.013376  0  0  0.11105  0.088223  0  1.015804  0
H  H36  1  0.81742833  0.46475611  0.48462684  1  0  0.098346  0  0.978169  0  0  0.109067  0  1.041653  0  0  0.111521  0  1.04091  0  0  0.101348  0.107266  0  1.042315  0
H  H37  1  0.68256384  0.03524455  0.98463074  1  0  0.098309  0  0.978156  0  0  0.109021  0  1.04167  0  0  0.111521  0  1.040868  0  0  0.10136  0.10722  0  1.042329  0
H  H38  1  0.81743699  0.03524667  0.51536353  1  0  0.098393  0  0.978042  0  0  0.109026  0  1.041635  0  0  0.111517  0  1.040846  0  0  0.101349  0.107222  0  1.042302  0
H  H39  1  0.68256585  0.46475335  0.01536935  1  0  0.098314  0  0.978153  0  0  0.109038  0  1.041652  0  0  0.111534  0  1.040857  0  0  0.101355  0.107238  0  1.042313  0
H  H40  1  0.18255859  0.53524260  0.51536918  1  0  0.098409  0  0.978064  0  0  0.109094  0  1.041613  0  0  0.111575  0  1.040835  0  0  0.101391  0.107295  0  1.04227  0
H  H41  1  0.31743182  0.96475107  0.01536800  1  0  0.098302  0  0.978149  0  0  0.108981  0  1.041711  0  0  0.111488  0  1.040904  0  0  0.101347  0.107183  0  1.042369  0
H  H42  1  0.18257241  0.96476053  0.48462368  1  0  0.098408  0  0.978033  0  0  0.109092  0  1.041563  0  0  0.111579  0  1.040776  0  0  0.101375  0.107292  0  1.042219  0
H  H43  1  0.31743231  0.53524072  0.98463752  1  0  0.098316  0  0.978169  0  0  0.108958  0  1.041761  0  0  0.111456  0  1.04096  0  0  0.101341  0.107157  0  1.04242  0
C  C44  1  0.97383357  0.21683243  0.34699003  1  0  0.119614  0  3.731476  0  0  0.09051  0  3.977597  0  0  0.097696  0  3.99766  0  0  0.038289  0.085919  0  3.963788  0
C  C45  1  0.52616547  0.28316436  0.84699239  1  0  0.119582  0  3.731411  0  0  0.090496  0  3.977536  0  0  0.097684  0  3.997598  0  0  0.03835  0.085898  0  3.963733  0
C  C46  1  0.97383649  0.28316135  0.65301352  1  0  0.119594  0  3.731274  0  0  0.090483  0  3.977435  0  0  0.09767  0  3.9975  0  0  0.038241  0.085892  0  3.963629  0
C  C47  1  0.52617196  0.21683713  0.15301213  1  0  0.119813  0  3.731367  0  0  0.090665  0  3.97746  0  0  0.097848  0  3.997527  0  0  0.038368  0.086085  0  3.963636  0
C  C48  1  0.02615084  0.78316627  0.65300735  1  0  0.119724  0  3.731442  0  0  0.090639  0  3.97755  0  0  0.097827  0  3.997616  0  0  0.038354  0.086039  0  3.963747  0
C  C49  1  0.47383893  0.71683820  0.15301245  1  0  0.119649  0  3.731297  0  0  0.090529  0  3.977436  0  0  0.097716  0  3.9975  0  0  0.038299  0.085939  0  3.963629  0
C  C50  1  0.02617165  0.71683581  0.34698386  1  0  0.119573  0  3.731529  0  0  0.090466  0  3.977624  0  0  0.097649  0  3.997691  0  0  0.038304  0.085886  0  3.96381  0
C  C51  1  0.47382870  0.78315927  0.84699270  1  0  0.119642  0  3.731442  0  0  0.090571  0  3.977552  0  0  0.097761  0  3.997614  0  0  0.03832  0.085978  0  3.963737  0
C  C52  1  0.91007951  0.30202811  0.39245353  1  0  -0.158385  0  3.678035  0  0  -0.171582  0  3.917852  0  0  -0.180237  0  3.939736  0  0  -0.079914  -0.165913  0  3.90315  0
C  C53  1  0.58991725  0.19797075  0.89245811  1  0  -0.1583  0  3.678085  0  0  -0.171469  0  3.917837  0  0  -0.180127  0  3.939725  0  0  -0.079901  -0.165792  0  3.903136  0
C  C54  1  0.91008682  0.19796788  0.60754706  1  0  -0.158278  0  3.677962  0  0  -0.171436  0  3.917762  0  0  -0.180094  0  3.939648  0  0  -0.079827  -0.16578  0  3.903064  0
C  C55  1  0.58992017  0.30203317  0.10754666  1  0  -0.15849  0  3.678152  0  0  -0.171636  0  3.917969  0  0  -0.180294  0  3.939854  0  0  -0.079968  -0.165973  0  3.90327  0
C  C56  1  0.08990865  0.69796983  0.60754453  1  0  -0.158298  0  3.67818  0  0  -0.171444  0  3.917995  0  0  -0.180101  0  3.93988  0  0  -0.079802  -0.165786  0  3.903285  0
C  C57  1  0.41008465  0.80203105  0.10754808  1  0  -0.158372  0  3.678099  0  0  -0.171541  0  3.917913  0  0  -0.180199  0  3.939798  0  0  -0.079936  -0.165886  0  3.903205  0
C  C58  1  0.08992383  0.80203159  0.39244693  1  0  -0.158164  0  3.678092  0  0  -0.171282  0  3.917886  0  0  -0.17994  0  3.939773  0  0  -0.079805  -0.165628  0  3.903176  0
C  C59  1  0.41007674  0.69796477  0.89245681  1  0  -0.158164  0  3.678269  0  0  -0.171371  0  3.918012  0  0  -0.18003  0  3.939902  0  0  -0.079823  -0.165688  0  3.903315  0
C  C60  1  0.02049320  0.37312565  0.43307217  1  0  0.136924  0  3.785701  0  0  0.152692  0  4.013416  0  0  0.158159  0  4.035723  0  0  0.007535  0.149203  0  3.998173  0
C  C61  1  0.47950290  0.12687201  0.93307351  1  0  0.136778  0  3.785819  0  0  0.152615  0  4.013453  0  0  0.158079  0  4.035772  0  0  0.007528  0.149121  0  3.998216  0
C  C62  1  0.02050236  0.12687264  0.56692287  1  0  0.136908  0  3.785787  0  0  0.152785  0  4.013347  0  0  0.158254  0  4.035657  0  0  0.007577  0.14929  0  3.998119  0
C  C63  1  0.47950332  0.37312554  0.06692793  1  0  0.136876  0  3.785983  0  0  0.152716  0  4.013604  0  0  0.158183  0  4.035917  0  0  0.007566  0.149218  0  3.998377  0
C  C64  1  0.97949621  0.62687383  0.56692521  1  0  0.136913  0  3.785972  0  0  0.152746  0  4.013613  0  0  0.158214  0  4.035923  0  0  0.007545  0.149244  0  3.99839  0
C  C65  1  0.52049650  0.87312747  0.06692793  1  0  0.136871  0  3.785741  0  0  0.152718  0  4.013356  0  0  0.158183  0  4.035674  0  0  0.007558  0.149227  0  3.99812  0
C  C66  1  0.97951203  0.87312916  0.43306638  1  0  0.136921  0  3.785702  0  0  0.152669  0  4.013457  0  0  0.158138  0  4.035768  0  0  0.007535  0.149179  0  3.998218  0
C  C67  1  0.52049234  0.62686854  0.93307487  1  0  0.13671  0  3.785868  0  0  0.152616  0  4.013398  0  0  0.158083  0  4.035709  0  0  0.00748  0.149122  0  3.998161  0
C  C68  1  0.19234506  0.35214215  0.42619123  1  0  -0.14871  0  3.680756  0  0  -0.163837  0  3.920376  0  0  -0.171417  0  3.941886  0  0  -0.081107  -0.158985  0  3.905969  0
C  C69  1  0.30764870  0.14785698  0.92619323  1  0  -0.148729  0  3.680671  0  0  -0.163902  0  3.920291  0  0  -0.171483  0  3.9418  0  0  -0.081084  -0.15904  0  3.905874  0
C  C70  1  0.19235291  0.14785953  0.57379994  1  0  -0.148866  0  3.680889  0  0  -0.164065  0  3.920548  0  0  -0.171648  0  3.942056  0  0  -0.081161  -0.159205  0  3.90614  0
C  C71  1  0.30765136  0.35213796  0.07380801  1  0  -0.148716  0  3.68094  0  0  -0.163911  0  3.920522  0  0  -0.171492  0  3.942031  0  0  -0.081102  -0.159057  0  3.906119  0
C  C72  1  0.80764310  0.64785965  0.57380344  1  0  -0.148806  0  3.680741  0  0  -0.163943  0  3.920405  0  0  -0.171524  0  3.941913  0  0  -0.081073  -0.159084  0  3.905992  0
C  C73  1  0.69235195  0.85214327  0.07380618  1  0  -0.148732  0  3.680529  0  0  -0.163918  0  3.920178  0  0  -0.171499  0  3.941686  0  0  -0.081018  -0.159052  0  3.905764  0
C  C74  1  0.80765774  0.85214227  0.42619134  1  0  -0.148717  0  3.68067  0  0  -0.163867  0  3.920331  0  0  -0.171448  0  3.941839  0  0  -0.081081  -0.159008  0  3.905921  0
C  C75  1  0.69234554  0.64785226  0.92619208  1  0  -0.148693  0  3.680827  0  0  -0.163916  0  3.920446  0  0  -0.171497  0  3.941956  0  0  -0.081157  -0.159057  0  3.906036  0
C  C76  1  0.24591858  0.26601728  0.37878995  1  0  0.122605  0  3.716956  0  0  0.089024  0  3.971891  0  0  0.096909  0  3.990194  0  0  0.038345  0.083956  0  3.959327  0
C  C77  1  0.25407876  0.23397977  0.87879035  1  0  0.122819  0  3.716848  0  0  0.089226  0  3.971806  0  0  0.097111  0  3.990112  0  0  0.03844  0.084161  0  3.959238  0
C  C78  1  0.24592075  0.23398063  0.62120628  1  0  0.122828  0  3.716754  0  0  0.089285  0  3.9717  0  0  0.097173  0  3.990004  0  0  0.038395  0.084211  0  3.959142  0
C  C79  1  0.25408369  0.26601584  0.12121328  1  0  0.122753  0  3.716983  0  0  0.089177  0  3.971883  0  0  0.097062  0  3.990187  0  0  0.038375  0.084107  0  3.959321  0
C  C80  1  0.75406834  0.73398220  0.62120675  1  0  0.122975  0  3.717101  0  0  0.089387  0  3.972043  0  0  0.097273  0  3.990348  0  0  0.038476  0.084326  0  3.959469  0
C  C81  1  0.74592315  0.76602048  0.12120906  1  0  0.12285  0  3.716828  0  0  0.089302  0  3.971768  0  0  0.097188  0  3.990071  0  0  0.038382  0.084232  0  3.959209  0
C  C82  1  0.75408615  0.76602117  0.37878703  1  0  0.122697  0  3.717025  0  0  0.089134  0  3.971927  0  0  0.097019  0  3.990232  0  0  0.038373  0.084064  0  3.959369  0
C  C83  1  0.74591571  0.73397592  0.87878952  1  0  0.122728  0  3.716973  0  0  0.089143  0  3.971912  0  0  0.097028  0  3.990218  0  0  0.038404  0.08407  0  3.959348  0
C  C84  1  0.95354018  0.46240317  0.48060028  1  0  -0.099085  0  3.700524  0  0  -0.120888  0  3.953486  0  0  -0.124291  0  3.97425  0  0  -0.082271  -0.118406  0  3.939157  0
C  C85  1  0.54644958  0.03759590  0.98060308  1  0  -0.099034  0  3.700693  0  0  -0.120873  0  3.953653  0  0  -0.124311  0  3.974401  0  0  -0.082322  -0.118389  0  3.939324  0
C  C86  1  0.95355251  0.03759907  0.51939188  1  0  -0.099108  0  3.700504  0  0  -0.120899  0  3.953474  0  0  -0.124329  0  3.97422  0  0  -0.082387  -0.118413  0  3.939147  0
C  C87  1  0.54645024  0.46240176  0.01939859  1  0  -0.099009  0  3.700655  0  0  -0.120879  0  3.953626  0  0  -0.124314  0  3.974378  0  0  -0.082345  -0.118394  0  3.939296  0
C  C88  1  0.04644298  0.53759708  0.51939641  1  0  -0.099177  0  3.700664  0  0  -0.121013  0  3.953667  0  0  -0.124433  0  3.974407  0  0  -0.08242  -0.11853  0  3.939341  0
C  C89  1  0.45354858  0.96240203  0.01939633  1  0  -0.099008  0  3.70064  0  0  -0.120826  0  3.953605  0  0  -0.124265  0  3.974347  0  0  -0.082312  -0.118352  0  3.93928  0
C  C90  1  0.04645814  0.96240658  0.48059533  1  0  -0.099173  0  3.700513  0  0  -0.120934  0  3.95347  0  0  -0.124359  0  3.974215  0  0  -0.082294  -0.11845  0  3.939135  0
C  C91  1  0.45354417  0.53759308  0.98060556  1  0  -0.098962  0  3.700431  0  0  -0.120752  0  3.953364  0  0  -0.124185  0  3.974099  0  0  -0.08222  -0.118271  0  3.939038  0
C  C92  1  0.55167346  0.05995296  0.38466449  1  0  0.216507  0  3.952482  0  0  0.20841  0  4.260849  0  0  0.224157  0  4.276186  0  0  0.125989  0.197688  0  4.250431  0
C  C93  1  0.94834846  0.44005738  0.88466538  1  0  0.216551  0  3.952444  0  0  0.208462  0  4.260813  0  0  0.224208  0  4.276152  0  0  0.125969  0.197736  0  4.250401  0
C  C94  1  0.55166921  0.44005552  0.61533715  1  0  0.216371  0  3.952642  0  0  0.208277  0  4.261026  0  0  0.224022  0  4.276362  0  0  0.125869  0.19755  0  4.250618  0
C  C95  1  0.94833260  0.05996260  0.11533292  1  0  0.216631  0  3.952724  0  0  0.208555  0  4.26106  0  0  0.224299  0  4.276394  0  0  0.126094  0.197835  0  4.250645  0
C  C96  1  0.44833344  0.94005810  0.61534983  1  0  0.216481  0  3.952638  0  0  0.208393  0  4.260996  0  0  0.224136  0  4.276334  0  0  0.126065  0.197666  0  4.250586  0
C  C97  1  0.05166219  0.55995907  0.11533539  1  0  0.216543  0  3.952609  0  0  0.208448  0  4.26098  0  0  0.224192  0  4.276314  0  0  0.126046  0.197719  0  4.250573  0
C  C98  1  0.44832145  0.55996093  0.38465955  1  0  0.216614  0  3.952485  0  0  0.208527  0  4.260843  0  0  0.224275  0  4.276181  0  0  0.126041  0.197799  0  4.250434  0
C  C99  1  0.05167055  0.94002453  0.88466852  1  0  0.216743  0  3.952928  0  0  0.208652  0  4.261267  0  0  0.224399  0  4.276613  0  0  0.126138  0.197928  0  4.250848  0
S  S100  1  0.51244431  0.97790484  0.30060610  1  0  -0.231748  0  2.311298  0  0  -0.197281  0  2.669794  0  0  -0.212825  0  2.666048  0  0  -0.103892  -0.18676  0  2.672221  0
S  S101  1  0.98758306  0.52210603  0.80060445  1  0  -0.23173  0  2.311106  0  0  -0.197278  0  2.669613  0  0  -0.212821  0  2.665866  0  0  -0.103904  -0.186741  0  2.672016  0
S  S102  1  0.51243624  0.52210659  0.69939743  1  0  -0.231695  0  2.3111  0  0  -0.197235  0  2.669595  0  0  -0.212779  0  2.665849  0  0  -0.103863  -0.1867  0  2.672013  0
S  S103  1  0.98757220  0.97790083  0.19938911  1  0  -0.231836  0  2.310974  0  0  -0.197375  0  2.669447  0  0  -0.212928  0  2.665716  0  0  -0.103918  -0.186846  0  2.671856  0
S  S104  1  0.48757882  0.02211471  0.69940144  1  0  -0.231853  0  2.311178  0  0  -0.197411  0  2.669698  0  0  -0.212959  0  2.665956  0  0  -0.10398  -0.186871  0  2.672097  0
S  S105  1  0.01242509  0.47790116  0.19938818  1  0  -0.231793  0  2.31116  0  0  -0.197328  0  2.669633  0  0  -0.212883  0  2.665907  0  0  -0.103927  -0.186787  0  2.672028  0
S  S106  1  0.48756192  0.47790292  0.30060876  1  0  -0.231784  0  2.311247  0  0  -0.197335  0  2.669747  0  0  -0.212878  0  2.666  0  0  -0.103907  -0.1868  0  2.672154  0
S  S107  1  0.01244094  0.02207627  0.80061775  1  0  -0.231877  0  2.311403  0  0  -0.19743  0  2.669901  0  0  -0.212972  0  2.66615  0  0  -0.103964  -0.186902  0  2.672312  0
N  N108  1  0.13903356  0.19923136  0.33962922  1  0  -0.299983  0  3.275654  0  0  -0.217978  0  3.538883  0  0  -0.238617  0  3.56123  0  0  -0.317569  -0.203988  0  3.523258  0
N  N109  1  0.36096592  0.30076602  0.83963151  1  0  -0.3001  0  3.275684  0  0  -0.218072  0  3.538906  0  0  -0.238709  0  3.561248  0  0  -0.317671  -0.204085  0  3.523293  0
N  N110  1  0.13903889  0.30076559  0.66037180  1  0  -0.299905  0  3.275409  0  0  -0.217977  0  3.538725  0  0  -0.238617  0  3.561073  0  0  -0.31753  -0.203984  0  3.523104  0
N  N111  1  0.36097091  0.19923209  0.16037615  1  0  -0.300256  0  3.275688  0  0  -0.218195  0  3.538899  0  0  -0.238834  0  3.561244  0  0  -0.317632  -0.204205  0  3.523273  0
N  N112  1  0.86095211  0.80076889  0.66036884  1  0  -0.300108  0  3.275775  0  0  -0.21818  0  3.539144  0  0  -0.23882  0  3.561489  0  0  -0.317687  -0.204194  0  3.523525  0
N  N113  1  0.63903973  0.69923577  0.16037128  1  0  -0.299998  0  3.275525  0  0  -0.218086  0  3.538878  0  0  -0.238725  0  3.561222  0  0  -0.317627  -0.204101  0  3.523263  0
N  N114  1  0.86097176  0.69923466  0.33962693  1  0  -0.3001  0  3.275687  0  0  -0.218091  0  3.538923  0  0  -0.238733  0  3.561281  0  0  -0.317656  -0.204106  0  3.523309  0
N  N115  1  0.63902975  0.80076045  0.83962869  1  0  -0.300209  0  3.275586  0  0  -0.218197  0  3.538826  0  0  -0.238835  0  3.56117  0  0  -0.317667  -0.204207  0  3.52321  0
N  N116  1  0.58375211  0.11657126  0.44484241  1  0  -0.430021  0  2.602445  0  0  -0.406152  0  2.828235  0  0  -0.41786  0  2.839025  0  0  -0.337473  -0.398194  0  2.82097  0
N  N117  1  0.91627094  0.38343899  0.94483964  1  0  -0.430041  0  2.602624  0  0  -0.406211  0  2.828464  0  0  -0.417918  0  2.839257  0  0  -0.337456  -0.398251  0  2.821199  0
N  N118  1  0.58374398  0.38343650  0.55516375  1  0  -0.429909  0  2.602788  0  0  -0.406063  0  2.8286  0  0  -0.417764  0  2.839388  0  0  -0.337395  -0.398102  0  2.821337  0
N  N119  1  0.91625296  0.11658094  0.05516769  1  0  -0.429999  0  2.603097  0  0  -0.406176  0  2.828919  0  0  -0.41788  0  2.839709  0  0  -0.337517  -0.398216  0  2.821649  0
N  N120  1  0.41624729  0.88343516  0.55518207  1  0  -0.429895  0  2.602772  0  0  -0.406045  0  2.828544  0  0  -0.417747  0  2.839334  0  0  -0.337486  -0.398085  0  2.821281  0
N  N121  1  0.08374096  0.61658056  0.05516859  1  0  -0.429946  0  2.602803  0  0  -0.406097  0  2.828599  0  0  -0.4178  0  2.83939  0  0  -0.337489  -0.398135  0  2.821333  0
N  N122  1  0.41624169  0.61658690  0.44483024  1  0  -0.430064  0  2.602524  0  0  -0.406217  0  2.828325  0  0  -0.417923  0  2.839115  0  0  -0.337514  -0.398258  0  2.821065  0
N  N123  1  0.08374894  0.88340233  0.94484460  1  0  -0.430133  0  2.602858  0  0  -0.40627  0  2.828616  0  0  -0.417979  0  2.839416  0  0  -0.337565  -0.398311  0  2.821345  0
