# generated using pymatgen
data_CdH34C28N4O5
_symmetry_space_group_name_H-M   'P 1'
_cell_length_a   6.18504909
_cell_length_b   8.62434452
_cell_length_c   26.35100000
_cell_angle_alpha   92.43613249
_cell_angle_beta   90.00000000
_cell_angle_gamma   111.01347299
_symmetry_Int_Tables_number   1
_chemical_formula_structural   CdH34C28N4O5
_chemical_formula_sum   'Cd2 H68 C56 N8 O10'
_cell_volume   1310.77510533
_cell_formula_units_Z   2
loop_
 _symmetry_equiv_pos_site_id
 _symmetry_equiv_pos_as_xyz
  1  'x, y, z'
loop_
 _atom_site_type_symbol
 _atom_site_label
 _atom_site_symmetry_multiplicity
 _atom_site_fract_x
 _atom_site_fract_y
 _atom_site_fract_z
 _atom_site_occupancy
 _atom_site_pbe_bader_charge
 _atom_site_pbe_bader_spin_density
 _atom_site_pbe_cm5_charge
 _atom_site_pbe_ddec_charge
 _atom_site_pbe_ddec_spin_density
 _atom_site_pbe_ddec_sum_bond_order
 _atom_site_pbe_magmom
Cd  Cd0  1  0.64809568  0.99977098  0.74998179  1  1.279246  0  0.765697  0.881142  0  2.194193  0
Cd  Cd1  1  0.35189943  0.00023127  0.25001916  1  1.279291  0  0.7657  0.881189  0  2.194164  0
H  H2  1  0.09247508  0.95567492  0.72279060  1  0.663291  0  0.292305  0.402613  0  0.928261  0
H  H3  1  0.13642704  0.04357134  0.77715770  1  0.650243  0  0.292309  0.402894  0  0.927973  0
H  H4  1  0.90751443  0.04431614  0.27721094  1  0.663074  0  0.292281  0.402614  0  0.928255  0
H  H5  1  0.86357018  0.95642220  0.22284426  1  0.650262  0  0.292315  0.402915  0  0.927919  0
H  H6  1  0.78035910  0.80257838  0.83342045  1  0.08025  0  0.115114  0.087249  0  1.028669  0
H  H7  1  0.97761001  0.19698619  0.66652848  1  0.078976  0  0.115085  0.08696  0  1.028815  0
H  H8  1  0.21963004  0.19743133  0.16658249  1  0.080345  0  0.115145  0.087276  0  1.028684  0
H  H9  1  0.02238037  0.80300984  0.33347275  1  0.07884  0  0.115107  0.086945  0  1.028918  0
H  H10  1  0.20717633  0.36376265  0.87186709  1  0.105343  0  0.114103  0.121694  0  0.996017  0
H  H11  1  0.84413257  0.63639751  0.62832732  1  0.110959  0  0.114137  0.122044  0  0.995981  0
H  H12  1  0.79281119  0.63623089  0.12812690  1  0.105274  0  0.11409  0.1216  0  0.996051  0
H  H13  1  0.15585557  0.36359728  0.37167352  1  0.110494  0  0.114151  0.122112  0  0.995986  0
H  H14  1  0.98314948  0.41746276  0.80062484  1  0.098287  0  0.105591  0.113072  0  1.025303  0
H  H15  1  0.56594857  0.58232562  0.69947217  1  0.106351  0  0.105547  0.112966  0  1.025454  0
H  H16  1  0.01684551  0.58254571  0.19936936  1  0.098285  0  0.10561  0.113034  0  1.025445  0
H  H17  1  0.43404853  0.41767414  0.30053025  1  0.106584  0  0.105531  0.112964  0  1.025322  0
H  H18  1  0.17201068  0.67225851  0.74927438  1  0.123823  0  0.113647  0.089747  0  1.021761  0
H  H19  1  0.49931028  0.32711458  0.75064570  1  0.093856  0  0.113757  0.08929  0  1.02157  0
H  H20  1  0.82800097  0.32775742  0.25072334  1  0.124027  0  0.113713  0.08982  0  1.021596  0
H  H21  1  0.50068905  0.67288643  0.24935750  1  0.093584  0  0.113724  0.089276  0  1.021579  0
H  H22  1  0.74238477  0.46373105  0.88684894  1  0.055065  0  0.108442  0.093381  0  0.980831  0
H  H23  1  0.27867702  0.53631597  0.61316970  1  0.059104  0  0.108585  0.093818  0  0.981847  0
H  H24  1  0.25760686  0.53626747  0.11314892  1  0.055306  0  0.108434  0.093442  0  0.980823  0
H  H25  1  0.72132108  0.46368255  0.38683308  1  0.059104  0  0.108592  0.093851  0  0.981815  0
H  H26  1  0.81392684  0.67469434  0.90733605  1  0.016174  0  0.095651  0.068468  0  1.015684  0
H  H27  1  0.13943372  0.32538003  0.59264389  1  0.051117  0  0.096067  0.069316  0  1.015796  0
H  H28  1  0.18607535  0.32530916  0.09266036  1  0.016209  0  0.095653  0.068505  0  1.015657  0
H  H29  1  0.86056798  0.67461600  0.40736000  1  0.051076  0  0.096059  0.069303  0  1.015848  0
H  H30  1  0.83985877  0.57486520  0.99461107  1  0.042268  0  0.090089  0.060401  0  1.009982  0
H  H31  1  0.26492043  0.42495427  0.50544046  1  0.037175  0  0.090291  0.060842  0  1.009341  0
H  H32  1  0.16016134  0.42514824  0.00538813  1  0.04221  0  0.090047  0.060314  0  1.010024  0
H  H33  1  0.73508786  0.57503555  0.49456145  1  0.037323  0  0.090299  0.060791  0  1.009497  0
H  H34  1  0.76196259  0.37151030  0.96527493  1  0.034624  0  0.103283  0.078864  0  1.006101  0
H  H35  1  0.39051748  0.62840367  0.53471529  1  0.051408  0  0.102816  0.07754  0  1.007095  0
H  H36  1  0.23805528  0.62850190  0.03472615  1  0.034664  0  0.103327  0.078906  0  1.006078  0
H  H37  1  0.60949044  0.37158863  0.46528513  1  0.051415  0  0.102832  0.077585  0  1.007022  0
H  H38  1  0.32380063  0.63434465  0.94213429  1  0.014979  0  0.099144  0.074785  0  1.00425  0
H  H39  1  0.68940818  0.36612885  0.55789560  1  0.012413  0  0.099499  0.07455  0  1.003946  0
H  H40  1  0.67622557  0.36567128  0.05786798  1  0.014848  0  0.099169  0.074907  0  1.004118  0
H  H41  1  0.31059626  0.63385972  0.44210477  1  0.012068  0  0.09952  0.07459  0  1.003932  0
H  H42  1  0.57976161  0.73425833  0.97999193  1  0.01552  0  0.091737  0.065833  0  1.007681  0
H  H43  1  0.84509810  0.26580484  0.52008310  1  0.01777  0  0.091678  0.066295  0  1.007183  0
H  H44  1  0.42026534  0.26575262  0.02000989  1  0.015372  0  0.091754  0.065958  0  1.007393  0
H  H45  1  0.15491343  0.73418497  0.47991767  1  0.017891  0  0.091655  0.066291  0  1.007066  0
H  H46  1  0.18097748  0.76575001  0.59479533  1  0.081777  0  0.097593  0.105389  0  1.060762  0
H  H47  1  0.41479797  0.23415898  0.90512159  1  0.089263  0  0.097921  0.105888  0  1.059817  0
H  H48  1  0.81903006  0.23424478  0.40520323  1  0.081809  0  0.097549  0.105284  0  1.060785  0
H  H49  1  0.58519552  0.76584327  0.09488239  1  0.089548  0  0.097924  0.105883  0  1.059839  0
H  H50  1  0.44991125  0.90444918  0.57448471  1  0.040529  0  0.093064  0.10692  0  1.02253  0
H  H51  1  0.54550120  0.09577812  0.92543815  1  0.042479  0  0.093123  0.107345  0  1.023657  0
H  H52  1  0.55009754  0.09554809  0.42551351  1  0.040644  0  0.093102  0.106913  0  1.022536  0
H  H53  1  0.45449043  0.90422039  0.07456198  1  0.042414  0  0.093115  0.107306  0  1.023641  0
H  H54  1  0.08006232  0.00439419  0.62957500  1  0.051993  0  0.095437  0.100919  0  1.009341  0
H  H55  1  0.07558075  0.99497144  0.87042771  1  0.059645  0  0.095169  0.100287  0  1.009734  0
H  H56  1  0.91993901  0.99560433  0.37042361  1  0.052034  0  0.09541  0.100859  0  1.009429  0
H  H57  1  0.92441100  0.00503703  0.12957408  1  0.059847  0  0.095169  0.100277  0  1.00967  0
H  H58  1  0.34779316  0.14565104  0.60816263  1  0.007514  0  0.086536  0.082458  0  0.997171  0
H  H59  1  0.20259706  0.85414481  0.89192539  1  0.038785  0  0.086537  0.082793  0  0.997327  0
H  H60  1  0.65220344  0.85434127  0.39183097  1  0.007532  0  0.086507  0.082428  0  0.997076  0
H  H61  1  0.79739482  0.14585744  0.10807290  1  0.038774  0  0.086515  0.082771  0  0.997295  0
H  H62  1  0.76119099  0.87706446  0.57409881  1  0.082789  0  0.095155  0.101345  0  1.057917  0
H  H63  1  0.88291356  0.12163097  0.92575227  1  0.086028  0  0.094669  0.100785  0  1.056888  0
H  H64  1  0.23879093  0.12291789  0.42590034  1  0.082679  0  0.09519  0.101304  0  1.058103  0
H  H65  1  0.11707396  0.87836258  0.07424855  1  0.086014  0  0.094637  0.100763  0  1.056928  0
H  H66  1  0.42350998  0.14683849  0.51192739  1  0.001743  0  0.094782  0.091778  0  1.051566  0
H  H67  1  0.27806128  0.85425796  0.98824740  1  0.031827  0  0.094685  0.092139  0  1.051553  0
H  H68  1  0.57646921  0.85313516  0.48806822  1  0.001659  0  0.094783  0.091787  0  1.051523  0
H  H69  1  0.72193445  0.14574554  0.01175394  1  0.031871  0  0.09466  0.092095  0  1.051596  0
C  C70  1  0.60424309  0.71358924  0.82734623  1  0.503299  0  0.0448  0.032539  0  3.925689  0
C  C71  1  0.89053801  0.28601388  0.67262298  1  0.521775  0  0.044557  0.033033  0  3.924359  0
C  C72  1  0.39575190  0.28641923  0.17265670  1  0.503246  0  0.044717  0.032501  0  3.925624  0
C  C73  1  0.10945647  0.71398713  0.32737871  1  0.521856  0  0.044538  0.033095  0  3.924259  0
C  C74  1  0.51479123  0.57864888  0.85838046  1  0.01489  0  -0.003185  0.056297  0  3.954037  0
C  C75  1  0.93633395  0.42116313  0.64165465  1  -0.009538  0  -0.002866  0.056504  0  3.952248  0
C  C76  1  0.48519256  0.42135337  0.14161821  1  0.014567  0  -0.003212  0.056205  0  3.953991  0
C  C77  1  0.06365680  0.57883042  0.35834655  1  -0.009565  0  -0.002836  0.056436  0  3.952149  0
C  C78  1  0.28649399  0.47052252  0.84859231  1  -0.067924  0  -0.062364  -0.075187  0  3.908139  0
C  C79  1  0.81641493  0.52940762  0.65151958  1  -0.078475  0  -0.062634  -0.076086  0  3.908971  0
C  C80  1  0.71348495  0.52947973  0.15140218  1  -0.067946  0  -0.062291  -0.074862  0  3.907875  0
C  C81  1  0.18357707  0.47058842  0.34848204  1  -0.078064  0  -0.062655  -0.07608  0  3.908931  0
C  C82  1  0.15998848  0.50135022  0.80897488  1  -0.057785  0  -0.084051  -0.123038  0  3.975306  0
C  C83  1  0.65879784  0.49842076  0.69107901  1  -0.046009  0  -0.08366  -0.122242  0  3.974777  0
C  C84  1  0.84001247  0.49866695  0.19101830  1  -0.057678  0  -0.084103  -0.123161  0  3.975487  0
C  C85  1  0.34119540  0.50157776  0.30892302  1  -0.045968  0  -0.083654  -0.122247  0  3.974666  0
C  C86  1  0.26333919  0.64018865  0.78020807  1  0.491222  0  0.042525  0.079503  0  3.945792  0
C  C87  1  0.62291233  0.35934484  0.71975409  1  0.496878  0  0.042139  0.079933  0  3.946449  0
C  C88  1  0.73667743  0.35983723  0.21978789  1  0.491175  0  0.042514  0.07961  0  3.945792  0
C  C89  1  0.37708738  0.64065368  0.28024908  1  0.497048  0  0.042105  0.079824  0  3.946585  0
C  C90  1  0.66631949  0.55594931  0.90009344  1  0.324633  0  -0.060212  -0.107217  0  3.968616  0
C  C91  1  0.11044289  0.44406413  0.59991449  1  0.301027  0  -0.061155  -0.110364  0  3.97108  0
C  C92  1  0.33368109  0.44405419  0.09990487  1  0.324577  0  -0.06023  -0.107412  0  3.968824  0
C  C93  1  0.88955496  0.55593066  0.40008786  1  0.301033  0  -0.06115  -0.110309  0  3.971142  0
C  C94  1  0.69145090  0.46027811  0.98326138  1  0.275719  0  -0.069551  -0.080572  0  3.945455  0
C  C95  1  0.23120872  0.53960974  0.51675315  1  0.260785  0  -0.069337  -0.080317  0  3.944026  0
C  C96  1  0.30856796  0.53973284  0.01673930  1  0.275802  0  -0.0696  -0.080718  0  3.945404  0
C  C97  1  0.76879895  0.46037883  0.48324760  1  0.259785  0  -0.069342  -0.080335  0  3.944284  0
C  C98  1  0.44229964  0.61252541  0.96966081  1  0.319993  0  -0.070763  -0.078483  0  3.934464  0
C  C99  1  0.82966357  0.38766957  0.53036179  1  0.323112  0  -0.071282  -0.079041  0  3.933901  0
C  C100  1  0.55772308  0.38748679  0.03033989  1  0.320201  0  -0.07083  -0.078884  0  3.934493  0
C  C101  1  0.17033925  0.61231900  0.46963745  1  0.323279  0  -0.071246  -0.079097  0  3.933725  0
C  C102  1  0.42415677  0.88889172  0.65523523  1  1.529498  0  0.19046  0.618488  0  4.172945  0
C  C103  1  0.53470680  0.11090661  0.84469077  1  1.534532  0  0.191595  0.621687  0  4.167406  0
C  C104  1  0.57584618  0.11110680  0.34476414  1  1.529232  0  0.190434  0.618461  0  4.173028  0
C  C105  1  0.46527923  0.88909688  0.15531170  1  1.534234  0  0.191603  0.621644  0  4.167737  0
C  C106  1  0.31761835  0.88763215  0.60350695  1  -0.049087  0  -0.171465  -0.292069  0  3.902908  0
C  C107  1  0.42971625  0.11230296  0.89644296  1  -0.062978  0  -0.172256  -0.294549  0  3.903151  0
C  C108  1  0.68238397  0.11236513  0.39649050  1  -0.049629  0  -0.171422  -0.291953  0  3.902951  0
C  C109  1  0.57028558  0.88770302  0.10355803  1  -0.063042  0  -0.172238  -0.294552  0  3.90312  0
C  C110  1  0.21176030  0.02291220  0.60020148  1  -0.003152  0  -0.163166  -0.177674  0  3.965315  0
C  C111  1  0.18888446  0.97679537  0.89982610  1  -0.036413  0  -0.16251  -0.176134  0  3.965588  0
C  C112  1  0.78824364  0.97708508  0.39979446  1  -0.002875  0  -0.163106  -0.177477  0  3.965031  0
C  C113  1  0.81111450  0.02320813  0.10017296  1  -0.036698  0  -0.16248  -0.176072  0  3.965756  0
C  C114  1  0.10309454  0.01478531  0.54872035  1  -0.031342  0  -0.018233  0.110434  0  3.989657  0
C  C115  1  0.08829038  0.98503789  0.95129404  1  -0.06308  0  -0.017619  0.110296  0  3.99174  0
C  C116  1  0.89692544  0.98521818  0.45127567  1  -0.03198  0  -0.018237  0.110273  0  3.989876  0
C  C117  1  0.91170448  0.01496063  0.04870913  1  -0.063165  0  -0.017654  0.11028  0  3.991818  0
C  C118  1  0.86483373  0.93023861  0.54123755  1  -0.034197  0  -0.100825  -0.151051  0  3.99955  0
C  C119  1  0.93376305  0.06893926  0.95867527  1  -0.076121  0  -0.100639  -0.150085  0  3.998647  0
C  C120  1  0.13517991  0.06975866  0.45876219  1  -0.033423  0  -0.100887  -0.150951  0  4.000139  0
C  C121  1  0.06623156  0.93105553  0.04132557  1  -0.07617  0  -0.100595  -0.150057  0  3.998592  0
C  C122  1  0.23685016  0.08346097  0.50678211  1  -0.074125  0  -0.102637  -0.156793  0  4.019924  0
C  C123  1  0.15422439  0.91721272  0.99331128  1  -0.036413  0  -0.102893  -0.157711  0  4.021991  0
C  C124  1  0.76315191  0.91653258  0.49321188  1  -0.07405  0  -0.102624  -0.156817  0  4.019722  0
C  C125  1  0.84577084  0.08278331  0.00668958  1  -0.036329  0  -0.102876  -0.157733  0  4.02191  0
N  N126  1  0.48266861  0.74408993  0.78932684  1  -1.244399  0  -0.329095  -0.237666  0  3.541725  0
N  N127  1  0.73829626  0.25542367  0.71061494  1  -1.238568  0  -0.328825  -0.237711  0  3.543159  0
N  N128  1  0.51734528  0.25592724  0.21067393  1  -1.244514  0  -0.329138  -0.237847  0  3.541801  0
N  N129  1  0.26169860  0.74457485  0.28938595  1  -1.238456  0  -0.328779  -0.237655  0  3.542973  0
N  N130  1  0.54075589  0.49593893  0.94641278  1  -1.027657  0  -0.343344  -0.142389  0  3.48376  0
N  N131  1  0.04484961  0.50412798  0.55360272  1  -1.03058  0  -0.342697  -0.139776  0  3.481586  0
N  N132  1  0.45926011  0.50406954  0.05358824  1  -1.0278  0  -0.343212  -0.142115  0  3.483673  0
N  N133  1  0.95515669  0.49586432  0.44639771  1  -1.030041  0  -0.342745  -0.139889  0  3.481878  0
O  O134  1  0.30773166  0.90216381  0.69447075  1  -1.194155  0  -0.334328  -0.592295  0  2.258148  0
O  O135  1  0.40489497  0.09735725  0.80546505  1  -1.202407  0  -0.334574  -0.593311  0  2.25842  0
O  O136  1  0.69226419  0.09783347  0.30552708  1  -1.194004  0  -0.334356  -0.592307  0  2.258187  0
O  O137  1  0.59509653  0.90264749  0.19453592  1  -1.202746  0  -0.334566  -0.593238  0  2.25846  0
O  O138  1  0.62563485  0.88267097  0.65891401  1  -1.181973  0  -0.338222  -0.575312  0  2.128145  0
O  O139  1  0.74247029  0.11716591  0.84099773  1  -1.177464  0  -0.338473  -0.57642  0  2.125112  0
O  O140  1  0.37436859  0.11733501  0.34108547  1  -1.181873  0  -0.338203  -0.57533  0  2.128096  0
O  O141  1  0.25751500  0.88284256  0.15900292  1  -1.177006  0  -0.338501  -0.576424  0  2.125377  0
O  O142  1  0.01605459  0.99945888  0.74999338  1  -1.285856  0  -0.602451  -0.786837  0  2.078446  0
O  O143  1  0.98393754  0.00053093  0.25000777  1  -1.285664  0  -0.60242  -0.786852  0  2.078431  0
