# generated using pymatgen
data_CdH6C8(BrN)4
_symmetry_space_group_name_H-M   'P 1'
_cell_length_a   3.91455835
_cell_length_b   10.45473500
_cell_length_c   16.60859013
_cell_angle_alpha   89.99947110
_cell_angle_beta   90.00051942
_cell_angle_gamma   92.11273129
_symmetry_Int_Tables_number   1
_chemical_formula_structural   CdH6C8(BrN)4
_chemical_formula_sum   'Cd2 H12 C16 Br8 N8'
_cell_volume   679.25562803
_cell_formula_units_Z   2
loop_
 _symmetry_equiv_pos_site_id
 _symmetry_equiv_pos_as_xyz
  1  'x, y, z'
loop_
 _atom_site_type_symbol
 _atom_site_label
 _atom_site_symmetry_multiplicity
 _atom_site_fract_x
 _atom_site_fract_y
 _atom_site_fract_z
 _atom_site_occupancy
 _atom_site_hle17_bader_spin_density
 _atom_site_hle17_ddec_charge
 _atom_site_hle17_ddec_spin_density
 _atom_site_hle17_ddec_sum_bond_order
 _atom_site_hle17_magmom
 _atom_site_hse06_10hf_bader_spin_density
 _atom_site_hse06_10hf_ddec_charge
 _atom_site_hse06_10hf_ddec_spin_density
 _atom_site_hse06_10hf_ddec_sum_bond_order
 _atom_site_hse06_10hf_magmom
 _atom_site_hse06_bader_spin_density
 _atom_site_hse06_ddec_charge
 _atom_site_hse06_ddec_spin_density
 _atom_site_hse06_ddec_sum_bond_order
 _atom_site_hse06_magmom
 _atom_site_pbe_bader_spin_density
 _atom_site_pbe_cm5_charge
 _atom_site_pbe_ddec_charge
 _atom_site_pbe_ddec_spin_density
 _atom_site_pbe_ddec_sum_bond_order
 _atom_site_pbe_magmom
Cd  Cd0  1  0.50000677  0.99999935  0.50000152  1  0  0.829381  0  2.035561  0  0  0.664587  0  2.487035  0  0  0.713477  0  2.450164  0  0  0.527547  0.632409  0  2.509368  0
Cd  Cd1  1  0.50000978  0.50000757  0.00000268  1  0  0.829366  0  2.03556  0  0  0.664596  0  2.487014  0  0  0.713485  0  2.450143  0  0  0.527543  0.632421  0  2.509338  0
H  H2  1  0.72015500  0.30574417  0.51930945  1  0  0.092212  0  0.980647  0  0  0.091619  0  1.061189  0  0  0.095925  0  1.057233  0  0  0.095744  0.088346  0  1.064406  0
H  H3  1  0.27986045  0.19426137  0.01930721  1  0  0.092185  0  0.980594  0  0  0.091565  0  1.061199  0  0  0.095872  0  1.057243  0  0  0.095758  0.088292  0  1.064414  0
H  H4  1  0.27986725  0.69425628  0.48068928  1  0  0.092239  0  0.980712  0  0  0.091591  0  1.061303  0  0  0.095897  0  1.057347  0  0  0.095759  0.08832  0  1.064516  0
H  H5  1  0.72013401  0.80576498  0.98068671  1  0  0.092211  0  0.980645  0  0  0.091564  0  1.061226  0  0  0.09587  0  1.057269  0  0  0.095754  0.088291  0  1.06444  0
H  H6  1  0.26893656  0.23726846  0.78996490  1  0  0.083257  0  0.975806  0  0  0.084529  0  1.051108  0  0  0.088406  0  1.048035  0  0  0.09615  0.081776  0  1.05343  0
H  H7  1  0.73107569  0.26272754  0.28996923  1  0  0.08323  0  0.975788  0  0  0.084504  0  1.051084  0  0  0.088388  0  1.047988  0  0  0.096151  0.081754  0  1.053404  0
H  H8  1  0.73106004  0.76273108  0.21004286  1  0  0.083207  0  0.975907  0  0  0.084485  0  1.051176  0  0  0.08836  0  1.048104  0  0  0.096197  0.081735  0  1.053492  0
H  H9  1  0.26893667  0.73725282  0.71002649  1  0  0.083269  0  0.975798  0  0  0.084547  0  1.051087  0  0  0.088447  0  1.047952  0  0  0.096139  0.081781  0  1.053444  0
H  H10  1  0.31905446  0.05262779  0.69175607  1  0  0.097531  0  0.971394  0  0  0.093487  0  1.055168  0  0  0.097777  0  1.050627  0  0  0.105802  0.090107  0  1.058717  0
H  H11  1  0.68095101  0.44736481  0.19175922  1  0  0.097496  0  0.971434  0  0  0.093483  0  1.055197  0  0  0.097769  0  1.050655  0  0  0.105778  0.090101  0  1.058752  0
H  H12  1  0.68094662  0.94736599  0.30824929  1  0  0.097486  0  0.971482  0  0  0.093461  0  1.055254  0  0  0.097744  0  1.05072  0  0  0.105822  0.090084  0  1.058794  0
H  H13  1  0.31909104  0.55262986  0.80824554  1  0  0.097522  0  0.971348  0  0  0.093477  0  1.055156  0  0  0.097764  0  1.050616  0  0  0.105789  0.090092  0  1.058714  0
C  C14  1  0.62073212  0.29034569  0.57998221  1  0  0.031307  0  3.689641  0  0  -0.004202  0  3.944224  0  0  -0.002153  0  3.962773  0  0  0.035749  -0.005515  0  3.932234  0
C  C15  1  0.37927796  0.20965901  0.07998490  1  0  0.031422  0  3.689677  0  0  -0.004053  0  3.944208  0  0  -0.002006  0  3.96276  0  0  0.035786  -0.005365  0  3.932215  0
C  C16  1  0.37928204  0.70965095  0.42001652  1  0  0.031307  0  3.689849  0  0  -0.004157  0  3.944477  0  0  -0.002107  0  3.963027  0  0  0.035773  -0.005468  0  3.932479  0
C  C17  1  0.62070438  0.79035012  0.92001383  1  0  0.031297  0  3.689725  0  0  -0.004161  0  3.944318  0  0  -0.002111  0  3.962869  0  0  0.035737  -0.005475  0  3.932322  0
C  C18  1  0.60032828  0.38921992  0.63641294  1  0  0.184583  0  3.73754  0  0  0.188199  0  4.016843  0  0  0.194204  0  4.035326  0  0  0.110294  0.183405  0  4.005194  0
C  C19  1  0.39972192  0.11078104  0.13641324  1  0  0.184705  0  3.737284  0  0  0.188351  0  4.016524  0  0  0.194355  0  4.03501  0  0  0.110404  0.183556  0  4.004883  0
C  C20  1  0.39970142  0.61077860  0.36358700  1  0  0.184814  0  3.737176  0  0  0.188403  0  4.016513  0  0  0.194407  0  4.034996  0  0  0.110403  0.18361  0  4.004864  0
C  C21  1  0.60021083  0.88921861  0.86358188  1  0  0.184563  0  3.737711  0  0  0.188222  0  4.016896  0  0  0.194226  0  4.035386  0  0  0.110298  0.183428  0  4.005245  0
C  C22  1  0.37203659  0.25193876  0.72949324  1  0  0.092932  0  3.669159  0  0  0.071614  0  3.926915  0  0  0.072591  0  3.943623  0  0  0.049471  0.070365  0  3.916697  0
C  C23  1  0.62797348  0.24805905  0.22949744  1  0  0.093019  0  3.669101  0  0  0.071724  0  3.926864  0  0  0.072705  0  3.943573  0  0  0.049466  0.070472  0  3.916655  0
C  C24  1  0.62796033  0.74806365  0.27051091  1  0  0.092961  0  3.66913  0  0  0.071647  0  3.926945  0  0  0.072628  0  3.94365  0  0  0.049418  0.070397  0  3.916734  0
C  C25  1  0.37202493  0.75193378  0.77049828  1  0  0.092974  0  3.669122  0  0  0.071686  0  3.926873  0  0  0.07267  0  3.943593  0  0  0.049504  0.070434  0  3.916642  0
C  C26  1  0.39539732  0.15060767  0.67534929  1  0  0.071164  0  3.651704  0  0  0.039614  0  3.907413  0  0  0.043512  0  3.924128  0  0  0.042548  0.037154  0  3.896181  0
C  C27  1  0.60459538  0.34939093  0.17535345  1  0  0.071216  0  3.65171  0  0  0.039603  0  3.907475  0  0  0.0435  0  3.924195  0  0  0.042594  0.037141  0  3.896246  0
C  C28  1  0.60459183  0.84939379  0.32465245  1  0  0.07135  0  3.651441  0  0  0.039783  0  3.907108  0  0  0.043681  0  3.923821  0  0  0.042557  0.03732  0  3.895889  0
C  C29  1  0.39543431  0.65060759  0.82464648  1  0  0.071215  0  3.6516  0  0  0.039597  0  3.907426  0  0  0.04349  0  3.924149  0  0  0.042563  0.037137  0  3.896185  0
Br  Br30  1  0.98368404  0.87181569  0.58556355  1  0  -0.472195  0  1.129729  0  0  -0.406791  0  1.45568  0  0  -0.427904  0  1.433672  0  0  -0.241515  -0.392975  0  1.469804  0
Br  Br31  1  0.01633596  0.62819194  0.08555933  1  0  -0.472162  0  1.129699  0  0  -0.406779  0  1.455691  0  0  -0.427885  0  1.433685  0  0  -0.241509  -0.392969  0  1.469812  0
Br  Br32  1  0.01632778  0.12818287  0.41443880  1  0  -0.472188  0  1.129697  0  0  -0.406815  0  1.455715  0  0  -0.427922  0  1.433708  0  0  -0.241514  -0.393003  0  1.469839  0
Br  Br33  1  0.98366916  0.37181524  0.91444723  1  0  -0.472235  0  1.129772  0  0  -0.406852  0  1.455773  0  0  -0.427957  0  1.433768  0  0  -0.241519  -0.393039  0  1.469894  0
Br  Br34  1  0.75893003  0.55807799  0.60782439  1  0  -0.067839  0  1.382812  0  0  -0.068853  0  1.678711  0  0  -0.072756  0  1.670972  0  0  0.047065  -0.063988  0  1.683316  0
Br  Br35  1  0.24109454  0.94191686  0.10782605  1  0  -0.06789  0  1.382681  0  0  -0.068911  0  1.678571  0  0  -0.072804  0  1.670832  0  0  0.04702  -0.064041  0  1.683159  0
Br  Br36  1  0.24108658  0.44191768  0.39217915  1  0  -0.067883  0  1.382673  0  0  -0.068894  0  1.67862  0  0  -0.072792  0  1.670882  0  0  0.047045  -0.064026  0  1.68321  0
Br  Br37  1  0.75878319  0.05809341  0.89216064  1  0  -0.067831  0  1.382675  0  0  -0.068882  0  1.678628  0  0  -0.072777  0  1.670892  0  0  0.047032  -0.064019  0  1.683225  0
N  N38  1  0.51598497  0.17135846  0.60050315  1  0  -0.256172  0  3.264013  0  0  -0.18034  0  3.515693  0  0  -0.197305  0  3.539014  0  0  -0.308239  -0.169238  0  3.498216  0
N  N39  1  0.48402546  0.32864212  0.10050296  1  0  -0.256187  0  3.26406  0  0  -0.180375  0  3.515778  0  0  -0.197337  0  3.539098  0  0  -0.308247  -0.169273  0  3.498299  0
N  N40  1  0.48402153  0.82863819  0.39950281  1  0  -0.256306  0  3.263883  0  0  -0.180474  0  3.515589  0  0  -0.197436  0  3.538905  0  0  -0.30825  -0.169373  0  3.498114  0
N  N41  1  0.51599232  0.67136408  0.89949577  1  0  -0.256167  0  3.263935  0  0  -0.180328  0  3.51561  0  0  -0.197292  0  3.538937  0  0  -0.308253  -0.169226  0  3.498128  0
N  N42  1  0.47383902  0.37187787  0.70967374  1  0  -0.271497  0  3.077911  0  0  -0.241162  0  3.34143  0  0  -0.249044  0  3.356594  0  0  -0.296849  -0.235626  0  3.332041  0
N  N43  1  0.52619085  0.12812114  0.20967842  1  0  -0.271709  0  3.077819  0  0  -0.241395  0  3.341343  0  0  -0.249279  0  3.356506  0  0  -0.296976  -0.235863  0  3.331962  0
N  N44  1  0.52619313  0.62811969  0.29032379  1  0  -0.271671  0  3.077531  0  0  -0.241341  0  3.341077  0  0  -0.249222  0  3.356238  0  0  -0.296975  -0.235809  0  3.331696  0
N  N45  1  0.47377233  0.87187653  0.79031609  1  0  -0.271488  0  3.078057  0  0  -0.241173  0  3.341565  0  0  -0.249062  0  3.35674  0  0  -0.296817  -0.235636  0  3.33217  0
