# generated using pymatgen
data_CuH8C12N5
_symmetry_space_group_name_H-M   'P 1'
_cell_length_a   9.27347460
_cell_length_b   11.14726446
_cell_length_c   11.64824302
_cell_angle_alpha   107.04151534
_cell_angle_beta   90.00024835
_cell_angle_gamma   89.99979291
_symmetry_Int_Tables_number   1
_chemical_formula_structural   CuH8C12N5
_chemical_formula_sum   'Cu4 H32 C48 N20'
_cell_volume   1151.25412025
_cell_formula_units_Z   4
loop_
 _symmetry_equiv_pos_site_id
 _symmetry_equiv_pos_as_xyz
  1  'x, y, z'
loop_
 _atom_site_type_symbol
 _atom_site_label
 _atom_site_symmetry_multiplicity
 _atom_site_fract_x
 _atom_site_fract_y
 _atom_site_fract_z
 _atom_site_occupancy
 _atom_site_hle17_bader_spin_density
 _atom_site_hle17_ddec_charge
 _atom_site_hle17_ddec_spin_density
 _atom_site_hle17_ddec_sum_bond_order
 _atom_site_hle17_magmom
 _atom_site_hse06_10hf_bader_spin_density
 _atom_site_hse06_10hf_ddec_charge
 _atom_site_hse06_10hf_ddec_spin_density
 _atom_site_hse06_10hf_ddec_sum_bond_order
 _atom_site_hse06_10hf_magmom
 _atom_site_hse06_bader_spin_density
 _atom_site_hse06_ddec_charge
 _atom_site_hse06_ddec_spin_density
 _atom_site_hse06_ddec_sum_bond_order
 _atom_site_hse06_magmom
 _atom_site_pbe_bader_spin_density
 _atom_site_pbe_cm5_charge
 _atom_site_pbe_ddec_charge
 _atom_site_pbe_ddec_spin_density
 _atom_site_pbe_ddec_sum_bond_order
 _atom_site_pbe_magmom
Cu  Cu0  1  0.13484417  0.74576099  0.82624776  1  0  0.418629  0  2.02356  0  0  0.277127  0  2.533202  0  0  0.264031  0  2.49688  0  0  0.580088  0.290086  0  2.553255  0
Cu  Cu1  1  0.63484593  0.75423675  0.17375123  1  0  0.418583  0  2.02354  0  0  0.277076  0  2.533187  0  0  0.263976  0  2.496863  0  0  0.580059  0.29002  0  2.553254  0
Cu  Cu2  1  0.86515131  0.25423562  0.17375495  1  0  0.418598  0  2.023683  0  0  0.277093  0  2.533338  0  0  0.263926  0  2.496968  0  0  0.580109  0.290016  0  2.553383  0
Cu  Cu3  1  0.36515063  0.24576182  0.82624689  1  0  0.418623  0  2.023668  0  0  0.277075  0  2.533288  0  0  0.264041  0  2.497021  0  0  0.580105  0.290086  0  2.553397  0
H  H4  1  0.56669086  0.42985475  0.51644827  1  0  0.105949  0  0.982253  0  0  0.109184  0  1.057373  0  0  0.113256  0  1.054627  0  0  0.104047  0.106195  0  1.059649  0
H  H5  1  0.06669350  0.07013209  0.48354083  1  0  0.105873  0  0.982413  0  0  0.109114  0  1.057553  0  0  0.113184  0  1.054799  0  0  0.104048  0.106121  0  1.05983  0
H  H6  1  0.43331540  0.57014375  0.48355413  1  0  0.105937  0  0.982313  0  0  0.109186  0  1.057432  0  0  0.113261  0  1.054673  0  0  0.104043  0.106194  0  1.059709  0
H  H7  1  0.93331492  0.92985721  0.51644600  1  0  0.105895  0  0.982343  0  0  0.109145  0  1.05746  0  0  0.113214  0  1.054707  0  0  0.104046  0.106153  0  1.059737  0
H  H8  1  0.71459348  0.24872746  0.40258129  1  0  0.098538  0  0.955648  0  0  0.10386  0  1.025916  0  0  0.108355  0  1.02131  0  0  0.103865  0.100602  0  1.029158  0
H  H9  1  0.21461527  0.25125349  0.59740576  1  0  0.098438  0  0.955506  0  0  0.103787  0  1.025781  0  0  0.108279  0  1.021182  0  0  0.103817  0.100523  0  1.029024  0
H  H10  1  0.28541063  0.75127755  0.59742730  1  0  0.09853  0  0.955591  0  0  0.10388  0  1.025853  0  0  0.108373  0  1.021249  0  0  0.103863  0.100611  0  1.029092  0
H  H11  1  0.78539638  0.74873677  0.40257964  1  0  0.098457  0  0.955689  0  0  0.103833  0  1.025921  0  0  0.108328  0  1.021318  0  0  0.10385  0.100566  0  1.02916  0
H  H12  1  0.72571941  0.05603298  0.47535854  1  0  0.10547  0  0.986554  0  0  0.110953  0  1.052363  0  0  0.114143  0  1.052129  0  0  0.102183  0.108594  0  1.052927  0
H  H13  1  0.22572049  0.44396372  0.52464688  1  0  0.105531  0  0.986458  0  0  0.111016  0  1.052291  0  0  0.114208  0  1.05205  0  0  0.102152  0.10865  0  1.052865  0
H  H14  1  0.27430087  0.94397765  0.52465255  1  0  0.105497  0  0.986603  0  0  0.111011  0  1.05236  0  0  0.114204  0  1.052122  0  0  0.102183  0.108647  0  1.052932  0
H  H15  1  0.77428362  0.55603582  0.47534895  1  0  0.105463  0  0.986522  0  0  0.110927  0  1.052386  0  0  0.11412  0  1.052142  0  0  0.102134  0.108558  0  1.052963  0
H  H16  1  0.58621987  0.05710034  0.65939134  1  0  0.062893  0  0.964458  0  0  0.07344  0  1.02731  0  0  0.076071  0  1.024595  0  0  0.108868  0.071194  0  1.029844  0
H  H17  1  0.08620918  0.44290495  0.34062297  1  0  0.062911  0  0.964425  0  0  0.073441  0  1.027283  0  0  0.076074  0  1.024566  0  0  0.108886  0.071192  0  1.029817  0
H  H18  1  0.41378963  0.94290660  0.34061353  1  0  0.062841  0  0.96444  0  0  0.073374  0  1.027302  0  0  0.07601  0  1.024578  0  0  0.108843  0.071121  0  1.029843  0
H  H19  1  0.91377875  0.55710202  0.65938018  1  0  0.06294  0  0.964337  0  0  0.073473  0  1.027185  0  0  0.076105  0  1.024463  0  0  0.108873  0.071209  0  1.029737  0
H  H20  1  0.24475956  0.44121966  0.05434845  1  0  0.109596  0  0.949958  0  0  0.117438  0  1.015272  0  0  0.121936  0  1.012511  0  0  0.106614  0.114283  0  1.0172  0
H  H21  1  0.74475560  0.05878184  0.94564814  1  0  0.109629  0  0.950008  0  0  0.117498  0  1.015286  0  0  0.121997  0  1.012517  0  0  0.106665  0.114344  0  1.017208  0
H  H22  1  0.75524670  0.55878171  0.94565135  1  0  0.109657  0  0.949984  0  0  0.117547  0  1.015235  0  0  0.122049  0  1.012472  0  0  0.106664  0.114392  0  1.017163  0
H  H23  1  0.25524095  0.94122333  0.05434934  1  0  0.109626  0  0.949948  0  0  0.117453  0  1.015273  0  0  0.121952  0  1.012514  0  0  0.10664  0.1143  0  1.017195  0
H  H24  1  0.12681264  0.55846427  0.24999195  1  0  0.08244  0  0.963383  0  0  0.096837  0  1.018745  0  0  0.099512  0  1.016331  0  0  0.102174  0.094995  0  1.020421  0
H  H25  1  0.62681120  0.94153167  0.75000219  1  0  0.082471  0  0.963352  0  0  0.096837  0  1.01875  0  0  0.099513  0  1.016334  0  0  0.102151  0.095003  0  1.020416  0
H  H26  1  0.87319901  0.44153614  0.75000928  1  0  0.082447  0  0.963271  0  0  0.096797  0  1.01868  0  0  0.09949  0  1.016243  0  0  0.102148  0.094941  0  1.020374  0
H  H27  1  0.37318428  0.05846694  0.24999251  1  0  0.082452  0  0.963367  0  0  0.096819  0  1.018765  0  0  0.099491  0  1.016362  0  0  0.102171  0.095009  0  1.020404  0
H  H28  1  0.99728959  0.76108735  0.26276218  1  0  0.105471  0  0.982547  0  0  0.10889  0  1.054395  0  0  0.11253  0  1.052593  0  0  0.10307  0.106498  0  1.055529  0
H  H29  1  0.49729170  0.73890132  0.73723372  1  0  0.105442  0  0.982563  0  0  0.10887  0  1.054398  0  0  0.112504  0  1.052587  0  0  0.103065  0.106478  0  1.05553  0
H  H30  1  0.00271344  0.23890645  0.73723970  1  0  0.10551  0  0.982509  0  0  0.108922  0  1.054368  0  0  0.112546  0  1.052569  0  0  0.103081  0.106532  0  1.055502  0
H  H31  1  0.50269947  0.26109627  0.26276669  1  0  0.105395  0  0.982579  0  0  0.108821  0  1.054428  0  0  0.112435  0  1.052644  0  0  0.103062  0.106431  0  1.055559  0
H  H32  1  0.99043281  0.83590954  0.08173178  1  0  0.077993  0  0.956591  0  0  0.085596  0  1.020748  0  0  0.088154  0  1.018942  0  0  0.113205  0.08382  0  1.021925  0
H  H33  1  0.49043625  0.66408749  0.91827342  1  0  0.078077  0  0.956643  0  0  0.085675  0  1.020784  0  0  0.088233  0  1.018977  0  0  0.113225  0.083901  0  1.021962  0
H  H34  1  0.00957022  0.16409547  0.91827682  1  0  0.078118  0  0.956615  0  0  0.085703  0  1.020778  0  0  0.088261  0  1.018971  0  0  0.11323  0.08393  0  1.021956  0
H  H35  1  0.50956247  0.33591097  0.08173240  1  0  0.078086  0  0.956691  0  0  0.085677  0  1.020843  0  0  0.088234  0  1.01904  0  0  0.113225  0.083904  0  1.022024  0
C  C36  1  0.40312810  0.43625552  0.71795635  1  0  0.225045  0  3.8343  0  0  0.20702  0  4.095605  0  0  0.213444  0  4.114365  0  0  0.188737  0.202623  0  4.082752  0
C  C37  1  0.90313242  0.06374854  0.28203897  1  0  0.225137  0  3.834431  0  0  0.206954  0  4.095853  0  0  0.213381  0  4.11461  0  0  0.188699  0.202562  0  4.082992  0
C  C38  1  0.59686631  0.56374677  0.28204458  1  0  0.22503  0  3.834423  0  0  0.206957  0  4.095755  0  0  0.213377  0  4.114518  0  0  0.188683  0.202561  0  4.082895  0
C  C39  1  0.09686845  0.93624917  0.71795289  1  0  0.224939  0  3.834522  0  0  0.206896  0  4.095838  0  0  0.213327  0  4.114594  0  0  0.188686  0.202507  0  4.082979  0
C  C40  1  0.25914554  0.52841905  0.85703241  1  0  0.235506  0  3.822226  0  0  0.214239  0  4.079305  0  0  0.221369  0  4.096386  0  0  0.19006  0.210371  0  4.067483  0
C  C41  1  0.75914394  0.97158132  0.14296436  1  0  0.235535  0  3.822158  0  0  0.214175  0  4.079337  0  0  0.221304  0  4.096416  0  0  0.190078  0.210307  0  4.067509  0
C  C42  1  0.74084778  0.47157388  0.14296407  1  0  0.235476  0  3.822308  0  0  0.214247  0  4.079309  0  0  0.221388  0  4.09637  0  0  0.190029  0.210373  0  4.067494  0
C  C43  1  0.24084723  0.02842101  0.85703401  1  0  0.235397  0  3.822471  0  0  0.214204  0  4.079428  0  0  0.221337  0  4.096508  0  0  0.190018  0.21034  0  4.0676  0
C  C44  1  0.49846997  0.33898491  0.64814161  1  0  0.158814  0  3.786133  0  0  0.159256  0  4.018811  0  0  0.16635  0  4.036996  0  0  0.110388  0.153946  0  4.00715  0
C  C45  1  0.99846989  0.16101704  0.35185773  1  0  0.158634  0  3.786628  0  0  0.159237  0  4.019099  0  0  0.166326  0  4.037284  0  0  0.110387  0.153926  0  4.007431  0
C  C46  1  0.50152875  0.66101549  0.35185963  1  0  0.158723  0  3.786389  0  0  0.159252  0  4.018967  0  0  0.166343  0  4.037155  0  0  0.110369  0.15394  0  4.0073  0
C  C47  1  0.00152775  0.83898531  0.64813893  1  0  0.158774  0  3.786511  0  0  0.159243  0  4.019124  0  0  0.166333  0  4.037311  0  0  0.110357  0.153931  0  4.00746  0
C  C48  1  0.57393007  0.34636037  0.54640463  1  0  -0.14285  0  3.714174  0  0  -0.159956  0  3.958248  0  0  -0.167535  0  3.978547  0  0  -0.083819  -0.155333  0  3.945643  0
C  C49  1  0.07393214  0.15362553  0.45358336  1  0  -0.142648  0  3.714433  0  0  -0.159811  0  3.958458  0  0  -0.167382  0  3.978752  0  0  -0.083776  -0.15519  0  3.945842  0
C  C50  1  0.42607296  0.65363908  0.45359804  1  0  -0.142794  0  3.714273  0  0  -0.159969  0  3.958378  0  0  -0.167544  0  3.97868  0  0  -0.083787  -0.155345  0  3.945765  0
C  C51  1  0.92607196  0.84636470  0.54640460  1  0  -0.142753  0  3.714277  0  0  -0.159895  0  3.958392  0  0  -0.167468  0  3.978686  0  0  -0.083795  -0.155278  0  3.94578  0
C  C52  1  0.65689041  0.24461001  0.48294611  1  0  -0.010143  0  3.719466  0  0  -0.025674  0  3.963608  0  0  -0.021143  0  3.981017  0  0  -0.075477  -0.028909  0  3.952863  0
C  C53  1  0.15688695  0.25538038  0.51704693  1  0  -0.009954  0  3.719124  0  0  -0.025511  0  3.963288  0  0  -0.020974  0  3.980693  0  0  -0.07539  -0.028731  0  3.952525  0
C  C54  1  0.34311908  0.75539408  0.51706136  1  0  -0.00999  0  3.719336  0  0  -0.025555  0  3.963528  0  0  -0.021017  0  3.980934  0  0  -0.075412  -0.028774  0  3.952764  0
C  C55  1  0.84311500  0.74461360  0.48294213  1  0  -0.010061  0  3.719257  0  0  -0.02566  0  3.963458  0  0  -0.021127  0  3.980866  0  0  -0.075459  -0.028876  0  3.952691  0
C  C56  1  0.66284863  0.13807644  0.52320586  1  0  -0.132391  0  3.74132  0  0  -0.142302  0  3.98586  0  0  -0.14957  0  4.008807  0  0  -0.094323  -0.138151  0  3.971254  0
C  C57  1  0.16284660  0.36192140  0.47679280  1  0  -0.132651  0  3.741216  0  0  -0.142579  0  3.985776  0  0  -0.14985  0  4.008728  0  0  -0.094372  -0.138424  0  3.971161  0
C  C58  1  0.33716087  0.86193049  0.47680071  1  0  -0.132609  0  3.741335  0  0  -0.142541  0  3.985876  0  0  -0.149815  0  4.008823  0  0  -0.094383  -0.138388  0  3.971263  0
C  C59  1  0.83716182  0.63807443  0.52319851  1  0  -0.132395  0  3.741045  0  0  -0.142296  0  3.985605  0  0  -0.149562  0  4.008556  0  0  -0.094289  -0.138138  0  3.970986  0
C  C60  1  0.58577315  0.13848271  0.62570163  1  0  0.121388  0  3.740277  0  0  0.09344  0  3.987791  0  0  0.098818  0  4.004819  0  0  0.038316  0.090005  0  3.977241  0
C  C61  1  0.08576519  0.36151990  0.37430245  1  0  0.121548  0  3.740306  0  0  0.093589  0  3.987799  0  0  0.098964  0  4.004823  0  0  0.038399  0.090157  0  3.97724  0
C  C62  1  0.41422987  0.86152237  0.37430183  1  0  0.121517  0  3.740112  0  0  0.093574  0  3.987612  0  0  0.098953  0  4.004638  0  0  0.038336  0.090141  0  3.977055  0
C  C63  1  0.91423245  0.63848244  0.62569506  1  0  0.121412  0  3.740206  0  0  0.093472  0  3.987674  0  0  0.098846  0  4.004703  0  0  0.038347  0.090047  0  3.977117  0
C  C64  1  0.18125366  0.57936253  0.96838103  1  0  0.157533  0  3.7816  0  0  0.15755  0  4.016637  0  0  0.164977  0  4.034246  0  0  0.108897  0.152526  0  4.005019  0
C  C65  1  0.68125279  0.92063982  0.03161947  1  0  0.157471  0  3.781536  0  0  0.157522  0  4.016581  0  0  0.16495  0  4.034195  0  0  0.10889  0.15249  0  4.004962  0
C  C66  1  0.81874398  0.42063225  0.03161857  1  0  0.15754  0  3.781678  0  0  0.157509  0  4.016734  0  0  0.164934  0  4.03434  0  0  0.108841  0.152486  0  4.005121  0
C  C67  1  0.31873946  0.07936341  0.96838173  1  0  0.157531  0  3.781606  0  0  0.157529  0  4.016615  0  0  0.164953  0  4.034227  0  0  0.108862  0.152498  0  4.005002  0
C  C68  1  0.18704423  0.52889362  0.06488941  1  0  -0.127605  0  3.697165  0  0  -0.144826  0  3.941927  0  0  -0.151369  0  3.960824  0  0  -0.081829  -0.140756  0  3.928948  0
C  C69  1  0.68703824  0.97111058  0.93511251  1  0  -0.127649  0  3.697172  0  0  -0.144888  0  3.941922  0  0  -0.151427  0  3.960814  0  0  -0.081888  -0.140817  0  3.928947  0
C  C70  1  0.81295664  0.47110674  0.93511525  1  0  -0.127861  0  3.697344  0  0  -0.145124  0  3.942081  0  0  -0.151675  0  3.960989  0  0  -0.081949  -0.141048  0  3.929095  0
C  C71  1  0.31295400  0.02889547  0.06488951  1  0  -0.127598  0  3.697265  0  0  -0.14481  0  3.942025  0  0  -0.151356  0  3.960923  0  0  -0.08183  -0.14074  0  3.929056  0
C  C72  1  0.12139583  0.59402700  0.17246328  1  0  -0.007324  0  3.742606  0  0  -0.026867  0  3.991147  0  0  -0.022294  0  4.008773  0  0  -0.07536  -0.029079  0  3.977904  0
C  C73  1  0.62139389  0.90597075  0.82753653  1  0  -0.007286  0  3.742435  0  0  -0.02681  0  3.990976  0  0  -0.022237  0  4.008604  0  0  -0.075248  -0.029026  0  3.977731  0
C  C74  1  0.87860504  0.40597241  0.82754196  1  0  -0.007101  0  3.742324  0  0  -0.026575  0  3.990811  0  0  -0.022008  0  4.008433  0  0  -0.0752  -0.02877  0  3.977564  0
C  C75  1  0.37859943  0.09403061  0.17246413  1  0  -0.007329  0  3.742614  0  0  -0.026844  0  3.99115  0  0  -0.022276  0  4.008776  0  0  -0.075333  -0.029083  0  3.977908  0
C  C76  1  0.04991536  0.70643915  0.18054114  1  0  -0.125276  0  3.740991  0  0  -0.140949  0  3.99803  0  0  -0.146081  0  4.017082  0  0  -0.091572  -0.137327  0  3.984384  0
C  C77  1  0.54991284  0.79355401  0.81945879  1  0  -0.125274  0  3.740925  0  0  -0.140958  0  3.997958  0  0  -0.146074  0  4.017027  0  0  -0.09163  -0.137333  0  3.984315  0
C  C78  1  0.95008767  0.29355648  0.81946471  1  0  -0.125411  0  3.74113  0  0  -0.141103  0  3.998174  0  0  -0.146216  0  4.017258  0  0  -0.091668  -0.137478  0  3.984524  0
C  C79  1  0.45007725  0.20644639  0.18054245  1  0  -0.125158  0  3.741061  0  0  -0.14084  0  3.9981  0  0  -0.14594  0  4.017173  0  0  -0.091557  -0.137214  0  3.984464  0
C  C80  1  0.04620656  0.74944558  0.07977949  1  0  0.124409  0  3.712192  0  0  0.0955  0  3.965821  0  0  0.102509  0  3.979114  0  0  0.03794  0.090722  0  3.956739  0
C  C81  1  0.54620155  0.75055225  0.92022351  1  0  0.1243  0  3.712372  0  0  0.095395  0  3.965994  0  0  0.102402  0  3.979288  0  0  0.037966  0.090606  0  3.956914  0
C  C82  1  0.95379646  0.25055475  0.92022688  1  0  0.124322  0  3.712667  0  0  0.095402  0  3.966264  0  0  0.102408  0  3.979551  0  0  0.037959  0.090623  0  3.957185  0
C  C83  1  0.45379069  0.24944813  0.07977944  1  0  0.124305  0  3.712544  0  0  0.095385  0  3.966156  0  0  0.102389  0  3.979447  0  0  0.037888  0.0906  0  3.957086  0
N  N84  1  0.36325707  0.54171922  0.69215145  1  0  -0.2755  0  2.949429  0  0  -0.246826  0  3.219225  0  0  -0.257538  0  3.235716  0  0  -0.226185  -0.23972  0  3.208449  0
N  N85  1  0.86326612  0.95828385  0.30784217  1  0  -0.27558  0  2.949368  0  0  -0.246877  0  3.219201  0  0  -0.257588  0  3.235694  0  0  -0.226183  -0.239773  0  3.208423  0
N  N86  1  0.63673949  0.45827934  0.30784753  1  0  -0.275549  0  2.949413  0  0  -0.246886  0  3.219221  0  0  -0.257596  0  3.235706  0  0  -0.226194  -0.23978  0  3.208441  0
N  N87  1  0.13673907  0.04171944  0.69215475  1  0  -0.275432  0  2.949423  0  0  -0.246774  0  3.219221  0  0  -0.257485  0  3.235712  0  0  -0.226134  -0.239669  0  3.208447  0
N  N88  1  0.27131105  0.60037651  0.78137194  1  0  -0.273911  0  3.293993  0  0  -0.218632  0  3.620774  0  0  -0.224392  0  3.627686  0  0  -0.277335  -0.21568  0  3.616068  0
N  N89  1  0.77131774  0.89962293  0.21862288  1  0  -0.273817  0  3.29382  0  0  -0.218506  0  3.62059  0  0  -0.224264  0  3.6275  0  0  -0.277327  -0.215554  0  3.61589  0
N  N90  1  0.72868551  0.39962109  0.21862762  1  0  -0.273775  0  3.293919  0  0  -0.218476  0  3.620624  0  0  -0.224222  0  3.627501  0  0  -0.277286  -0.215517  0  3.615909  0
N  N91  1  0.22868097  0.10038126  0.78137689  1  0  -0.273902  0  3.294164  0  0  -0.218621  0  3.620876  0  0  -0.22439  0  3.627815  0  0  -0.277373  -0.215682  0  3.616202  0
N  N92  1  0.33906180  0.42262637  0.81919875  1  0  -0.445865  0  3.260561  0  0  -0.385944  0  3.572823  0  0  -0.395657  0  3.576841  0  0  -0.382662  -0.379426  0  3.568438  0
N  N93  1  0.83906121  0.07737207  0.18080243  1  0  -0.44587  0  3.260705  0  0  -0.385907  0  3.573062  0  0  -0.395586  0  3.577006  0  0  -0.382669  -0.379369  0  3.568627  0
N  N94  1  0.66093584  0.57736655  0.18079859  1  0  -0.445846  0  3.260666  0  0  -0.385937  0  3.572918  0  0  -0.39564  0  3.576906  0  0  -0.382622  -0.3794  0  3.568501  0
N  N95  1  0.16093320  0.92262839  0.81919453  1  0  -0.445704  0  3.260714  0  0  -0.385826  0  3.572954  0  0  -0.395527  0  3.576944  0  0  -0.382572  -0.379294  0  3.568528  0
N  N96  1  0.50498136  0.23593269  0.68835424  1  0  -0.317745  0  3.31076  0  0  -0.252505  0  3.603557  0  0  -0.258559  0  3.607827  0  0  -0.353541  -0.249862  0  3.601126  0
N  N97  1  0.00497784  0.26406902  0.31165702  1  0  -0.317824  0  3.311157  0  0  -0.252564  0  3.603847  0  0  -0.258587  0  3.608054  0  0  -0.353611  -0.2499  0  3.60137  0
N  N98  1  0.49501843  0.76406859  0.31165155  1  0  -0.317778  0  3.310787  0  0  -0.252529  0  3.603522  0  0  -0.258566  0  3.607757  0  0  -0.353546  -0.249871  0  3.601059  0
N  N99  1  0.99502087  0.73593330  0.68834220  1  0  -0.317852  0  3.311048  0  0  -0.252565  0  3.603769  0  0  -0.258608  0  3.60801  0  0  -0.353572  -0.249908  0  3.601299  0
N  N100  1  0.11025953  0.68888504  0.97513683  1  0  -0.331026  0  3.323452  0  0  -0.265801  0  3.621906  0  0  -0.271306  0  3.62463  0  0  -0.356354  -0.262196  0  3.619572  0
N  N101  1  0.61025591  0.81112025  0.02486342  1  0  -0.331008  0  3.323375  0  0  -0.265779  0  3.621811  0  0  -0.271293  0  3.624547  0  0  -0.356409  -0.262153  0  3.619466  0
N  N102  1  0.88973487  0.31110971  0.02486447  1  0  -0.331062  0  3.323623  0  0  -0.265765  0  3.622023  0  0  -0.271252  0  3.624713  0  0  -0.356312  -0.26215  0  3.619679  0
N  N103  1  0.38973634  0.18888583  0.97513604  1  0  -0.33114  0  3.323344  0  0  -0.265861  0  3.621747  0  0  -0.271384  0  3.624512  0  0  -0.356351  -0.26227  0  3.619455  0
