# generated using pymatgen
data_AlH10(C3O)5
_symmetry_space_group_name_H-M   'P 1'
_cell_length_a   6.61224085
_cell_length_b   11.16906620
_cell_length_c   17.69821382
_cell_angle_alpha   83.05002324
_cell_angle_beta   80.89068567
_cell_angle_gamma   71.32594089
_symmetry_Int_Tables_number   1
_chemical_formula_structural   AlH10(C3O)5
_chemical_formula_sum   'Al2 H20 C30 O10'
_cell_volume   1219.17312877
_cell_formula_units_Z   2
loop_
 _symmetry_equiv_pos_site_id
 _symmetry_equiv_pos_as_xyz
  1  'x, y, z'
loop_
 _atom_site_type_symbol
 _atom_site_label
 _atom_site_symmetry_multiplicity
 _atom_site_fract_x
 _atom_site_fract_y
 _atom_site_fract_z
 _atom_site_occupancy
 _atom_site_pbe_bader_charge
 _atom_site_pbe_bader_spin_density
 _atom_site_pbe_cm5_charge
 _atom_site_pbe_ddec_charge
 _atom_site_pbe_ddec_spin_density
 _atom_site_pbe_ddec_sum_bond_order
 _atom_site_pbe_magmom
Al  Al0  1  0.48406225  0.49893743  0.49987937  1  2.501986  0  0.39356  1.64362  0  2.583932  0
Al  Al1  1  0.98363020  0.49980446  0.49889739  1  2.500455  0  0.393362  1.634949  0  2.584703  0
H  H2  1  0.29284913  0.34614598  0.54389738  1  0.599426  0  0.354301  0.429796  0  0.856093  0
H  H3  1  0.66828764  0.65490811  0.46268784  1  0.648289  0  0.340599  0.411335  0  0.898776  0
H  H4  1  0.61440984  0.56097941  0.27191018  1  0.095515  0  0.111394  0.11751  0  1.000591  0
H  H5  1  0.69708704  0.56513067  0.12875237  1  0.094366  0  0.10484  0.106842  0  1.000363  0
H  H6  1  0.13492668  0.45319362  0.11899831  1  0.068313  0  0.105603  0.106757  0  0.998898  0
H  H7  1  0.05203516  0.45327971  0.26198058  1  0.099903  0  0.11084  0.115764  0  0.995521  0
H  H8  1  0.84070145  0.56039585  0.87510544  1  0.056982  0  0.104753  0.106178  0  0.999715  0
H  H9  1  0.91990022  0.55192464  0.73232498  1  0.084921  0  0.111194  0.116554  0  0.995608  0
H  H10  1  0.34754015  0.45045329  0.72922561  1  0.097901  0  0.112272  0.118876  0  0.995398  0
H  H11  1  0.26878744  0.45477382  0.87216273  1  0.08302  0  0.1042  0.105487  0  1.002682  0
H  H12  1  0.24314250  0.23199395  0.40166232  1  0.120769  0  0.103597  0.116095  0  1.039876  0
H  H13  1  0.43881416  0.76532179  0.39895031  1  0.071941  0  0.106304  0.109311  0  1.051842  0
H  H14  1  0.73957269  0.88529095  0.54448783  1  0.0988  0  0.112439  0.118067  0  0.982132  0
H  H15  1  0.62778889  0.12164120  0.53766348  1  0.089682  0  0.109278  0.110002  0  0.994526  0
H  H16  1  0.78932666  0.09968080  0.34285824  1  0.0668  0  0.090575  0.126999  0  1.017295  0
H  H17  1  0.56558709  0.23513500  0.32698027  1  0.055847  0  0.091091  0.131199  0  1.0106  0
H  H18  1  0.66282832  0.11662586  0.25977046  1  0.05298  0  0.092554  0.126028  0  0.991693  0
H  H19  1  0.75738895  0.88545057  0.25836303  1  0.046492  0  0.093424  0.126913  0  0.991823  0
H  H20  1  0.76785055  0.75283432  0.32638046  1  0.050304  0  0.094807  0.135731  0  0.999083  0
H  H21  1  0.88674304  0.86873285  0.34072761  1  0.049471  0  0.091803  0.128902  0  1.010332  0
C  C22  1  0.85520715  0.27357195  0.48651374  1  1.585717  0  0.274663  0.656531  0  4.071159  0
C  C23  1  0.68517328  0.49526044  0.63778357  1  1.587743  0  0.264542  0.632385  0  4.112439  0
C  C24  1  0.12058490  0.72697437  0.49839401  1  1.563344  0  0.273911  0.653495  0  4.078756  0
C  C25  1  0.28178174  0.50711024  0.36008768  1  1.55418  0  0.260523  0.620335  0  4.131646  0
C  C26  1  0.32864589  0.50735883  0.27497042  1  -0.070563  0  -0.015149  -0.04673  0  3.97784  0
C  C27  1  0.51093596  0.53822487  0.23737387  1  0.002241  0  -0.079402  -0.085649  0  3.979322  0
C  C28  1  0.55671032  0.54001965  0.15807325  1  -0.050425  0  -0.082583  -0.129107  0  3.948356  0
C  C29  1  0.42111616  0.50941749  0.11436662  1  0.055786  0  0.004587  0.146959  0  4.110415  0
C  C30  1  0.23855913  0.47760689  0.15270085  1  -0.056926  0  -0.083121  -0.129281  0  3.945014  0
C  C31  1  0.19271673  0.47730045  0.23201175  1  0.036803  0  -0.078042  -0.084602  0  3.982394  0
C  C32  1  0.46681403  0.51019210  0.03355119  1  -0.177526  0  -0.044671  -0.110426  0  4.12155  0
C  C33  1  0.50557232  0.50990011  0.96375367  1  -0.185875  0  -0.042458  -0.103135  0  4.118252  0
C  C34  1  0.54973598  0.50777463  0.88301496  1  0.081705  0  0.003635  0.144851  0  4.110963  0
C  C35  1  0.73391921  0.53561923  0.84295327  1  -0.025691  0  -0.08274  -0.130385  0  3.947276  0
C  C36  1  0.77780161  0.53124898  0.76378840  1  -0.022059  0  -0.077813  -0.083254  0  3.979615  0
C  C37  1  0.63853234  0.50036541  0.72274723  1  0.036719  0  -0.014212  -0.043672  0  3.967078  0
C  C38  1  0.45407603  0.47393869  0.76205737  1  -0.085525  0  -0.077772  -0.08456  0  3.978648  0
C  C39  1  0.41023763  0.47684953  0.84123945  1  -0.02233  0  -0.082201  -0.127832  0  3.947198  0
C  C40  1  0.93184877  0.13378250  0.48058999  1  -0.061222  0  -0.008024  -0.08647  0  3.936452  0
C  C41  1  0.14098066  0.06750086  0.44412818  1  -0.065563  0  -0.003124  0.057659  0  3.981858  0
C  C42  1  0.78874570  0.06848529  0.51310918  1  0.016238  0  -0.08031  -0.090229  0  4.006725  0
C  C43  1  0.28731697  0.12914172  0.40305855  1  -0.054299  0  -0.096522  -0.203422  0  3.94382  0
C  C44  1  0.48269876  0.06348839  0.36407029  1  -0.025235  0  -0.005514  0.121838  0  3.950204  0
C  C45  1  0.05571922  0.86776546  0.48574551  1  -0.076283  0  -0.00756  -0.083083  0  3.943184  0
C  C46  1  0.85055366  0.93586874  0.51640098  1  -0.015137  0  -0.08063  -0.094579  0  4.001391  0
C  C47  1  0.20148451  0.93168677  0.44535757  1  0.028047  0  -0.003662  0.060155  0  3.985881  0
C  C48  1  0.39943075  0.86700742  0.40288405  1  -0.013681  0  -0.099835  -0.215256  0  3.970273  0
C  C49  1  0.53968877  0.92866618  0.36341707  1  -0.029354  0  -0.006997  0.121494  0  3.95595  0
C  C50  1  0.63188390  0.13280943  0.32126655  1  -0.095261  0  -0.237403  -0.401297  0  3.964862  0
C  C51  1  0.74804618  0.85479098  0.31997634  1  -0.090736  0  -0.236641  -0.403411  0  3.96316  0
O  O52  1  0.65752081  0.33014581  0.47966063  1  -1.261112  0  -0.233028  -0.59157  0  2.338426  0
O  O53  1  0.86127897  0.51211702  0.60518455  1  -1.260147  0  -0.237732  -0.588468  0  2.336857  0
O  O54  1  0.98157259  0.67304338  0.49196237  1  -1.26224  0  -0.230511  -0.590182  0  2.344739  0
O  O55  1  0.42039505  0.52816506  0.39492726  1  -1.258801  0  -0.240845  -0.600519  0  2.378731  0
O  O56  1  0.30906998  0.66973603  0.51578783  1  -1.264151  0  -0.236362  -0.591191  0  2.34238  0
O  O57  1  0.10729023  0.48717975  0.39186186  1  -1.257794  0  -0.238605  -0.588935  0  2.350839  0
O  O58  1  0.98742339  0.32702406  0.50069933  1  -1.267243  0  -0.232082  -0.595446  0  2.358117  0
O  O59  1  0.54524836  0.47317384  0.60406277  1  -1.268538  0  -0.240093  -0.600633  0  2.352448  0
O  O60  1  0.25324625  0.43691078  0.53144450  1  -1.403168  0  -0.44803  -0.9869  0  2.205198  0
O  O61  1  0.71299134  0.56283644  0.46702186  1  -1.455799  0  -0.450979  -0.988393  0  2.217208  0
