# generated using pymatgen
data_Zn2H20C28S(NO4)2
_symmetry_space_group_name_H-M   'P 1'
_cell_length_a   10.07322229
_cell_length_b   9.28717128
_cell_length_c   16.77483352
_cell_angle_alpha   82.36793139
_cell_angle_beta   88.38475300
_cell_angle_gamma   68.53218768
_symmetry_Int_Tables_number   1
_chemical_formula_structural   Zn2H20C28S(NO4)2
_chemical_formula_sum   'Zn4 H40 C56 S2 N4 O16'
_cell_volume   1447.14878787
_cell_formula_units_Z   2
loop_
 _symmetry_equiv_pos_site_id
 _symmetry_equiv_pos_as_xyz
  1  'x, y, z'
loop_
 _atom_site_type_symbol
 _atom_site_label
 _atom_site_symmetry_multiplicity
 _atom_site_fract_x
 _atom_site_fract_y
 _atom_site_fract_z
 _atom_site_occupancy
 _atom_site_pbe_bader_charge
 _atom_site_pbe_bader_spin_density
 _atom_site_pbe_cm5_charge
 _atom_site_pbe_ddec_charge
 _atom_site_pbe_ddec_spin_density
 _atom_site_pbe_ddec_sum_bond_order
 _atom_site_pbe_magmom
Zn  Zn0  1  0.09244403  0.09410562  0.96866753  1  1.319934  0  0.676602  0.927986  0  2.290232  0
Zn  Zn1  1  0.18794945  0.88994414  0.14982506  1  1.289696  0  0.693862  0.895201  0  2.325024  0
Zn  Zn2  1  0.90755325  0.90589504  0.03133188  1  1.320061  0  0.676589  0.927965  0  2.290291  0
Zn  Zn3  1  0.81204884  0.11005055  0.85017247  1  1.289815  0  0.693814  0.895169  0  2.324991  0
H  H4  1  0.97760908  0.02556434  0.70271586  1  0.106507  0  0.122679  0.09503  0  0.977592  0
H  H5  1  0.07618007  0.15807078  0.59111182  1  0.061196  0  0.106555  0.110907  0  1.006887  0
H  H6  1  0.88747457  0.58296796  0.70018165  1  0.126043  0  0.112517  0.131248  0  1.017361  0
H  H7  1  0.79070592  0.43505943  0.80401821  1  0.149923  0  0.124818  0.097925  0  0.994493  0
H  H8  1  0.07493742  0.55509165  0.59056775  1  0.061825  0  0.106622  0.092584  0  0.974495  0
H  H9  1  0.87995931  0.71487062  0.50576272  1  0.02175  0  0.098057  0.07298  0  0.995131  0
H  H10  1  0.80406540  0.34926200  0.48737064  1  0.038462  0  0.096437  0.091947  0  1.011503  0
H  H11  1  0.61391774  0.28788460  0.56046407  1  0.06922  0  0.101862  0.100116  0  1.003033  0
H  H12  1  0.48297815  0.72706692  0.65600220  1  0.073214  0  0.103346  0.111373  0  0.995892  0
H  H13  1  0.67355103  0.78859493  0.58264975  1  0.09354  0  0.099683  0.105329  0  1.005639  0
H  H14  1  0.36689126  0.55414724  0.70155677  1  0.076033  0  0.104561  0.100114  0  0.998027  0
H  H15  1  0.50556072  0.21793064  0.66008134  1  0.063757  0  0.103125  0.106323  0  1.003538  0
H  H16  1  0.41619514  0.03107001  0.72546211  1  0.121204  0  0.106568  0.125312  0  1.017913  0
H  H17  1  0.26487609  0.95567161  0.83051879  1  0.110694  0  0.121952  0.097414  0  0.979486  0
H  H18  1  0.10100546  0.40158825  0.89425649  1  0.110559  0  0.117518  0.093024  0  1.032232  0
H  H19  1  0.23935065  0.49932756  0.79247187  1  0.076418  0  0.111532  0.124422  0  0.99912  0
H  H20  1  0.58205104  0.52901744  0.07681342  1  0.105667  0  0.110038  0.115208  0  1.008261  0
H  H21  1  0.88653505  0.55284966  0.89526821  1  0.125371  0  0.107656  0.110204  0  1.041212  0
H  H22  1  0.48790990  0.93840461  0.90160574  1  0.111296  0  0.107887  0.113265  0  1.03104  0
H  H23  1  0.02240358  0.97443161  0.29727820  1  0.106483  0  0.122673  0.094982  0  0.977618  0
H  H24  1  0.92384173  0.84193411  0.40889312  1  0.061146  0  0.106596  0.110926  0  1.006852  0
H  H25  1  0.11251846  0.41702821  0.29982423  1  0.125819  0  0.112532  0.131253  0  1.017392  0
H  H26  1  0.20927915  0.56493029  0.19597892  1  0.150035  0  0.124826  0.097888  0  0.994454  0
H  H27  1  0.92506957  0.44491297  0.40943702  1  0.061675  0  0.106639  0.092629  0  0.974444  0
H  H28  1  0.12005080  0.28513631  0.49423997  1  0.021856  0  0.098051  0.072898  0  0.995341  0
H  H29  1  0.19595175  0.65073958  0.51264069  1  0.038263  0  0.096532  0.091961  0  1.011323  0
H  H30  1  0.38610197  0.71211820  0.43954709  1  0.069569  0  0.101879  0.10014  0  1.002974  0
H  H31  1  0.51702818  0.27294224  0.34399919  1  0.073263  0  0.103357  0.111426  0  0.995927  0
H  H32  1  0.32645548  0.21141655  0.41735084  1  0.093713  0  0.099715  0.105335  0  1.005705  0
H  H33  1  0.63311414  0.44585610  0.29844636  1  0.076104  0  0.104565  0.100126  0  0.998044  0
H  H34  1  0.49443850  0.78207594  0.33991808  1  0.063684  0  0.103117  0.10631  0  1.00358  0
H  H35  1  0.58380108  0.96893638  0.27453443  1  0.121226  0  0.10656  0.125334  0  1.01782  0
H  H36  1  0.73512410  0.04432889  0.16947638  1  0.110608  0  0.121929  0.097364  0  0.979525  0
H  H37  1  0.89898686  0.59841221  0.10574069  1  0.110755  0  0.117547  0.09304  0  1.032303  0
H  H38  1  0.76063731  0.50067403  0.20752591  1  0.0763  0  0.111492  0.124365  0  0.999119  0
H  H39  1  0.41794034  0.47097716  0.92318489  1  0.105357  0  0.110006  0.115185  0  1.008188  0
H  H40  1  0.11345454  0.44714122  0.10472691  1  0.125384  0  0.107664  0.110203  0  1.041141  0
H  H41  1  0.51208664  0.06159263  0.09839638  1  0.111308  0  0.107875  0.113322  0  1.030965  0
H  H42  1  0.04734124  0.88102877  0.90413117  1  0.640914  0  0.273488  0.37145  0  0.983463  0
H  H43  1  0.95265900  0.11897191  0.09586756  1  0.640918  0  0.27351  0.371479  0  0.983417  0
C  C44  1  0.95928763  0.14969899  0.69886701  1  0.498522  0  0.048697  0.093606  0  3.959645  0
C  C45  1  0.01409769  0.22524102  0.63696005  1  -0.022085  0  -0.0848  -0.184671  0  3.973366  0
C  C46  1  0.98758731  0.38481896  0.63401832  1  -0.024415  0  0.019355  0.145315  0  3.923856  0
C  C47  1  0.90901183  0.46005987  0.69688066  1  0.010805  0  -0.0715  -0.154885  0  3.900514  0
C  C48  1  0.85518495  0.37830489  0.75576913  1  0.431775  0  0.057438  0.112507  0  3.906737  0
C  C49  1  0.02550350  0.48297206  0.56537359  1  -0.000194  0  -0.070243  -0.078636  0  3.751364  0
C  C50  1  0.89294031  0.59199412  0.50712084  1  0.014167  0  -0.071449  -0.06154  0  3.777569  0
C  C51  1  0.75538104  0.57274008  0.53066041  1  0.004041  0  -0.017635  0.071668  0  3.992351  0
C  C52  1  0.73336469  0.43368930  0.52386458  1  -0.079233  0  -0.09501  -0.136864  0  4.026431  0
C  C53  1  0.62687549  0.39768781  0.56595702  1  -0.010894  0  -0.083853  -0.109257  0  3.966896  0
C  C54  1  0.53699998  0.50031483  0.61653179  1  -0.054481  0  -0.015372  0.091977  0  4.063003  0
C  C55  1  0.55064018  0.64543857  0.61723445  1  -0.013949  0  -0.085044  -0.11508  0  3.95524  0
C  C56  1  0.65845080  0.68060418  0.57525873  1  -0.095871  0  -0.093012  -0.131819  0  4.003754  0
C  C57  1  0.43762260  0.45917494  0.67053634  1  -0.090166  0  -0.077485  -0.103466  0  3.9791  0
C  C58  1  0.43239490  0.31503459  0.68859906  1  0.030525  0  -0.089516  -0.132844  0  3.969661  0
C  C59  1  0.34029245  0.27328988  0.74769204  1  0.039893  0  0.009475  0.159984  0  4.014094  0
C  C60  1  0.34389566  0.11871735  0.75967412  1  -0.050057  0  -0.086663  -0.183375  0  3.929522  0
C  C61  1  0.26163559  0.07540683  0.81859686  1  0.44594  0  0.042374  0.087203  0  3.977259  0
C  C62  1  0.17054677  0.32506158  0.85426761  1  0.465424  0  0.043337  0.093678  0  3.958937  0
C  C63  1  0.24872337  0.37792525  0.79657561  1  -0.021429  0  -0.080341  -0.170245  0  3.913004  0
C  C64  1  0.52016501  0.74127950  0.99257826  1  0.016919  0  -0.013285  -0.033625  0  3.935045  0
C  C65  1  0.61284410  0.59196792  0.02465029  1  0.047813  0  -0.065781  -0.088876  0  3.914845  0
C  C66  1  0.74507400  0.52410647  0.98975944  1  -0.086409  0  -0.016924  -0.037614  0  3.964256  0
C  C67  1  0.78345858  0.60514087  0.92212261  1  0.001511  0  -0.074373  -0.0923  0  3.949765  0
C  C68  1  0.69027890  0.75188261  0.88935599  1  -0.190601  0  -0.020667  -0.088552  0  3.971097  0
C  C69  1  0.55966824  0.82174973  0.92509769  1  0.011183  0  -0.068308  -0.068511  0  3.903273  0
C  C70  1  0.37859906  0.81857597  0.02913624  1  1.560141  0  0.220727  0.601481  0  4.147704  0
C  C71  1  0.84791906  0.36395931  0.02194811  1  1.576342  0  0.210909  0.58545  0  4.183336  0
C  C72  1  0.04071773  0.85029805  0.30112774  1  0.498988  0  0.048739  0.093653  0  3.959668  0
C  C73  1  0.98591599  0.77476119  0.36304118  1  -0.022325  0  -0.084911  -0.184781  0  3.97349  0
C  C74  1  0.01241610  0.61518425  0.36598309  1  -0.024765  0  0.019368  0.14537  0  3.923832  0
C  C75  1  0.09098529  0.53993852  0.30312074  1  0.010444  0  -0.071541  -0.154994  0  3.900664  0
C  C76  1  0.14480782  0.62168853  0.24422866  1  0.432425  0  0.057529  0.112666  0  3.906659  0
C  C77  1  0.97450448  0.51703258  0.43463114  1  0.000148  0  -0.070292  -0.078762  0  3.751326  0
C  C78  1  0.10707023  0.40801173  0.49288372  1  0.014205  0  -0.07143  -0.061519  0  3.777984  0
C  C79  1  0.24462532  0.42726922  0.46934395  1  0.003444  0  -0.017709  0.07159  0  3.992321  0
C  C80  1  0.26664947  0.56631206  0.47614327  1  -0.07554  0  -0.095107  -0.136752  0  4.025949  0
C  C81  1  0.37314066  0.60231366  0.43405256  1  -0.0143  0  -0.083837  -0.109397  0  3.966812  0
C  C82  1  0.46301155  0.49969106  0.38347333  1  -0.054205  0  -0.015338  0.092131  0  4.062614  0
C  C83  1  0.44936838  0.35456725  0.38277017  1  -0.014421  0  -0.085023  -0.11513  0  3.954974  0
C  C84  1  0.34155341  0.31940276  0.42474649  1  -0.095801  0  -0.093102  -0.131915  0  4.003736  0
C  C85  1  0.56238695  0.54083090  0.32946825  1  -0.090248  0  -0.077464  -0.103493  0  3.979143  0
C  C86  1  0.56760671  0.68497091  0.31140160  1  0.030694  0  -0.089569  -0.132915  0  3.969802  0
C  C87  1  0.65970138  0.72671758  0.25230327  1  0.030556  0  0.009589  0.160163  0  4.014024  0
C  C88  1  0.65610335  0.88128676  0.24032315  1  -0.05034  0  -0.086669  -0.183475  0  3.929464  0
C  C89  1  0.73836024  0.92459472  0.18139715  1  0.446307  0  0.042403  0.087321  0  3.977155  0
C  C90  1  0.82944513  0.67493999  0.14572828  1  0.465082  0  0.043244  0.093555  0  3.958997  0
C  C91  1  0.75126930  0.62207988  0.20342054  1  -0.011909  0  -0.080278  -0.170121  0  3.912922  0
C  C92  1  0.47982736  0.25871509  0.00741944  1  0.016871  0  -0.01337  -0.033714  0  3.935176  0
C  C93  1  0.38714808  0.40802433  0.97534761  1  0.048255  0  -0.065709  -0.088777  0  3.91458  0
C  C94  1  0.25491598  0.47588922  0.01023762  1  -0.08572  0  -0.016914  -0.037739  0  3.964173  0
C  C95  1  0.21653201  0.39485008  0.07787366  1  0.001081  0  -0.074341  -0.092175  0  3.949428  0
C  C96  1  0.30971149  0.24811197  0.11064236  1  -0.191071  0  -0.020609  -0.088409  0  3.970691  0
C  C97  1  0.44032333  0.17824728  0.07490159  1  0.011105  0  -0.068375  -0.068724  0  3.903177  0
C  C98  1  0.62139784  0.18141990  0.97086182  1  1.560232  0  0.220685  0.601502  0  4.147661  0
C  C99  1  0.15208039  0.63603771  0.97804859  1  1.576177  0  0.210989  0.585608  0  4.183221  0
S  S100  1  0.73460527  0.84179180  0.79646721  1  3.15547  0  0.501273  1.1574  0  6.199321  0
S  S101  1  0.26538472  0.15820395  0.20353104  1  3.155666  0  0.501116  1.157131  0  6.199583  0
N  N102  1  0.87893018  0.22534763  0.75678872  1  -1.284281  0  -0.334594  -0.251463  0  3.600308  0
N  N103  1  0.17668682  0.17635957  0.86606800  1  -1.263881  0  -0.33752  -0.253568  0  3.563432  0
N  N104  1  0.12106930  0.77464344  0.24320671  1  -1.284339  0  -0.334623  -0.251408  0  3.600051  0
N  N105  1  0.82331122  0.82363852  0.13392685  1  -1.263987  0  -0.337536  -0.253629  0  3.563375  0
O  O106  1  0.30369523  0.95622283  0.99790898  1  -1.206661  0  -0.316272  -0.57867  0  2.38788  0
O  O107  1  0.34231116  0.74392276  0.09053032  1  -1.163862  0  -0.317497  -0.535252  0  2.272937  0
O  O108  1  0.82179465  0.29228906  0.08606265  1  -1.170883  0  -0.318379  -0.533653  0  2.122903  0
O  O109  1  0.95870930  0.31264795  0.97843903  1  -1.197671  0  -0.333277  -0.587059  0  2.379331  0
O  O110  1  0.69055042  0.01208933  0.80559103  1  -1.31278  0  -0.3546  -0.618227  0  2.381839  0
O  O111  1  0.64482998  0.82309802  0.73493197  1  -1.333222  0  -0.343614  -0.59277  0  2.181989  0
O  O112  1  0.88826996  0.76816073  0.78664909  1  -1.330691  0  -0.353776  -0.599585  0  2.141226  0
O  O113  1  0.97759792  0.98357380  0.91918681  1  -1.260111  0  -0.570098  -0.867118  0  2.337193  0
O  O114  1  0.69630326  0.04377435  0.00209131  1  -1.206707  0  -0.316295  -0.578692  0  2.387924  0
O  O115  1  0.65768020  0.25607175  0.90946621  1  -1.163777  0  -0.317368  -0.535191  0  2.27286  0
O  O116  1  0.17820561  0.70770564  0.91393423  1  -1.170816  0  -0.318454  -0.533722  0  2.122958  0
O  O117  1  0.04129176  0.68735047  0.02156167  1  -1.197626  0  -0.333285  -0.587102  0  2.379201  0
O  O118  1  0.30944434  0.98790418  0.19440789  1  -1.312347  0  -0.354541  -0.618173  0  2.381992  0
O  O119  1  0.35515341  0.17690822  0.26506611  1  -1.333594  0  -0.343564  -0.592659  0  2.182055  0
O  O120  1  0.11171766  0.23183015  0.21334667  1  -1.330715  0  -0.353782  -0.599558  0  2.141064  0
O  O121  1  0.02240172  0.01642563  0.08081086  1  -1.260339  0  -0.570157  -0.867166  0  2.337157  0
