# generated using pymatgen
data_SmH6C7O9
_symmetry_space_group_name_H-M   'P 1'
_cell_length_a   9.95281074
_cell_length_b   9.94954499
_cell_length_c   13.15114753
_cell_angle_alpha   94.88493437
_cell_angle_beta   109.32340976
_cell_angle_gamma   116.74713248
_symmetry_Int_Tables_number   1
_chemical_formula_structural   SmH6C7O9
_chemical_formula_sum   'Sm4 H24 C28 O36'
_cell_volume   1054.25765548
_cell_formula_units_Z   4
loop_
 _symmetry_equiv_pos_site_id
 _symmetry_equiv_pos_as_xyz
  1  'x, y, z'
loop_
 _atom_site_type_symbol
 _atom_site_label
 _atom_site_symmetry_multiplicity
 _atom_site_fract_x
 _atom_site_fract_y
 _atom_site_fract_z
 _atom_site_occupancy
 _atom_site_hle17_bader_spin_density
 _atom_site_hle17_ddec_charge
 _atom_site_hle17_ddec_spin_density
 _atom_site_hle17_ddec_sum_bond_order
 _atom_site_hle17_magmom
 _atom_site_hse06_10hf_bader_spin_density
 _atom_site_hse06_10hf_ddec_charge
 _atom_site_hse06_10hf_ddec_spin_density
 _atom_site_hse06_10hf_ddec_sum_bond_order
 _atom_site_hse06_10hf_magmom
 _atom_site_hse06_bader_spin_density
 _atom_site_hse06_ddec_charge
 _atom_site_hse06_ddec_spin_density
 _atom_site_hse06_ddec_sum_bond_order
 _atom_site_hse06_magmom
 _atom_site_pbe_bader_spin_density
 _atom_site_pbe_cm5_charge
 _atom_site_pbe_ddec_charge
 _atom_site_pbe_ddec_spin_density
 _atom_site_pbe_ddec_sum_bond_order
 _atom_site_pbe_magmom
Sm  Sm0  1  0.46214030  0.73734305  0.00622903  1  0  2.302088  0  1.640672  0  0  2.211371  0  1.995386  0  0  2.253448  0  1.952631  0  0  1.499086  2.115192  0  2.147089  0
Sm  Sm1  1  0.23122914  0.45612237  0.49390406  1  0  2.303041  0  1.63937  0  0  2.2125  0  1.993894  0  0  2.254553  0  1.95115  0  0  1.499711  2.11597  0  2.146116  0
Sm  Sm2  1  0.53784336  0.26265417  0.99376941  1  0  2.302144  0  1.640745  0  0  2.211427  0  1.995458  0  0  2.253503  0  1.952701  0  0  1.499173  2.115279  0  2.147102  0
Sm  Sm3  1  0.76877503  0.54387734  0.50609439  1  0  2.303084  0  1.639403  0  0  2.212539  0  1.993922  0  0  2.254588  0  1.95118  0  0  1.499729  2.116046  0  2.146081  0
H  H4  1  0.69676807  0.94630497  0.23999262  1  0  0.440004  0  0.814503  0  0  0.421518  0  0.869663  0  0  0.430291  0  0.856696  0  0  0.327372  0.414726  0  0.879167  0
H  H5  1  0.20682883  0.45715401  0.26016972  1  0  0.440092  0  0.8145  0  0  0.421661  0  0.869584  0  0  0.430424  0  0.856634  0  0  0.327986  0.414893  0  0.879103  0
H  H6  1  0.30322552  0.05368880  0.76000204  1  0  0.440005  0  0.81445  0  0  0.42151  0  0.869669  0  0  0.430284  0  0.856701  0  0  0.327359  0.414717  0  0.879139  0
H  H7  1  0.79317996  0.54285041  0.73982941  1  0  0.440063  0  0.81451  0  0  0.421637  0  0.869606  0  0  0.430399  0  0.856658  0  0  0.327974  0.41487  0  0.879101  0
H  H8  1  0.63166785  0.05088219  0.18558940  1  0  0.441712  0  0.852094  0  0  0.410762  0  0.916022  0  0  0.421608  0  0.900004  0  0  0.307021  0.402835  0  0.927498  0
H  H9  1  0.36543953  0.44593995  0.31448278  1  0  0.441719  0  0.851604  0  0  0.411026  0  0.915104  0  0  0.4218  0  0.899194  0  0  0.306944  0.403133  0  0.926545  0
H  H10  1  0.36833035  0.94911631  0.81440899  1  0  0.441715  0  0.85208  0  0  0.410772  0  0.916003  0  0  0.421614  0  0.89999  0  0  0.307032  0.402846  0  0.927477  0
H  H11  1  0.63456571  0.55405976  0.68551442  1  0  0.441688  0  0.85164  0  0  0.410984  0  0.915165  0  0  0.421757  0  0.899255  0  0  0.306929  0.40309  0  0.926607  0
H  H12  1  0.78566565  0.84466105  0.85616230  1  0  0.137954  0  0.951838  0  0  0.146736  0  1.010269  0  0  0.150244  0  1.00861  0  0  0.11359  0.143723  0  1.012479  0
H  H13  1  0.48902862  0.92961548  0.64408236  1  0  0.138448  0  0.952321  0  0  0.147597  0  1.01004  0  0  0.151095  0  1.008413  0  0  0.114355  0.144596  0  1.012257  0
H  H14  1  0.21432725  0.15534562  0.14384207  1  0  0.138008  0  0.951813  0  0  0.146793  0  1.010237  0  0  0.150308  0  1.008578  0  0  0.113607  0.14378  0  1.012448  0
H  H15  1  0.51097539  0.07038191  0.35591743  1  0  0.138547  0  0.952239  0  0  0.147693  0  1.009955  0  0  0.151194  0  1.008321  0  0  0.114388  0.144692  0  1.012173  0
H  H16  1  0.04766054  0.97755644  0.79995125  1  0  0.14179  0  0.931357  0  0  0.151909  0  0.988192  0  0  0.155822  0  0.985249  0  0  0.122497  0.149033  0  0.990683  0
H  H17  1  0.67840540  0.24793615  0.70049628  1  0  0.140468  0  0.932974  0  0  0.150578  0  0.989806  0  0  0.15456  0  0.986778  0  0  0.122115  0.147727  0  0.99224  0
H  H18  1  0.95233231  0.02244207  0.20005262  1  0  0.14179  0  0.931352  0  0  0.151905  0  0.988194  0  0  0.155812  0  0.985259  0  0  0.122464  0.149033  0  0.990679  0
H  H19  1  0.32159663  0.75206348  0.29949478  1  0  0.140539  0  0.932791  0  0  0.150567  0  0.989708  0  0  0.154544  0  0.986686  0  0  0.122131  0.147716  0  0.992141  0
H  H20  1  0.22485322  0.51500447  0.07438911  1  0  0.43534  0  0.818731  0  0  0.412548  0  0.883036  0  0  0.42208  0  0.87127  0  0  0.323494  0.405581  0  0.890658  0
H  H21  1  0.94066720  0.15034951  0.42570150  1  0  0.433652  0  0.819739  0  0  0.410911  0  0.884123  0  0  0.420443  0  0.872366  0  0  0.322735  0.403951  0  0.891698  0
H  H22  1  0.77514127  0.48498705  0.92561325  1  0  0.435394  0  0.818646  0  0  0.412606  0  0.882948  0  0  0.422138  0  0.87118  0  0  0.323509  0.405638  0  0.890573  0
H  H23  1  0.05933759  0.84965135  0.57429489  1  0  0.433671  0  0.819696  0  0  0.410914  0  0.884127  0  0  0.420448  0  0.872365  0  0  0.322731  0.403953  0  0.891704  0
H  H24  1  0.38197115  0.50486869  0.13724876  1  0  0.425551  0  0.869364  0  0  0.392849  0  0.941103  0  0  0.40403  0  0.924473  0  0  0.29956  0.384764  0  0.952834  0
H  H25  1  0.86781852  0.24469268  0.36276082  1  0  0.42563  0  0.869113  0  0  0.393258  0  0.940522  0  0  0.404433  0  0.923897  0  0  0.299474  0.385183  0  0.952243  0
H  H26  1  0.61802412  0.49512634  0.86275553  1  0  0.425574  0  0.869303  0  0  0.392889  0  0.941046  0  0  0.404072  0  0.924413  0  0  0.29956  0.384805  0  0.952775  0
H  H27  1  0.13219196  0.75531290  0.63723653  1  0  0.425616  0  0.869148  0  0  0.393249  0  0.940529  0  0  0.404422  0  0.923907  0  0  0.299466  0.385174  0  0.952251  0
C  C28  1  0.74791788  0.09309817  0.97043701  1  0  0.698772  0  3.924732  0  0  0.654367  0  4.215204  0  0  0.689601  0  4.202337  0  0  0.231523  0.630052  0  4.218653  0
C  C29  1  0.62271307  0.77741454  0.52951347  1  0  0.697632  0  3.926501  0  0  0.654023  0  4.215802  0  0  0.6892  0  4.203044  0  0  0.231994  0.629761  0  4.21915  0
C  C30  1  0.25208099  0.90690966  0.02956286  1  0  0.698773  0  3.92444  0  0  0.654383  0  4.214884  0  0  0.689618  0  4.202014  0  0  0.231481  0.630075  0  4.218337  0
C  C31  1  0.37729905  0.22258409  0.47048617  1  0  0.697402  0  3.926525  0  0  0.653754  0  4.215921  0  0  0.688918  0  4.20317  0  0  0.231941  0.629492  0  4.219266  0
C  C32  1  0.07407379  0.19797262  0.87933207  1  0  0.06915  0  3.658458  0  0  0.060274  0  3.932069  0  0  0.06104  0  3.946241  0  0  0.071524  0.059495  0  3.923315  0
C  C33  1  0.81911042  0.19483083  0.62087966  1  0  0.0694  0  3.659483  0  0  0.059229  0  3.934232  0  0  0.060104  0  3.948297  0  0  0.071614  0.058377  0  3.925585  0
C  C34  1  0.92591659  0.80202121  0.12067167  1  0  0.069821  0  3.657853  0  0  0.060887  0  3.931556  0  0  0.061613  0  3.945755  0  0  0.071732  0.060105  0  3.922806  0
C  C35  1  0.18089269  0.80516887  0.37911776  1  0  0.069265  0  3.659222  0  0  0.059015  0  3.934017  0  0  0.059882  0  3.948072  0  0  0.071485  0.058163  0  3.925371  0
C  C36  1  0.86829892  0.96835965  0.87056498  1  0  -0.131114  0  3.71488  0  0  -0.164018  0  3.980937  0  0  -0.166034  0  4.00056  0  0  -0.096396  -0.162455  0  3.968658  0
C  C37  1  0.59831446  0.99783140  0.62966772  1  0  -0.132897  0  3.716091  0  0  -0.166018  0  3.982208  0  0  -0.168093  0  4.001937  0  0  -0.096405  -0.164397  0  3.969861  0
C  C38  1  0.13168768  0.03164115  0.12944050  1  0  -0.131111  0  3.714731  0  0  -0.164005  0  3.980711  0  0  -0.166034  0  4.000347  0  0  -0.096377  -0.162437  0  3.968445  0
C  C39  1  0.40169338  0.00216717  0.37033007  1  0  -0.133053  0  3.716255  0  0  -0.166176  0  3.982374  0  0  -0.168261  0  4.00208  0  0  -0.096414  -0.164552  0  3.970025  0
C  C40  1  0.22701616  0.33288170  0.88694935  1  0  0.693317  0  3.924321  0  0  0.641344  0  4.231756  0  0  0.677246  0  4.217805  0  0  0.228706  0.616917  0  4.234963  0
C  C41  1  0.94626173  0.34019296  0.61318612  1  0  0.690578  0  3.92416  0  0  0.639366  0  4.230846  0  0  0.67521  0  4.21692  0  0  0.229145  0.614982  0  4.233999  0
C  C42  1  0.77298097  0.66711682  0.11305181  1  0  0.693015  0  3.924597  0  0  0.641129  0  4.231925  0  0  0.677037  0  4.21798  0  0  0.228675  0.616705  0  4.235131  0
C  C43  1  0.05374475  0.65980914  0.38681685  1  0  0.690693  0  3.924115  0  0  0.63956  0  4.230704  0  0  0.675406  0  4.216771  0  0  0.229212  0.615175  0  4.233858  0
C  C44  1  0.00524882  0.03790736  0.84237990  1  0  -0.119837  0  3.694222  0  0  -0.156537  0  3.966095  0  0  -0.156993  0  3.982915  0  0  -0.088729  -0.155762  0  3.954777  0
C  C45  1  0.69617565  0.16303386  0.65794500  1  0  -0.117176  0  3.698053  0  0  -0.153359  0  3.970078  0  0  -0.153899  0  3.986866  0  0  -0.088422  -0.152527  0  3.958704  0
C  C46  1  0.99473220  0.96208288  0.15762202  1  0  -0.119996  0  3.693896  0  0  -0.156672  0  3.965813  0  0  -0.157115  0  3.98265  0  0  -0.088683  -0.155896  0  3.954501  0
C  C47  1  0.30383235  0.83696703  0.34205144  1  0  -0.117171  0  3.697776  0  0  -0.15324  0  3.969786  0  0  -0.153782  0  3.986588  0  0  -0.088414  -0.152409  0  3.958415  0
C  C48  1  0.34165444  0.68457161  0.73604139  1  0  0.577978  0  3.883343  0  0  0.53061  0  4.185471  0  0  0.560717  0  4.176353  0  0  0.228478  0.510548  0  4.186048  0
C  C49  1  0.44847764  0.60590883  0.76413026  1  0  0.575036  0  3.884613  0  0  0.529437  0  4.184674  0  0  0.559443  0  4.175735  0  0  0.230166  0.509438  0  4.185139  0
C  C50  1  0.65835171  0.31542580  0.26395894  1  0  0.5779  0  3.88302  0  0  0.530539  0  4.185229  0  0  0.560647  0  4.176123  0  0  0.22842  0.510472  0  4.185804  0
C  C51  1  0.55151740  0.39409781  0.23586933  1  0  0.575111  0  3.884525  0  0  0.529338  0  4.184891  0  0  0.559327  0  4.175984  0  0  0.230077  0.509348  0  4.185338  0
C  C52  1  0.86090129  0.08933853  0.92293598  1  0  0.078766  0  3.660276  0  0  0.075  0  3.918346  0  0  0.075379  0  3.933186  0  0  0.072841  0.073961  0  3.91014  0
C  C53  1  0.66671351  0.93799900  0.57714470  1  0  0.080777  0  3.660589  0  0  0.076884  0  3.91853  0  0  0.077327  0  3.933337  0  0  0.072319  0.075776  0  3.910417  0
C  C54  1  0.13909589  0.91066820  0.07707176  1  0  0.078676  0  3.660232  0  0  0.074998  0  3.918227  0  0  0.075366  0  3.933064  0  0  0.072782  0.073937  0  3.910053  0
C  C55  1  0.33329586  0.06199843  0.42285492  1  0  0.081026  0  3.660538  0  0  0.077116  0  3.918503  0  0  0.077588  0  3.933272  0  0  0.072292  0.076008  0  3.910388  0
O  O56  1  0.65272894  0.96686292  0.98589944  1  0  -0.778006  0  2.099113  0  0  -0.740332  0  2.369103  0  0  -0.764709  0  2.355811  0  0  -0.414554  -0.711297  0  2.378757  0
O  O57  1  0.48099386  0.66690805  0.51409757  1  0  -0.778489  0  2.099746  0  0  -0.740936  0  2.368993  0  0  -0.765291  0  2.35569  0  0  -0.414602  -0.711853  0  2.378719  0
O  O58  1  0.34726491  0.03314956  0.01410323  1  0  -0.778  0  2.099117  0  0  -0.740294  0  2.369016  0  0  -0.764681  0  2.35574  0  0  -0.414549  -0.711264  0  2.378668  0
O  O59  1  0.51901657  0.33308938  0.48590081  1  0  -0.778477  0  2.099917  0  0  -0.740868  0  2.369112  0  0  -0.765218  0  2.355809  0  0  -0.414588  -0.711791  0  2.378835  0
O  O60  1  0.75073938  0.22168362  0.99171102  1  0  -0.703255  0  1.983508  0  0  -0.664836  0  2.224823  0  0  -0.68669  0  2.209514  0  0  -0.410129  -0.640214  0  2.237551  0
O  O61  1  0.72980642  0.75879430  0.50810638  1  0  -0.701514  0  1.984357  0  0  -0.663317  0  2.225272  0  0  -0.685161  0  2.210025  0  0  -0.409234  -0.638604  0  2.237937  0
O  O62  1  0.24925211  0.77831832  0.00828740  1  0  -0.703226  0  1.983441  0  0  -0.664824  0  2.224763  0  0  -0.686677  0  2.209453  0  0  -0.410104  -0.640195  0  2.237493  0
O  O63  1  0.27020621  0.24121130  0.49189151  1  0  -0.701367  0  1.984352  0  0  -0.663158  0  2.225276  0  0  -0.685011  0  2.210051  0  0  -0.409187  -0.63844  0  2.237941  0
O  O64  1  0.33904728  0.75869164  0.81791682  1  0  -0.656267  0  2.096475  0  0  -0.604647  0  2.329256  0  0  -0.628531  0  2.319812  0  0  -0.350752  -0.581501  0  2.337112  0
O  O65  1  0.44090390  0.52163587  0.68223217  1  0  -0.655137  0  2.097741  0  0  -0.603981  0  2.329486  0  0  -0.627824  0  2.320116  0  0  -0.350969  -0.580783  0  2.337304  0
O  O66  1  0.66093464  0.24129615  0.18207149  1  0  -0.65627  0  2.0964  0  0  -0.604611  0  2.329158  0  0  -0.628496  0  2.319717  0  0  -0.350711  -0.581468  0  2.337012  0
O  O67  1  0.55910382  0.47836861  0.31777506  1  0  -0.655226  0  2.097868  0  0  -0.603996  0  2.329693  0  0  -0.627839  0  2.320334  0  0  -0.350986  -0.580806  0  2.337505  0
O  O68  1  0.33438202  0.30308761  0.87543172  1  0  -0.747428  0  2.009553  0  0  -0.701428  0  2.263383  0  0  -0.725794  0  2.249318  0  0  -0.415707  -0.673776  0  2.273476  0
O  O69  1  0.92778835  0.45900619  0.62449982  1  0  -0.747234  0  2.00977  0  0  -0.701348  0  2.263317  0  0  -0.725723  0  2.249284  0  0  -0.416248  -0.673606  0  2.273416  0
O  O70  1  0.66560988  0.69690502  0.12456700  1  0  -0.747372  0  2.009487  0  0  -0.70138  0  2.263259  0  0  -0.725747  0  2.249192  0  0  -0.415678  -0.673725  0  2.273353  0
O  O71  1  0.07222225  0.54099361  0.37550254  1  0  -0.747287  0  2.009668  0  0  -0.701414  0  2.263176  0  0  -0.725791  0  2.249142  0  0  -0.416261  -0.673667  0  2.273279  0
O  O72  1  0.98483436  0.23043473  0.92714314  1  0  -0.177014  0  2.404181  0  0  -0.110571  0  2.619377  0  0  -0.124753  0  2.626233  0  0  -0.108512  -0.101699  0  2.616061  0
O  O73  1  0.80360091  0.05774748  0.57295276  1  0  -0.178211  0  2.407327  0  0  -0.111891  0  2.623369  0  0  -0.126105  0  2.630169  0  0  -0.109178  -0.103002  0  2.620127  0
O  O74  1  0.01516035  0.76956732  0.07286521  1  0  -0.177394  0  2.404118  0  0  -0.111064  0  2.619418  0  0  -0.125202  0  2.626255  0  0  -0.108736  -0.102183  0  2.616113  0
O  O75  1  0.19640726  0.94225581  0.42705072  1  0  -0.178284  0  2.407322  0  0  -0.111922  0  2.623363  0  0  -0.126128  0  2.630143  0  0  -0.109071  -0.103031  0  2.62012  0
O  O76  1  0.24545612  0.46846281  0.90831951  1  0  -0.721757  0  2.019422  0  0  -0.683271  0  2.270311  0  0  -0.705777  0  2.255836  0  0  -0.386491  -0.658856  0  2.282654  0
O  O77  1  0.06048703  0.33733821  0.59187825  1  0  -0.720821  0  2.018241  0  0  -0.682423  0  2.268647  0  0  -0.704907  0  2.254156  0  0  -0.38732  -0.65795  0  2.281001  0
O  O78  1  0.75453261  0.53153798  0.09168270  1  0  -0.721682  0  2.019608  0  0  -0.683222  0  2.27047  0  0  -0.70573  0  2.255999  0  0  -0.386491  -0.658811  0  2.282809  0
O  O79  1  0.93951101  0.66265794  0.40811843  1  0  -0.720854  0  2.018265  0  0  -0.682485  0  2.268652  0  0  -0.704974  0  2.254162  0  0  -0.387357  -0.658016  0  2.281007  0
O  O80  1  0.26958881  0.67475418  0.63393200  1  0  -0.670731  0  2.089466  0  0  -0.627429  0  2.333176  0  0  -0.651393  0  2.323782  0  0  -0.336445  -0.604103  0  2.340903  0
O  O81  1  0.54062648  0.63576501  0.86622913  1  0  -0.669586  0  2.090174  0  0  -0.626487  0  2.333067  0  0  -0.650446  0  2.323748  0  0  -0.337484  -0.603157  0  2.34068  0
O  O82  1  0.73041462  0.32525019  0.36606730  1  0  -0.670664  0  2.089563  0  0  -0.627339  0  2.333254  0  0  -0.651299  0  2.323862  0  0  -0.336399  -0.604023  0  2.340991  0
O  O83  1  0.45936880  0.36422997  0.13376907  1  0  -0.669582  0  2.090415  0  0  -0.626445  0  2.333448  0  0  -0.650387  0  2.324106  0  0  -0.337439  -0.603121  0  2.341054  0
O  O84  1  0.59676884  0.94145080  0.18926770  1  0  -0.879668  0  1.820178  0  0  -0.840987  0  1.996739  0  0  -0.858165  0  1.966403  0  0  -0.618427  -0.821254  0  2.02337  0
O  O85  1  0.25245673  0.40770446  0.31088955  1  0  -0.880006  0  1.820139  0  0  -0.841728  0  1.996757  0  0  -0.85876  0  1.966377  0  0  -0.619029  -0.822006  0  2.023396  0
O  O86  1  0.40322615  0.05854768  0.81073140  1  0  -0.879658  0  1.820123  0  0  -0.840972  0  1.996689  0  0  -0.858147  0  1.966362  0  0  -0.618406  -0.821244  0  2.023285  0
O  O87  1  0.74754790  0.59229408  0.68910818  1  0  -0.879926  0  1.820163  0  0  -0.841642  0  1.996805  0  0  -0.858696  0  1.966468  0  0  -0.618973  -0.821925  0  2.023418  0
O  O88  1  0.33835656  0.57762114  0.13193848  1  0  -0.85716  0  1.809765  0  0  -0.815731  0  1.987223  0  0  -0.833134  0  1.958165  0  0  -0.600026  -0.79655  0  2.010643  0
O  O89  1  0.94583855  0.20633490  0.36815905  1  0  -0.855626  0  1.809374  0  0  -0.81456  0  1.986262  0  0  -0.831977  0  1.957279  0  0  -0.599235  -0.795358  0  2.009694  0
O  O90  1  0.66163933  0.42237504  0.86806375  1  0  -0.857225  0  1.809648  0  0  -0.81583  0  1.98708  0  0  -0.833235  0  1.958028  0  0  -0.600045  -0.796653  0  2.010501  0
O  O91  1  0.05416962  0.79366833  0.63183834  1  0  -0.855651  0  1.809353  0  0  -0.814565  0  1.986233  0  0  -0.831972  0  1.957243  0  0  -0.599236  -0.795366  0  2.009662  0
