# generated using pymatgen
data_LaH5C7SO7
_symmetry_space_group_name_H-M   'P 1'
_cell_length_a   6.02439326
_cell_length_b   8.37725129
_cell_length_c   10.06588704
_cell_angle_alpha   111.76088693
_cell_angle_beta   95.32439155
_cell_angle_gamma   92.32235978
_symmetry_Int_Tables_number   1
_chemical_formula_structural   LaH5C7SO7
_chemical_formula_sum   'La2 H10 C14 S2 O14'
_cell_volume   468.22279974
_cell_formula_units_Z   2
loop_
 _symmetry_equiv_pos_site_id
 _symmetry_equiv_pos_as_xyz
  1  'x, y, z'
loop_
 _atom_site_type_symbol
 _atom_site_label
 _atom_site_symmetry_multiplicity
 _atom_site_fract_x
 _atom_site_fract_y
 _atom_site_fract_z
 _atom_site_occupancy
 _atom_site_pbe_bader_spin_density
 _atom_site_pbe_cm5_charge
 _atom_site_pbe_ddec_charge
 _atom_site_pbe_ddec_spin_density
 _atom_site_pbe_ddec_sum_bond_order
 _atom_site_pbe_magmom
La  La0  1  0.76129953  0.65101457  0.46644008  1  0  1.437222  1.94374  0  2.358272  0
La  La1  1  0.23870197  0.34898588  0.53355964  1  0  1.437203  1.943714  0  2.358292  0
H  H2  1  0.29791843  0.79504655  0.42107456  1  0  0.310839  0.402282  0  0.931751  0
H  H3  1  0.70207988  0.20495520  0.57892440  1  0  0.310853  0.402287  0  0.931753  0
H  H4  1  0.39130094  0.91173226  0.57982460  1  0  0.313681  0.41506  0  0.910247  0
H  H5  1  0.60869765  0.08827207  0.42017417  1  0  0.31368  0.415014  0  0.910305  0
H  H6  1  0.33131171  0.33115146  0.95736851  1  0  0.117621  0.132622  0  1.007584  0
H  H7  1  0.66868633  0.66884771  0.04263163  1  0  0.117596  0.132618  0  1.007444  0
H  H8  1  0.67852645  0.06248812  0.89334451  1  0  0.112656  0.120111  0  0.988067  0
H  H9  1  0.32147505  0.93751232  0.10665520  1  0  0.112663  0.120131  0  0.98805  0
H  H10  1  0.66213748  0.18633791  0.15926799  1  0  0.112044  0.128675  0  0.997818  0
H  H11  1  0.33785735  0.81366257  0.84073040  1  0  0.112055  0.128693  0  0.997858  0
C  C12  1  0.38314174  0.45598504  0.24262856  1  0  0.21494  0.613513  0  4.176394  0
C  C13  1  0.61685037  0.54402062  0.75737327  1  0  0.214952  0.613527  0  4.176173  0
C  C14  1  0.17705587  0.36420794  0.14914690  1  0  -0.02215  -0.158948  0  3.942819  0
C  C15  1  0.82294024  0.63578868  0.85085634  1  0  -0.022123  -0.158883  0  3.9428  0
C  C16  1  0.18344792  0.29946048  0.00049887  1  0  -0.067538  -0.068746  0  3.936754  0
C  C17  1  0.81655659  0.70053736  0.99949821  1  0  -0.067474  -0.068676  0  3.936985  0
C  C18  1  0.00478749  0.19048017  0.91001923  1  0  -0.030506  -0.13135  0  4.02566  0
C  C19  1  0.99520871  0.80951772  0.08997943  1  0  -0.030574  -0.131512  0  4.025778  0
C  C20  1  0.81559793  0.14917585  0.96564141  1  0  -0.070657  -0.038222  0  3.968552  0
C  C21  1  0.18440952  0.85081812  0.03435960  1  0  -0.070639  -0.038186  0  3.968542  0
C  C22  1  0.80591801  0.21850852  0.11324367  1  0  -0.095582  -0.202465  0  3.944189  0
C  C23  1  0.19408214  0.78149452  0.88675777  1  0  -0.095601  -0.202554  0  3.944305  0
C  C24  1  0.98437400  0.32780323  0.20843466  1  0  0.100344  0.346591  0  4.079557  0
C  C25  1  0.01562556  0.67219466  0.79156616  1  0  0.100436  0.346761  0  4.079499  0
S  S26  1  0.03109749  0.10038768  0.72522669  1  0  0.551872  1.223956  0  6.08315  0
S  S27  1  0.96890568  0.89961276  0.27477311  1  0  0.551993  1.224185  0  6.082941  0
O  O28  1  0.51617491  0.55381255  0.21211543  1  0  -0.330123  -0.55316  0  2.138346  0
O  O29  1  0.48382760  0.44618271  0.78787778  1  0  -0.33015  -0.553203  0  2.138319  0
O  O30  1  0.43140221  0.42526431  0.35958203  1  0  -0.455528  -0.700321  0  2.382415  0
O  O31  1  0.56860019  0.57474388  0.64042111  1  0  -0.455517  -0.700285  0  2.382292  0
O  O32  1  0.96963608  0.39750794  0.35054061  1  0  -0.483286  -0.711219  0  2.349706  0
O  O33  1  0.03035912  0.60249513  0.64946456  1  0  -0.48339  -0.711403  0  2.349946  0
O  O34  1  0.97046350  0.23356551  0.66380700  1  0  -0.385626  -0.68365  0  2.303105  0
O  O35  1  0.02953621  0.76643366  0.33619422  1  0  -0.38566  -0.68371  0  2.303042  0
O  O36  1  0.26523331  0.06588756  0.71021089  1  0  -0.304849  -0.59465  0  2.240599  0
O  O37  1  0.73477334  0.93411415  0.28978948  1  0  -0.304918  -0.594728  0  2.240707  0
O  O38  1  0.86910364  0.94797289  0.66052608  1  0  -0.379551  -0.646815  0  2.296512  0
O  O39  1  0.13089829  0.05203142  0.33947385  1  0  -0.379576  -0.646898  0  2.29642  0
O  O40  1  0.42944168  0.81659834  0.49373488  1  0  -0.64581  -0.836971  0  2.087719  0
O  O41  1  0.57055622  0.18339955  0.50626685  1  0  -0.64582  -0.836923  0  2.0878  0
