# generated using pymatgen
data_NiH15C16(NO)5
_symmetry_space_group_name_H-M   'P 1'
_cell_length_a   8.39729169
_cell_length_b   10.66547852
_cell_length_c   10.60181150
_cell_angle_alpha   94.63975001
_cell_angle_beta   85.47589633
_cell_angle_gamma   65.89045564
_symmetry_Int_Tables_number   1
_chemical_formula_structural   NiH15C16(NO)5
_chemical_formula_sum   'Ni2 H30 C32 N10 O10'
_cell_volume   857.27910513
_cell_formula_units_Z   2
loop_
 _symmetry_equiv_pos_site_id
 _symmetry_equiv_pos_as_xyz
  1  'x, y, z'
loop_
 _atom_site_type_symbol
 _atom_site_label
 _atom_site_symmetry_multiplicity
 _atom_site_fract_x
 _atom_site_fract_y
 _atom_site_fract_z
 _atom_site_occupancy
 _atom_site_hle17_ddec_charge
 _atom_site_hle17_ddec_spin_density
 _atom_site_hle17_ddec_sum_bond_order
 _atom_site_hle17_magmom
 _atom_site_hse06_10hf_ddec_charge
 _atom_site_hse06_10hf_ddec_spin_density
 _atom_site_hse06_10hf_ddec_sum_bond_order
 _atom_site_hse06_10hf_magmom
 _atom_site_hse06_ddec_charge
 _atom_site_hse06_ddec_spin_density
 _atom_site_hse06_ddec_sum_bond_order
 _atom_site_hse06_magmom
 _atom_site_pbe_cm5_charge
 _atom_site_pbe_ddec_charge
 _atom_site_pbe_ddec_spin_density
 _atom_site_pbe_ddec_sum_bond_order
 _atom_site_pbe_magmom
Ni  Ni0  1  0.49999417  0.50000657  0.50000593  1  0.881463  -1.854521  1.999696  -1.519  0.88124  -1.908794  2.388602  -1.642  0.969887  -1.972839  2.318917  -1.729  0.639468  0.809271  -1.829816  2.448826  -1.562
Ni  Ni1  1  0.50000045  0.99999995  0.49999677  1  0.757687  0.101985  2.067576  0.021  0.74727  0.100526  2.483971  0.019  0.857185  0.108157  2.392647  0.016  0.616464  0.676931  0.040901  2.544659  -0.02
H  H2  1  0.73738119  0.57366187  0.18045961  1  0.100765  9.9e-05  0.918987  0.0  0.120547  2.9e-05  0.971572  0.0  0.123049  1.7e-05  0.970594  0.0  0.102155  0.118757  5.2e-05  0.972391  0.0
H  H3  1  0.26263908  0.42632634  0.81952762  1  0.100806  9.9e-05  0.918843  0.0  0.120581  2.9e-05  0.971497  0.0  0.123077  1.8e-05  0.970524  0.0  0.102178  0.118794  5.2e-05  0.972311  0.0
H  H4  1  0.93075168  0.42181637  0.15390734  1  0.102577  -0.000126  0.927603  0.0  0.118349  -0.000127  0.987157  0.0  0.121494  -7.5e-05  0.985052  0.0  0.101094  0.116385  -0.000132  0.988489  0.0
H  H5  1  0.06925464  0.57817252  0.84609819  1  0.102548  -0.000126  0.927631  0.0  0.11834  -0.000127  0.987201  0.0  0.121504  -7.5e-05  0.985077  0.0  0.101072  0.116376  -0.000132  0.988536  0.0
H  H6  1  0.89132310  0.43236760  0.41056209  1  0.09956  0.000297  0.954278  0.0  0.111683  0.000176  1.01923  0.0  0.113838  0.000172  1.018878  0.0  0.098108  0.110335  0.000181  1.01928  0.0
H  H7  1  0.10867888  0.56763404  0.58943624  1  0.099497  0.000296  0.954317  0.0  0.111622  0.000176  1.019254  0.0  0.113778  0.000172  1.018894  0.0  0.098067  0.110272  0.000181  1.019304  0.0
H  H8  1  0.98851605  0.53198920  0.33448308  1  0.098306  0.000117  0.946556  0.0  0.112465  6.5e-05  1.006333  0.0  0.114351  7e-05  1.006846  0.0  0.094267  0.11133  -1.7e-05  1.005786  0.0
H  H9  1  0.01148124  0.46802149  0.66551283  1  0.098311  0.000116  0.94667  0.0  0.112464  6.5e-05  1.006419  0.0  0.114313  7e-05  1.00697  0.0  0.094242  0.111329  -1.7e-05  1.005871  0.0
H  H10  1  0.63021902  0.83002453  0.25100327  1  0.094211  -0.000395  0.972276  -0.001  0.099998  -0.000472  1.037978  -0.001  0.101083  -0.000439  1.037108  -0.001  0.121525  0.098902  0.000748  1.039205  0.001
H  H11  1  0.36978570  0.16998105  0.74899386  1  0.094215  -0.000396  0.972263  -0.001  0.1  -0.000472  1.037982  -0.001  0.101085  -0.000439  1.03711  -0.001  0.121547  0.098897  0.000749  1.039206  0.001
H  H12  1  0.51534747  0.82611712  0.04047028  1  0.118199  -0.000125  0.926312  0.0  0.131318  -0.000135  0.977851  0.0  0.134198  -0.000108  0.977344  0.0  0.117441  0.129242  0.000213  0.97828  0.0
H  H13  1  0.48463964  0.17390258  0.95953410  1  0.118207  -0.000125  0.926305  0.0  0.131369  -0.000135  0.977802  0.0  0.134251  -0.000108  0.977291  0.0  0.117416  0.129288  0.000213  0.978242  0.0
H  H14  1  0.05209784  0.19016880  0.20100458  1  0.122252  -0.000112  0.952927  0.0  0.13033  -0.000118  1.015018  0.0  0.132931  -9.2e-05  1.014242  0.0  0.115145  0.128357  0.000189  1.015858  0.0
H  H15  1  0.94790403  0.80980307  0.79900422  1  0.122247  -0.000112  0.952882  0.0  0.130257  -0.000119  1.01507  0.0  0.13286  -9.2e-05  1.014298  0.0  0.115107  0.128283  0.000189  1.015911  0.0
H  H16  1  0.18548696  0.17525180  0.40752410  1  0.097304  -0.000452  0.976469  -0.001  0.103914  -0.000548  1.03959  -0.001  0.104842  -0.000507  1.039079  -0.001  0.123052  0.102967  0.000965  1.040489  0.001
H  H17  1  0.81452042  0.82471243  0.59246718  1  0.097269  -0.000452  0.976245  -0.001  0.103873  -0.000548  1.039437  -0.001  0.104803  -0.000507  1.038924  -0.001  0.122963  0.102931  0.000965  1.040332  0.001
H  H18  1  0.80902186  0.37149120  0.91059579  1  0.128491  -0.000311  0.951219  0.0  0.133698  -0.000341  1.015358  0.0  0.138155  -0.000231  1.012635  0.0  0.109568  0.130214  -0.000491  1.017669  0.0
H  H19  1  0.19097526  0.62851738  0.08939919  1  0.128613  -0.000309  0.951111  0.0  0.133756  -0.000342  1.015317  0.0  0.138214  -0.000231  1.012591  0.0  0.109581  0.130266  -0.000491  1.017635  0.0
H  H20  1  0.60834071  0.52864266  0.77271181  1  0.088556  -0.000515  0.96408  -0.001  0.093863  -0.000424  1.02839  -0.001  0.096933  -0.000284  1.025282  -0.001  0.11602  0.091589  -0.000536  1.030638  -0.001
H  H21  1  0.39166056  0.47136496  0.22728468  1  0.08863  -0.000515  0.964021  -0.001  0.093936  -0.000424  1.028324  -0.001  0.097007  -0.000284  1.025213  -0.001  0.116057  0.091662  -0.000536  1.030572  -0.001
H  H22  1  0.82095082  0.23537750  0.45529634  1  0.084176  -0.000331  0.973521  -0.001  0.091789  -0.000206  1.037108  -0.001  0.094522  -8.8e-05  1.034384  -0.001  0.116402  0.089875  -0.000817  1.039024  -0.001
H  H23  1  0.17904858  0.76462300  0.54471264  1  0.084125  -0.000332  0.973553  -0.001  0.09176  -0.000206  1.037095  -0.001  0.094495  -8.8e-05  1.03437  -0.001  0.116351  0.089842  -0.000817  1.039017  -0.001
H  H24  1  0.03653739  0.06894718  0.57659935  1  0.112074  -0.000239  0.95369  0.0  0.123457  -0.000263  1.013764  0.0  0.126497  -0.000183  1.012811  0.0  0.112209  0.121124  -0.000386  1.014832  0.0
H  H25  1  0.96347839  0.93105336  0.42340058  1  0.112039  -0.000238  0.95373  0.0  0.123492  -0.000263  1.013727  0.0  0.126533  -0.000183  1.012758  0.0  0.112209  0.121146  -0.000386  1.014828  0.0
H  H26  1  0.30059643  0.81096129  0.88112119  1  0.315663  5.4e-05  0.927938  0.0  0.287577  -8e-06  1.002766  0.0  0.299519  5e-06  0.992156  0.0  0.307079  0.278974  4e-06  1.010456  0.0
H  H27  1  0.69940468  0.18903723  0.11887628  1  0.315592  5.4e-05  0.928019  0.0  0.287512  -7e-06  1.002839  0.0  0.29945  5e-06  0.992239  0.0  0.307065  0.278913  4e-06  1.010524  0.0
H  H28  1  0.70162522  0.07948045  0.36088907  1  0.389444  0.000392  0.914418  0.0  0.354036  0.000543  1.00099  0.0  0.366038  0.000453  0.984302  0.0  0.292132  0.346042  -0.000398  1.012127  -0.001
H  H29  1  0.29837694  0.92051639  0.63911304  1  0.389421  0.000392  0.914482  0.0  0.353999  0.000543  1.001053  0.0  0.365999  0.000453  0.984366  0.0  0.292097  0.346003  -0.000398  1.012193  -0.001
H  H30  1  0.55061517  0.20299940  0.46522152  1  0.420504  0.000133  0.885728  0.0  0.389086  0.000267  0.957419  0.0  0.402632  0.000227  0.938381  0.0  0.29201  0.379479  -0.000299  0.970852  0.0
H  H31  1  0.44938561  0.79699581  0.53478545  1  0.420406  0.000134  0.885791  0.0  0.389066  0.000267  0.95742  0.0  0.40258  0.000227  0.938425  0.0  0.292015  0.379462  -0.000298  0.97085  0.0
C  C32  1  0.70798467  0.39238347  0.22689646  1  0.681535  0.000567  3.845017  0.0  0.640346  -0.002818  4.158621  -0.003  0.675251  -0.002214  4.150986  -0.003  0.205765  0.61568  -0.003122  4.162692  -0.004
C  C33  1  0.29201954  0.60761584  0.77309883  1  0.681172  0.000569  3.845393  0.0  0.640053  -0.002817  4.158949  -0.003  0.674956  -0.002213  4.151328  -0.003  0.205668  0.615388  -0.003121  4.163016  -0.004
C  C34  1  0.81349656  0.47982863  0.22348541  1  -0.239852  0.000749  3.667968  0.0  -0.280421  0.000435  3.921433  0.0  -0.285612  0.000431  3.928645  0.0  -0.161278  -0.276726  0.000574  3.916138  0.0
C  C35  1  0.18650922  0.52016805  0.77651543  1  -0.239691  0.00075  3.667838  0.0  -0.280398  0.000435  3.921477  0.0  -0.285594  0.000431  3.928675  0.0  -0.161285  -0.276713  0.000574  3.916181  0.0
C  C36  1  0.86737793  0.51698462  0.35179118  1  -0.245282  -0.000493  3.676058  -0.001  -0.286112  -0.000119  3.927822  -0.001  -0.291649  7.7e-05  3.935354  0.0  -0.171149  -0.282153  0.001412  3.92208  0.001
C  C37  1  0.13262473  0.48301825  0.64820992  1  -0.245317  -0.000492  3.676279  -0.001  -0.286027  -0.000119  3.927991  -0.001  -0.291539  7.7e-05  3.935538  0.0  -0.171061  -0.282065  0.001411  3.922247  0.001
C  C38  1  0.72872252  0.65091173  0.42347786  1  0.695655  0.004281  3.806944  0.004  0.65718  0.000435  4.107328  0.001  0.693285  0.000283  4.098744  0.0  0.212953  0.631954  0.000807  4.11194  0.0
C  C39  1  0.27127737  0.34909380  0.57651781  1  0.695762  0.004284  3.807105  0.004  0.657177  0.000436  4.107614  0.001  0.693279  0.000285  4.09903  0.0  0.213033  0.63195  0.000809  4.11222  0.0
C  C40  1  0.50191793  0.90630683  0.23520405  1  0.12318  0.002034  3.660396  0.002  0.089606  7.9e-05  3.921234  0.0  0.099526  0.000525  3.940698  0.001  0.047885  0.082922  0.00082  3.908075  0.0
C  C41  1  0.49807646  0.09369089  0.76479498  1  0.1232  0.002038  3.660363  0.002  0.089649  8e-05  3.921263  0.0  0.099571  0.000525  3.940728  0.001  0.047834  0.082974  0.00082  3.908089  0.0
C  C42  1  0.43658007  0.90558632  0.11889982  1  -0.140458  -0.002466  3.697728  -0.003  -0.164281  -0.001219  3.95181  -0.002  -0.170955  -0.001227  3.970908  -0.002  -0.076812  -0.159309  0.001732  3.938382  0.002
C  C43  1  0.56340309  0.09442224  0.88110493  1  -0.140465  -0.002469  3.69785  -0.003  -0.164372  -0.00122  3.951893  -0.002  -0.171047  -0.001227  3.970994  -0.002  -0.076847  -0.159403  0.001733  3.938459  0.002
C  C44  1  0.27324337  0.01015954  0.10382870  1  0.052143  0.002245  3.794273  0.002  0.065297  0.000687  4.033179  0.001  0.069244  0.000923  4.052175  0.001  0.015768  0.062159  -0.000309  4.020314  0.0
C  C45  1  0.72674961  0.98984999  0.89616475  1  0.052088  0.00225  3.793996  0.002  0.065346  0.000687  4.032772  0.001  0.069293  0.000923  4.051772  0.001  0.015802  0.062203  -0.00031  4.019904  0.0
C  C46  1  0.18022292  0.10892540  0.20915050  1  -0.126608  -0.002352  3.688372  -0.003  -0.14839  -0.001155  3.935616  -0.002  -0.154553  -0.001199  3.954537  -0.002  -0.072957  -0.144636  0.001692  3.923393  0.002
C  C47  1  0.81977789  0.89105514  0.79085176  1  -0.126613  -0.002356  3.68807  -0.003  -0.14838  -0.001155  3.935305  -0.002  -0.154551  -0.001199  3.954235  -0.002  -0.072928  -0.144627  0.001691  3.923083  0.002
C  C48  1  0.25231414  0.10150387  0.32280593  1  0.120509  0.002135  3.656865  0.002  0.091739  0.000182  3.906527  0.0  0.100838  0.000634  3.926195  0.001  0.050317  0.0852  0.000748  3.893789  0.0
C  C49  1  0.74768926  0.89847127  0.67719326  1  0.12074  0.002138  3.656184  0.002  0.091981  0.000183  3.905898  0.0  0.10108  0.000635  3.925567  0.001  0.050501  0.085433  0.000747  3.89315  0.0
C  C50  1  0.20125044  0.02438085  0.98259341  1  0.300447  -0.000791  3.776186  -0.001  0.263761  -0.000184  4.056786  0.0  0.276297  -0.000244  4.071219  0.0  0.222655  0.255823  4.5e-05  4.046502  0.0
C  C51  1  0.79873824  0.97562830  0.01740706  1  0.300404  -0.000794  3.776172  -0.001  0.263758  -0.000184  4.056667  0.0  0.276296  -0.000243  4.071101  0.0  0.222673  0.255825  4.5e-05  4.046376  0.0
C  C52  1  0.06171003  0.11058605  0.82979713  1  0.28702  -0.001313  3.782267  -0.002  0.265343  -0.000268  4.058262  -0.001  0.274761  -0.000335  4.073642  -0.001  0.21769  0.258857  -0.00021  4.048756  -0.001
C  C53  1  0.93829228  0.88941966  0.17020116  1  0.286972  -0.001319  3.782164  -0.002  0.265281  -0.000268  4.058203  -0.001  0.27471  -0.000335  4.073568  -0.001  0.217693  0.258797  -0.00021  4.048697  -0.001
C  C54  1  0.94060412  0.20660493  0.75436004  1  0.060135  0.009967  3.770196  0.008  0.071129  0.002955  4.005837  0.002  0.075189  0.002978  4.025602  0.002  0.013666  0.068034  0.004086  3.993069  0.003
C  C55  1  0.05939354  0.79339601  0.24564152  1  0.060174  0.009985  3.770187  0.008  0.071148  0.002955  4.005899  0.002  0.075203  0.002978  4.025662  0.002  0.013676  0.068055  0.004086  3.99313  0.003
C  C56  1  0.81839057  0.33867966  0.80910862  1  -0.139715  -0.007625  3.670852  -0.009  -0.156772  -0.002569  3.911684  -0.003  -0.163998  -0.002431  3.930709  -0.003  -0.078757  -0.151955  -0.00324  3.899649  -0.004
C  C57  1  0.18161605  0.66132682  0.19088739  1  -0.139843  -0.00764  3.670796  -0.009  -0.156826  -0.00257  3.911624  -0.003  -0.164054  -0.002431  3.93065  -0.003  -0.078725  -0.152005  -0.00324  3.899591  -0.004
C  C58  1  0.70428296  0.42534881  0.73309207  1  0.11275  0.009527  3.692461  0.008  0.089974  0.001813  3.946329  0.002  0.097186  0.002464  3.965722  0.002  0.041211  0.08452  0.002033  3.933447  0.002
C  C59  1  0.29571194  0.57465556  0.26691352  1  0.112717  0.009545  3.692217  0.008  0.089949  0.001812  3.946089  0.002  0.097163  0.002463  3.965485  0.002  0.041197  0.08449  0.002032  3.933206  0.002
C  C60  1  0.82302465  0.26122893  0.55627421  1  0.119272  0.010138  3.701426  0.008  0.093782  0.002351  3.962041  0.002  0.102396  0.002971  3.977987  0.003  0.03887  0.087155  0.002015  3.951795  0.002
C  C61  1  0.17698525  0.73878123  0.44373002  1  0.119136  0.010156  3.701595  0.008  0.093722  0.002352  3.962137  0.002  0.102336  0.002971  3.978085  0.003  0.038855  0.087095  0.002015  3.951887  0.002
C  C62  1  0.94178751  0.16881405  0.62467731  1  -0.119851  -0.007286  3.686882  -0.009  -0.145083  -0.002246  3.940235  -0.003  -0.150997  -0.002226  3.957993  -0.003  -0.07763  -0.141615  -0.002961  3.929373  -0.004
C  C63  1  0.05821413  0.83118397  0.37532674  1  -0.119684  -0.0073  3.686964  -0.009  -0.145022  -0.002245  3.940346  -0.003  -0.150925  -0.002225  3.958107  -0.003  -0.077597  -0.141555  -0.002961  3.92948  -0.004
N  N64  1  0.41202982  0.00270304  0.33548406  1  -0.238432  -0.019379  3.324572  -0.026  -0.189762  -0.013647  3.611706  -0.018  -0.224808  -0.012648  3.633379  -0.016  -0.329284  -0.166919  0.021344  3.597077  0.018
N  N65  1  0.58797302  0.99729450  0.66451420  1  -0.238534  -0.01938  3.324092  -0.026  -0.189978  -0.013646  3.611393  -0.018  -0.225024  -0.012648  3.63306  -0.016  -0.329281  -0.167132  0.021343  3.596759  0.018
N  N66  1  0.08497516  0.14439412  0.95126253  1  -0.438419  0.001673  2.90368  0.002  -0.41595  0.000479  3.178196  0.0  -0.429545  0.000524  3.189485  0.001  -0.325066  -0.407528  0.000538  3.171006  0.0
N  N67  1  0.91501541  0.85561578  0.04873493  1  -0.438453  0.001678  2.903774  0.002  -0.415985  0.000479  3.178267  0.0  -0.429584  0.000524  3.189554  0.001  -0.325092  -0.407563  0.000538  3.171073  0.0
N  N68  1  0.24708583  0.92256179  0.88335487  1  -0.212384  0.001221  3.36348  0.001  -0.151805  0.000372  3.600799  0.0  -0.166604  0.00044  3.616329  0.0  -0.248506  -0.142181  0.000343  3.590986  0.0
N  N69  1  0.75290114  0.07744189  0.11665333  1  -0.212288  0.001225  3.363327  0.001  -0.151734  0.000371  3.600614  0.0  -0.166534  0.000439  3.616144  0.0  -0.248542  -0.142117  0.000343  3.590808  0.0
N  N70  1  0.15885286  0.97584223  0.78545672  1  -0.272178  0.003113  2.94409  0.003  -0.243751  0.000944  3.20662  0.001  -0.252892  0.000993  3.221041  0.001  -0.212029  -0.238956  0.000649  3.19834  0.001
N  N71  1  0.84115515  0.02415934  0.21454202  1  -0.27218  0.003121  2.943984  0.003  -0.243754  0.000945  3.206543  0.001  -0.252899  0.000992  3.22096  0.001  -0.212035  -0.238956  0.000649  3.19826  0.001
N  N72  1  0.70333244  0.38755986  0.60855490  1  -0.291841  -0.054202  3.263333  -0.081  -0.257251  -0.035508  3.553612  -0.054  -0.28425  -0.028319  3.575335  -0.045  -0.321256  -0.237443  -0.041156  3.539187  -0.061
N  N73  1  0.29666298  0.61244356  0.39145160  1  -0.291813  -0.054212  3.263277  -0.081  -0.257288  -0.035506  3.5536  -0.054  -0.284297  -0.028318  3.575332  -0.045  -0.321297  -0.237466  -0.041153  3.539162  -0.061
O  O74  1  0.64446375  0.37286402  0.33301271  1  -0.629193  -0.039022  2.095535  -0.061  -0.599026  -0.02478  2.373129  -0.039  -0.633027  -0.018267  2.36062  -0.029  -0.323557  -0.571903  -0.031596  2.38057  -0.048
O  O75  1  0.35553872  0.62715095  0.66698651  1  -0.629103  -0.039037  2.095695  -0.061  -0.598919  -0.024788  2.373275  -0.039  -0.63293  -0.018273  2.360771  -0.029  -0.323502  -0.571773  -0.031606  2.380663  -0.048
O  O76  1  0.69177250  0.33863748  0.11977219  1  -0.623453  -0.010496  1.938687  -0.016  -0.585699  -0.006172  2.168969  -0.009  -0.610267  -0.003987  2.158504  -0.006  -0.331082  -0.567156  -0.008469  2.175315  -0.013
O  O77  1  0.30822740  0.66136076  0.88022161  1  -0.623262  -0.010498  1.938897  -0.016  -0.585511  -0.006174  2.169136  -0.009  -0.61008  -0.003988  2.158674  -0.006  -0.33101  -0.566971  -0.008471  2.175477  -0.013
O  O78  1  0.59000383  0.64990203  0.48492167  1  -0.627343  -0.0433  2.171018  -0.07  -0.584519  -0.030002  2.435072  -0.049  -0.622661  -0.02309  2.424123  -0.039  -0.313022  -0.555013  -0.034792  2.441547  -0.056
O  O79  1  0.41000955  0.35009142  0.51507848  1  -0.627432  -0.043303  2.171197  -0.07  -0.584527  -0.030004  2.435293  -0.049  -0.622676  -0.023091  2.424335  -0.039  -0.313053  -0.555018  -0.034796  2.441765  -0.056
O  O80  1  0.74946797  0.76076738  0.41776525  1  -0.62623  -0.012811  1.988555  -0.019  -0.587446  -0.006777  2.229464  -0.01  -0.614762  -0.004273  2.217653  -0.007  -0.311068  -0.567685  -0.000797  2.237493  -0.003
O  O81  1  0.25051535  0.23924275  0.58223381  1  -0.626283  -0.012808  1.988426  -0.019  -0.587498  -0.006776  2.229414  -0.01  -0.614804  -0.004271  2.217584  -0.007  -0.311133  -0.567739  -0.000797  2.23744  -0.003
O  O82  1  0.63809199  0.10042708  0.44908124  1  -0.773027  0.031662  2.070342  0.03  -0.748214  0.02243  2.32391  0.021  -0.790954  0.020624  2.288759  0.019  -0.559497  -0.717762  -0.017  2.346853  -0.023
O  O83  1  0.36190517  0.89956774  0.55092038  1  -0.772939  0.031658  2.070319  0.03  -0.74817  0.022428  2.32388  0.021  -0.790889  0.020621  2.288817  0.019  -0.559478  -0.717708  -0.016997  2.346795  -0.023
