# generated using pymatgen
data_CdH8C12(N2O)2
_symmetry_space_group_name_H-M   'P 1'
_cell_length_a   5.32517234
_cell_length_b   10.56868863
_cell_length_c   10.87222725
_cell_angle_alpha   89.99798749
_cell_angle_beta   90.76007935
_cell_angle_gamma   90.00254925
_symmetry_Int_Tables_number   1
_chemical_formula_structural   CdH8C12(N2O)2
_chemical_formula_sum   'Cd2 H16 C24 N8 O4'
_cell_volume   611.83606910
_cell_formula_units_Z   2
loop_
 _symmetry_equiv_pos_site_id
 _symmetry_equiv_pos_as_xyz
  1  'x, y, z'
loop_
 _atom_site_type_symbol
 _atom_site_label
 _atom_site_symmetry_multiplicity
 _atom_site_fract_x
 _atom_site_fract_y
 _atom_site_fract_z
 _atom_site_occupancy
 _atom_site_hle17_bader_spin_density
 _atom_site_hle17_ddec_charge
 _atom_site_hle17_ddec_spin_density
 _atom_site_hle17_ddec_sum_bond_order
 _atom_site_hle17_magmom
 _atom_site_hse06_10hf_bader_spin_density
 _atom_site_hse06_10hf_ddec_charge
 _atom_site_hse06_10hf_ddec_spin_density
 _atom_site_hse06_10hf_ddec_sum_bond_order
 _atom_site_hse06_10hf_magmom
 _atom_site_hse06_bader_spin_density
 _atom_site_hse06_ddec_charge
 _atom_site_hse06_ddec_spin_density
 _atom_site_hse06_ddec_sum_bond_order
 _atom_site_hse06_magmom
 _atom_site_pbe_bader_spin_density
 _atom_site_pbe_cm5_charge
 _atom_site_pbe_ddec_charge
 _atom_site_pbe_ddec_spin_density
 _atom_site_pbe_ddec_sum_bond_order
 _atom_site_pbe_magmom
Cd  Cd0  1  0.50000740  0.50000302  0.99999525  1  0  1.018013  0  1.815209  0  0  0.812659  0  2.26693  0  0  0.867701  0  2.224679  0  0  0.778717  0.773509  0  2.295941  0
Cd  Cd1  1  0.49997788  0.99999858  0.50000755  1  0  1.018216  0  1.814986  0  0  0.812871  0  2.26672  0  0  0.86791  0  2.224467  0  0  0.778721  0.773721  0  2.295731  0
H  H2  1  0.34701290  0.40657055  0.22978870  1  0  0.09578  0  0.996463  0  0  0.099076  0  1.070336  0  0  0.102258  0  1.06936  0  0  0.102521  0.096295  0  1.072207  0
H  H3  1  0.65295091  0.90656726  0.27021349  1  0  0.095687  0  0.99681  0  0  0.099067  0  1.070613  0  0  0.102249  0  1.069631  0  0  0.102547  0.096282  0  1.072496  0
H  H4  1  0.65298106  0.59343121  0.77022109  1  0  0.095738  0  0.996372  0  0  0.099043  0  1.070259  0  0  0.102225  0  1.069279  0  0  0.102535  0.096263  0  1.072135  0
H  H5  1  0.34701467  0.09342126  0.72977595  1  0  0.095734  0  0.996625  0  0  0.099048  0  1.070476  0  0  0.102225  0  1.069501  0  0  0.102513  0.096265  0  1.072358  0
H  H6  1  0.57478417  0.25055987  0.36396032  1  0  0.082143  0  0.956252  0  0  0.088909  0  1.021387  0  0  0.092309  0  1.018353  0  0  0.110614  0.086484  0  1.0235  0
H  H7  1  0.42524302  0.75057140  0.13600776  1  0  0.081923  0  0.956422  0  0  0.088694  0  1.021576  0  0  0.092091  0  1.01854  0  0  0.110518  0.086272  0  1.023689  0
H  H8  1  0.42523034  0.74943527  0.63603852  1  0  0.082187  0  0.956175  0  0  0.088917  0  1.021362  0  0  0.09232  0  1.018328  0  0  0.110595  0.086495  0  1.023472  0
H  H9  1  0.57471881  0.24941144  0.86398258  1  0  0.081979  0  0.956428  0  0  0.088772  0  1.021574  0  0  0.092161  0  1.018539  0  0  0.110573  0.086356  0  1.023681  0
H  H10  1  0.17107370  0.95073656  0.21680696  1  0  0.070801  0  0.944733  0  0  0.080774  0  1.008063  0  0  0.08271  0  1.006872  0  0  0.111792  0.079363  0  1.009019  0
H  H11  1  0.82886374  0.45076984  0.28318814  1  0  0.070868  0  0.944595  0  0  0.080836  0  1.007913  0  0  0.082778  0  1.006717  0  0  0.111857  0.079407  0  1.008921  0
H  H12  1  0.82892968  0.04925858  0.78320655  1  0  0.070859  0  0.944662  0  0  0.080806  0  1.008021  0  0  0.082747  0  1.006826  0  0  0.11181  0.079381  0  1.009025  0
H  H13  1  0.17115265  0.54922436  0.71681162  1  0  0.070809  0  0.944795  0  0  0.080871  0  1.008006  0  0  0.082813  0  1.00681  0  0  0.111866  0.079445  0  1.009012  0
H  H14  1  0.91988437  0.09479197  0.07968482  1  0  0.111385  0  0.939971  0  0  0.121059  0  0.998339  0  0  0.124904  0  0.996704  0  0  0.108273  0.118282  0  0.9997  0
H  H15  1  0.08004169  0.59479828  0.42031929  1  0  0.11126  0  0.940262  0  0  0.120983  0  0.998552  0  0  0.124832  0  0.996915  0  0  0.108236  0.118206  0  0.99991  0
H  H16  1  0.08011341  0.90520506  0.92033050  1  0  0.111397  0  0.939977  0  0  0.121059  0  0.998347  0  0  0.124903  0  0.996708  0  0  0.108262  0.118281  0  0.999705  0
H  H17  1  0.91995791  0.40521862  0.57969144  1  0  0.111199  0  0.940373  0  0  0.120926  0  0.998666  0  0  0.124767  0  0.99703  0  0  0.108234  0.118151  0  1.000021  0
C  C18  1  0.96368923  0.35126163  0.06597434  1  0  0.45034  0  3.89708  0  0  0.408455  0  4.184273  0  0  0.434766  0  4.189146  0  0  0.200744  0.391079  0  4.179521  0
C  C19  1  0.03628491  0.85125129  0.43402881  1  0  0.450312  0  3.897345  0  0  0.408277  0  4.184761  0  0  0.43459  0  4.189636  0  0  0.200608  0.390897  0  4.180006  0
C  C20  1  0.03633100  0.64873161  0.93403372  1  0  0.44999  0  3.897401  0  0  0.40832  0  4.184393  0  0  0.434629  0  4.189276  0  0  0.200756  0.390941  0  4.179637  0
C  C21  1  0.96368265  0.14874952  0.56596983  1  0  0.450133  0  3.897235  0  0  0.408418  0  4.184303  0  0  0.434734  0  4.189183  0  0  0.200716  0.391036  0  4.179548  0
C  C22  1  0.11829036  0.26245138  0.14151556  1  0  0.028555  0  3.743493  0  0  0.043298  0  3.978443  0  0  0.043952  0  3.997603  0  0  0.006383  0.042667  0  3.965543  0
C  C23  1  0.88168718  0.76245106  0.35845652  1  0  0.028783  0  3.743481  0  0  0.043556  0  3.978458  0  0  0.044211  0  3.997618  0  0  0.006498  0.042924  0  3.965563  0
C  C24  1  0.88172420  0.73755417  0.85848879  1  0  0.028527  0  3.742948  0  0  0.043118  0  3.978008  0  0  0.043776  0  3.997162  0  0  0.006223  0.042487  0  3.965114  0
C  C25  1  0.11831980  0.23756206  0.64154045  1  0  0.028654  0  3.742891  0  0  0.043238  0  3.978005  0  0  0.043892  0  3.997164  0  0  0.006377  0.042608  0  3.96511  0
C  C26  1  0.30484826  0.30599764  0.22293772  1  0  -0.138606  0  3.728653  0  0  -0.156639  0  3.976553  0  0  -0.161962  0  3.995881  0  0  -0.086078  -0.153479  0  3.964669  0
C  C27  1  0.69516114  0.80601399  0.27703304  1  0  -0.138872  0  3.728812  0  0  -0.156983  0  3.976727  0  0  -0.162305  0  3.996045  0  0  -0.086216  -0.153823  0  3.96485  0
C  C28  1  0.69517184  0.69400412  0.77705745  1  0  -0.13853  0  3.728466  0  0  -0.156539  0  3.976398  0  0  -0.161861  0  3.995726  0  0  -0.08607  -0.153376  0  3.964514  0
C  C29  1  0.30482330  0.19398209  0.72296383  1  0  -0.138747  0  3.728688  0  0  -0.156705  0  3.976648  0  0  -0.162025  0  3.995969  0  0  -0.086087  -0.153543  0  3.964769  0
C  C30  1  0.43201134  0.21988772  0.29743515  1  0  0.131824  0  3.703396  0  0  0.10239  0  3.956916  0  0  0.108873  0  3.973076  0  0  0.040334  0.097996  0  3.94648  0
C  C31  1  0.56796454  0.71990387  0.20254477  1  0  0.132432  0  3.703988  0  0  0.102949  0  3.957588  0  0  0.109444  0  3.973739  0  0  0.040694  0.098549  0  3.947151  0
C  C32  1  0.56798635  0.78011594  0.70257189  1  0  0.131798  0  3.703574  0  0  0.10236  0  3.957123  0  0  0.108842  0  3.973287  0  0  0.04039  0.097967  0  3.946681  0
C  C33  1  0.43203108  0.28008843  0.79744387  1  0  0.132294  0  3.704235  0  0  0.102732  0  3.957893  0  0  0.109233  0  3.974041  0  0  0.040578  0.098329  0  3.947462  0
C  C34  1  0.20599677  0.05256215  0.21659234  1  0  0.127134  0  3.720592  0  0  0.097358  0  3.975721  0  0  0.104016  0  3.993238  0  0  0.03965  0.092817  0  3.964259  0
C  C35  1  0.79400036  0.55258055  0.28336748  1  0  0.126987  0  3.720612  0  0  0.097179  0  3.9758  0  0  0.103834  0  3.993323  0  0  0.039618  0.092634  0  3.964328  0
C  C36  1  0.79403465  0.94743962  0.78340748  1  0  0.127027  0  3.720788  0  0  0.097217  0  3.975935  0  0  0.103876  0  3.993454  0  0  0.039488  0.092672  0  3.964465  0
C  C37  1  0.20601396  0.44742311  0.71661388  1  0  0.126873  0  3.721077  0  0  0.097017  0  3.976252  0  0  0.10367  0  3.993771  0  0  0.039484  0.092477  0  3.964779  0
C  C38  1  0.06807223  0.13220005  0.13946785  1  0  -0.132712  0  3.697622  0  0  -0.151851  0  3.943276  0  0  -0.157329  0  3.962293  0  0  -0.081932  -0.14813  0  3.93078  0
C  C39  1  0.93187201  0.63220176  0.36053418  1  0  -0.132544  0  3.697648  0  0  -0.15165  0  3.943179  0  0  -0.157134  0  3.962201  0  0  -0.081847  -0.147924  0  3.930673  0
C  C40  1  0.93192363  0.86781307  0.86054379  1  0  -0.13267  0  3.697419  0  0  -0.151718  0  3.943073  0  0  -0.157187  0  3.962073  0  0  -0.081798  -0.147994  0  3.930578  0
C  C41  1  0.06814240  0.36781703  0.63945545  1  0  -0.132321  0  3.697474  0  0  -0.151445  0  3.943169  0  0  -0.156916  0  3.962177  0  0  -0.081764  -0.147719  0  3.930663  0
N  N42  1  0.07602820  0.45856049  0.03220151  1  0  -0.393514  0  3.250601  0  0  -0.334431  0  3.534232  0  0  -0.359216  0  3.558179  0  0  -0.285438  -0.316836  0  3.516603  0
N  N43  1  0.92397761  0.95855995  0.46780280  1  0  -0.393696  0  3.250136  0  0  -0.33456  0  3.533797  0  0  -0.359355  0  3.557757  0  0  -0.285556  -0.31696  0  3.516162  0
N  N44  1  0.92399208  0.54142992  0.96781115  1  0  -0.393569  0  3.250716  0  0  -0.334527  0  3.534259  0  0  -0.359323  0  3.55823  0  0  -0.285667  -0.316933  0  3.51663  0
N  N45  1  0.07602178  0.04144370  0.53218677  1  0  -0.393681  0  3.250272  0  0  -0.334605  0  3.533814  0  0  -0.359403  0  3.557776  0  0  -0.285625  -0.317003  0  3.51618  0
N  N46  1  0.38453218  0.09483101  0.29545821  1  0  -0.337766  0  3.202927  0  0  -0.269247  0  3.467274  0  0  -0.285045  0  3.483476  0  0  -0.328516  -0.258625  0  3.456928  0
N  N47  1  0.61545190  0.59486238  0.20452683  1  0  -0.337933  0  3.203857  0  0  -0.269386  0  3.468224  0  0  -0.28519  0  3.484433  0  0  -0.328844  -0.258759  0  3.457872  0
N  N48  1  0.61547304  0.90516981  0.70455162  1  0  -0.337688  0  3.202852  0  0  -0.269112  0  3.467156  0  0  -0.284917  0  3.483362  0  0  -0.328393  -0.258483  0  3.456801  0
N  N49  1  0.38453238  0.40512235  0.79545441  1  0  -0.337798  0  3.20415  0  0  -0.269216  0  3.468526  0  0  -0.285021  0  3.484731  0  0  -0.328686  -0.258589  0  3.458179  0
O  O50  1  0.73406103  0.32033785  0.04467818  1  0  -0.60432  0  2.016351  0  0  -0.535429  0  2.2604  0  0  -0.56403  0  2.254554  0  0  -0.327593  -0.514607  0  2.262962  0
O  O51  1  0.26589180  0.82033297  0.45533511  1  0  -0.604354  0  2.016706  0  0  -0.535409  0  2.260842  0  0  -0.564009  0  2.254987  0  0  -0.327492  -0.514601  0  2.263436  0
O  O52  1  0.26596286  0.67967054  0.95532069  1  0  -0.60412  0  2.01634  0  0  -0.535361  0  2.26039  0  0  -0.563976  0  2.254577  0  0  -0.327589  -0.514534  0  2.262948  0
O  O53  1  0.73407568  0.17967068  0.54465618  1  0  -0.6042  0  2.016724  0  0  -0.53544  0  2.260811  0  0  -0.564038  0  2.254958  0  0  -0.327535  -0.514618  0  2.263371  0
