# generated using pymatgen
data_Zn2H22C19(NO5)2
_symmetry_space_group_name_H-M   'P 1'
_cell_length_a   7.28552115
_cell_length_b   7.28549902
_cell_length_c   26.48046586
_cell_angle_alpha   90.00001199
_cell_angle_beta   89.99932350
_cell_angle_gamma   89.32294009
_symmetry_Int_Tables_number   1
_chemical_formula_structural   Zn2H22C19(NO5)2
_chemical_formula_sum   'Zn4 H44 C38 N4 O20'
_cell_volume   1405.44943513
_cell_formula_units_Z   2
loop_
 _symmetry_equiv_pos_site_id
 _symmetry_equiv_pos_as_xyz
  1  'x, y, z'
loop_
 _atom_site_type_symbol
 _atom_site_label
 _atom_site_symmetry_multiplicity
 _atom_site_fract_x
 _atom_site_fract_y
 _atom_site_fract_z
 _atom_site_occupancy
 _atom_site_hle17_bader_spin_density
 _atom_site_hle17_ddec_charge
 _atom_site_hle17_ddec_spin_density
 _atom_site_hle17_ddec_sum_bond_order
 _atom_site_hle17_magmom
 _atom_site_hse06_10hf_bader_spin_density
 _atom_site_hse06_10hf_ddec_charge
 _atom_site_hse06_10hf_ddec_spin_density
 _atom_site_hse06_10hf_ddec_sum_bond_order
 _atom_site_hse06_10hf_magmom
 _atom_site_hse06_bader_spin_density
 _atom_site_hse06_ddec_charge
 _atom_site_hse06_ddec_spin_density
 _atom_site_hse06_ddec_sum_bond_order
 _atom_site_hse06_magmom
 _atom_site_pbe_bader_spin_density
 _atom_site_pbe_cm5_charge
 _atom_site_pbe_ddec_charge
 _atom_site_pbe_ddec_spin_density
 _atom_site_pbe_ddec_sum_bond_order
 _atom_site_pbe_magmom
Zn  Zn0  1  0.03569325  0.31341809  0.72007414  1  0  1.092984  0  1.771094  0  0  0.921925  0  2.21632  0  0  0.970493  0  2.160411  0  0  0.667948  0.887862  0  2.254632  0
Zn  Zn1  1  0.68658079  0.96431085  0.27992639  1  0  1.093011  0  1.771045  0  0  0.921938  0  2.216253  0  0  0.970506  0  2.160344  0  0  0.667962  0.887875  0  2.254551  0
Zn  Zn2  1  0.18657540  0.46431361  0.22007250  1  0  1.093049  0  1.770987  0  0  0.921998  0  2.216192  0  0  0.970565  0  2.160284  0  0  0.667981  0.887935  0  2.254513  0
Zn  Zn3  1  0.53568895  0.81342358  0.77992766  1  0  1.093002  0  1.770951  0  0  0.921945  0  2.21614  0  0  0.970511  0  2.160235  0  0  0.667973  0.88789  0  2.254433  0
H  H4  1  0.76886621  0.20265204  0.77025523  1  0  0.414653  0  0.892629  0  0  0.382672  0  0.95794  0  0  0.394379  0  0.940985  0  0  0.28471  0.374425  0  0.969861  0
H  H5  1  0.79734764  0.23113728  0.22974543  1  0  0.41485  0  0.892368  0  0  0.382839  0  0.957727  0  0  0.394548  0  0.940767  0  0  0.284766  0.374584  0  0.969661  0
H  H6  1  0.29734262  0.73113994  0.27025422  1  0  0.414818  0  0.892411  0  0  0.382751  0  0.95783  0  0  0.394461  0  0.940871  0  0  0.284762  0.374503  0  0.969749  0
H  H7  1  0.26886568  0.70265463  0.72974581  1  0  0.414754  0  0.892486  0  0  0.382759  0  0.957793  0  0  0.394467  0  0.940837  0  0  0.284768  0.374515  0  0.969712  0
H  H8  1  0.76937946  0.42438533  0.77030206  1  0  0.416317  0  0.890904  0  0  0.383411  0  0.957512  0  0  0.395158  0  0.940519  0  0  0.284884  0.375139  0  0.96946  0
H  H9  1  0.57561550  0.23062645  0.22969859  1  0  0.416312  0  0.890898  0  0  0.383388  0  0.957536  0  0  0.395137  0  0.940542  0  0  0.284851  0.375117  0  0.969481  0
H  H10  1  0.07560908  0.73063048  0.27029914  1  0  0.416264  0  0.890963  0  0  0.383334  0  0.957606  0  0  0.395084  0  0.940611  0  0  0.284832  0.375057  0  0.96956  0
H  H11  1  0.26938030  0.92438792  0.72969974  1  0  0.416323  0  0.890899  0  0  0.383413  0  0.957503  0  0  0.395161  0  0.940509  0  0  0.284896  0.375138  0  0.969457  0
H  H12  1  0.30780707  0.31461130  0.86689023  1  0  0.138293  0  0.917759  0  0  0.148143  0  0.972421  0  0  0.152715  0  0.969034  0  0  0.102488  0.144906  0  0.974876  0
H  H13  1  0.68538695  0.69218957  0.13310873  1  0  0.138327  0  0.917829  0  0  0.148197  0  0.97247  0  0  0.15277  0  0.96908  0  0  0.102515  0.144963  0  0.974924  0
H  H14  1  0.18539030  0.19219251  0.36688978  1  0  0.138195  0  0.917914  0  0  0.148109  0  0.972484  0  0  0.152684  0  0.969092  0  0  0.102491  0.144876  0  0.974943  0
H  H15  1  0.80781747  0.81460559  0.63311145  1  0  0.138103  0  0.917945  0  0  0.148075  0  0.972502  0  0  0.152646  0  0.969112  0  0  0.1025  0.144843  0  0.974961  0
H  H16  1  0.08421072  0.31580421  0.83686166  1  0  0.158706  0  0.92726  0  0  0.169121  0  0.985546  0  0  0.173462  0  0.982736  0  0  0.112824  0.166066  0  0.987597  0
H  H17  1  0.68419637  0.91578973  0.16313616  1  0  0.158687  0  0.927307  0  0  0.169129  0  0.985571  0  0  0.173445  0  0.98279  0  0  0.112828  0.166073  0  0.987636  0
H  H18  1  0.18419827  0.41579264  0.33686161  1  0  0.158764  0  0.927123  0  0  0.169146  0  0.985442  0  0  0.173486  0  0.982635  0  0  0.112861  0.16609  0  0.987504  0
H  H19  1  0.58421845  0.81579855  0.66314036  1  0  0.158826  0  0.927203  0  0  0.169252  0  0.98549  0  0  0.173568  0  0.982708  0  0  0.112886  0.166194  0  0.987554  0
H  H20  1  0.68391694  0.31586501  0.63987700  1  0  0.117103  0  0.979061  0  0  0.123977  0  1.0443  0  0  0.126997  0  1.044179  0  0  0.105943  0.121793  0  1.044607  0
H  H21  1  0.68411840  0.31608549  0.36012172  1  0  0.117109  0  0.979055  0  0  0.12395  0  1.044339  0  0  0.126971  0  1.044217  0  0  0.105918  0.121765  0  1.044642  0
H  H22  1  0.18412992  0.81609481  0.13987604  1  0  0.11702  0  0.979164  0  0  0.123844  0  1.044484  0  0  0.126864  0  1.044366  0  0  0.105883  0.121661  0  1.044788  0
H  H23  1  0.18390529  0.81586642  0.86012281  1  0  0.117065  0  0.979071  0  0  0.123862  0  1.044439  0  0  0.126882  0  1.044321  0  0  0.105879  0.121675  0  1.044742  0
H  H24  1  0.44979270  0.34827027  0.70750194  1  0  0.085701  0  0.937734  0  0  0.092888  0  1.00225  0  0  0.095046  0  1.000577  0  0  0.120008  0.091279  0  1.003487  0
H  H25  1  0.65171717  0.55021134  0.29249759  1  0  0.085618  0  0.937724  0  0  0.092807  0  1.002236  0  0  0.094961  0  1.000567  0  0  0.120001  0.091199  0  1.003463  0
H  H26  1  0.15172049  0.05022094  0.20749988  1  0  0.085659  0  0.937624  0  0  0.092828  0  1.002193  0  0  0.094993  0  1.000501  0  0  0.120029  0.091224  0  1.003429  0
H  H27  1  0.94978095  0.84827991  0.79250041  1  0  0.085678  0  0.937599  0  0  0.092846  0  1.002166  0  0  0.095009  0  1.000478  0  0  0.120035  0.091237  0  1.003403  0
H  H28  1  0.02412834  0.26157915  0.60762749  1  0  0.076682  0  0.951474  0  0  0.083787  0  1.019414  0  0  0.086739  0  1.015641  0  0  0.114512  0.081521  0  1.022315  0
H  H29  1  0.73842266  0.97587190  0.39237411  1  0  0.076689  0  0.951461  0  0  0.083776  0  1.019423  0  0  0.086729  0  1.015647  0  0  0.114508  0.08151  0  1.022326  0
H  H30  1  0.23841932  0.47588137  0.10762500  1  0  0.07673  0  0.951328  0  0  0.083802  0  1.019308  0  0  0.086783  0  1.015503  0  0  0.114532  0.08154  0  1.022203  0
H  H31  1  0.52412183  0.76159440  0.89237698  1  0  0.076707  0  0.951399  0  0  0.083788  0  1.019372  0  0  0.086768  0  1.015568  0  0  0.114534  0.081519  0  1.022272  0
H  H32  1  0.24023311  0.22151642  0.53504761  1  0  0.098097  0  0.948849  0  0  0.109844  0  1.004571  0  0  0.112965  0  1.004275  0  0  0.103299  0.107615  0  1.00493  0
H  H33  1  0.77847778  0.75976344  0.46495244  1  0  0.09805  0  0.948953  0  0  0.109803  0  1.00467  0  0  0.112924  0  1.004373  0  0  0.103279  0.107574  0  1.005032  0
H  H34  1  0.27848714  0.25977692  0.03504539  1  0  0.09813  0  0.948911  0  0  0.109879  0  1.004613  0  0  0.113001  0  1.004315  0  0  0.103313  0.107649  0  1.004967  0
H  H35  1  0.74022349  0.72152765  0.96495541  1  0  0.0981  0  0.949048  0  0  0.109843  0  1.004756  0  0  0.112965  0  1.004459  0  0  0.103281  0.10761  0  1.005118  0
H  H36  1  0.60176110  0.10783649  0.52083768  1  0  0.076758  0  0.917311  0  0  0.096631  0  0.971514  0  0  0.097637  0  0.971464  0  0  0.096862  0.095927  0  0.971522  0
H  H37  1  0.89215264  0.39824268  0.47915970  1  0  0.076697  0  0.917352  0  0  0.096548  0  0.971576  0  0  0.097535  0  0.971546  0  0  0.096778  0.095844  0  0.971588  0
H  H38  1  0.39215972  0.89825048  0.02083475  1  0  0.076851  0  0.917221  0  0  0.096707  0  0.971454  0  0  0.097707  0  0.971411  0  0  0.096927  0.096001  0  0.971458  0
H  H39  1  0.10175254  0.60783806  0.97916276  1  0  0.076738  0  0.917241  0  0  0.096571  0  0.971488  0  0  0.097568  0  0.971446  0  0  0.096855  0.095866  0  0.971495  0
H  H40  1  0.75952832  0.23965212  0.55585607  1  0  0.077572  0  0.929951  0  0  0.09662  0  0.988004  0  0  0.097642  0  0.987581  0  0  0.096685  0.09579  0  0.988435  0
H  H41  1  0.76034047  0.24047020  0.44414165  1  0  0.077447  0  0.930079  0  0  0.096525  0  0.988087  0  0  0.097545  0  0.987664  0  0  0.096678  0.095725  0  0.988487  0
H  H42  1  0.26035426  0.74047940  0.05585587  1  0  0.07758  0  0.929902  0  0  0.096652  0  0.987943  0  0  0.097672  0  0.987523  0  0  0.096719  0.09584  0  0.98835  0
H  H43  1  0.25952269  0.73964951  0.94414235  1  0  0.077536  0  0.929954  0  0  0.096595  0  0.987982  0  0  0.097615  0  0.987558  0  0  0.096698  0.095788  0  0.988382  0
H  H44  1  0.47106420  0.38886613  0.48112674  1  0  0.06566  0  0.925599  0  0  0.085871  0  0.980997  0  0  0.086604  0  0.98159  0  0  0.092511  0.085321  0  0.980622  0
H  H45  1  0.61112337  0.52892743  0.51887434  1  0  0.065571  0  0.925657  0  0  0.085839  0  0.980985  0  0  0.086571  0  0.98158  0  0  0.092509  0.08529  0  0.98061  0
H  H46  1  0.11112044  0.02892779  0.98112531  1  0  0.065649  0  0.925603  0  0  0.085903  0  0.980954  0  0  0.086635  0  0.981549  0  0  0.092522  0.085351  0  0.980578  0
H  H47  1  0.97107256  0.88887263  0.01887577  1  0  0.065663  0  0.925599  0  0  0.085884  0  0.98099  0  0  0.086615  0  0.981586  0  0  0.092512  0.08533  0  0.98062  0
C  C48  1  0.28046739  0.13930537  0.80174904  1  0  0.742098  0  3.798564  0  0  0.692365  0  4.097572  0  0  0.727141  0  4.089768  0  0  0.220907  0.668654  0  4.102227  0
C  C49  1  0.86068979  0.71953631  0.19824967  1  0  0.741909  0  3.798926  0  0  0.692304  0  4.097758  0  0  0.72708  0  4.089954  0  0  0.220882  0.668596  0  4.102408  0
C  C50  1  0.36068362  0.21953781  0.30174827  1  0  0.741886  0  3.799519  0  0  0.69234  0  4.098219  0  0  0.727118  0  4.090413  0  0  0.220832  0.668635  0  4.102869  0
C  C51  1  0.78047075  0.63931074  0.69825158  1  0  0.741962  0  3.799219  0  0  0.69233  0  4.098075  0  0  0.727107  0  4.090264  0  0  0.220875  0.668621  0  4.102738  0
C  C52  1  0.23391951  0.31413074  0.83099747  1  0  -0.443449  0  3.645602  0  0  -0.478676  0  3.886748  0  0  -0.489806  0  3.886511  0  0  -0.172624  -0.471027  0  3.886715  0
C  C53  1  0.68587864  0.76608049  0.16900123  1  0  -0.443366  0  3.645889  0  0  -0.478698  0  3.887  0  0  -0.489808  0  3.886777  0  0  -0.172606  -0.471044  0  3.886972  0
C  C54  1  0.18589316  0.26608337  0.33099728  1  0  -0.443309  0  3.64596  0  0  -0.478588  0  3.886964  0  0  -0.489717  0  3.886731  0  0  -0.172631  -0.470948  0  3.886948  0
C  C55  1  0.73392723  0.81410037  0.66900368  1  0  -0.443302  0  3.645893  0  0  -0.478718  0  3.887076  0  0  -0.489822  0  3.886854  0  0  -0.1727  -0.471066  0  3.887053  0
C  C56  1  0.28025539  0.48576940  0.80082988  1  0  0.742751  0  3.804677  0  0  0.692638  0  4.104905  0  0  0.72745  0  4.097041  0  0  0.221411  0.668913  0  4.109585  0
C  C57  1  0.51422737  0.71974807  0.19916978  1  0  0.742676  0  3.804863  0  0  0.692605  0  4.105046  0  0  0.727417  0  4.097183  0  0  0.221385  0.668872  0  4.109729  0
C  C58  1  0.01422678  0.21974544  0.30082890  1  0  0.742848  0  3.804407  0  0  0.692709  0  4.104686  0  0  0.72752  0  4.096825  0  0  0.22144  0.668991  0  4.109353  0
C  C59  1  0.78026288  0.98576928  0.69917227  1  0  0.742902  0  3.804336  0  0  0.692736  0  4.10468  0  0  0.727544  0  4.096819  0  0  0.221463  0.669011  0  4.109359  0
C  C60  1  0.53907857  0.30229261  0.63067347  1  0  -0.176326  0  3.690266  0  0  -0.191438  0  3.931065  0  0  -0.201487  0  3.954585  0  0  -0.087516  -0.185026  0  3.915441  0
C  C61  1  0.69769229  0.46092433  0.36932660  1  0  -0.176368  0  3.690279  0  0  -0.191439  0  3.931108  0  0  -0.201492  0  3.954639  0  0  -0.087479  -0.185031  0  3.915479  0
C  C62  1  0.19770284  0.96093364  0.13067150  1  0  -0.176167  0  3.690291  0  0  -0.191275  0  3.931055  0  0  -0.201326  0  3.954581  0  0  -0.087417  -0.184866  0  3.915434  0
C  C63  1  0.03906787  0.80229678  0.86932681  1  0  -0.176157  0  3.690237  0  0  -0.191311  0  3.93103  0  0  -0.20136  0  3.954553  0  0  -0.087428  -0.184906  0  3.915413  0
C  C64  1  0.40883002  0.32077550  0.66875760  1  0  0.161567  0  3.670358  0  0  0.128905  0  3.923027  0  0  0.137207  0  3.940761  0  0  0.055133  0.123513  0  3.911093  0
C  C65  1  0.67921213  0.59117333  0.33124271  1  0  0.161658  0  3.670244  0  0  0.128981  0  3.922879  0  0  0.137282  0  3.940613  0  0  0.055171  0.123592  0  3.910933  0
C  C66  1  0.17921853  0.09118012  0.16875505  1  0  0.161654  0  3.670253  0  0  0.128972  0  3.922877  0  0  0.137274  0  3.940617  0  0  0.055169  0.12358  0  3.910944  0
C  C67  1  0.90881937  0.82078244  0.83124526  1  0  0.161595  0  3.670283  0  0  0.128931  0  3.922902  0  0  0.137233  0  3.940637  0  0  0.055187  0.123539  0  3.910964  0
C  C68  1  0.17182122  0.27278041  0.61268381  1  0  0.140517  0  3.728073  0  0  0.108451  0  3.97972  0  0  0.116496  0  3.997219  0  0  0.047769  0.103286  0  3.967836  0
C  C69  1  0.72721663  0.82817955  0.38731718  1  0  0.140515  0  3.728232  0  0  0.108432  0  3.979872  0  0  0.116476  0  3.997371  0  0  0.047754  0.103265  0  3.96799  0
C  C70  1  0.22721581  0.32818902  0.11268195  1  0  0.140468  0  3.727947  0  0  0.1084  0  3.979571  0  0  0.116422  0  3.997062  0  0  0.04781  0.103231  0  3.967687  0
C  C71  1  0.67181083  0.77279292  0.88731905  1  0  0.140474  0  3.728046  0  0  0.108406  0  3.97966  0  0  0.116426  0  3.997151  0  0  0.047807  0.103241  0  3.967769  0
C  C72  1  0.29338533  0.25053552  0.57270018  1  0  -0.194385  0  3.751267  0  0  -0.210644  0  3.99515  0  0  -0.220337  0  4.01859  0  0  -0.091965  -0.20439  0  3.979323  0
C  C73  1  0.74945288  0.70661885  0.42729983  1  0  -0.194403  0  3.751451  0  0  -0.21065  0  3.995362  0  0  -0.220341  0  4.018802  0  0  -0.091951  -0.204399  0  3.979536  0
C  C74  1  0.24946478  0.20662825  0.07269885  1  0  -0.194422  0  3.751386  0  0  -0.210712  0  3.995223  0  0  -0.220407  0  4.01867  0  0  -0.092013  -0.204449  0  3.979384  0
C  C75  1  0.79337052  0.75054260  0.92730229  1  0  -0.194411  0  3.751505  0  0  -0.210734  0  3.995312  0  0  -0.220428  0  4.018762  0  0  -0.091982  -0.204476  0  3.979481  0
C  C76  1  0.48260926  0.26381854  0.58142404  1  0  0.151908  0  3.741854  0  0  0.169786  0  3.977327  0  0  0.174528  0  4.001774  0  0  0.010772  0.166861  0  3.960573  0
C  C77  1  0.73617176  0.51739455  0.41857605  1  0  0.152006  0  3.74163  0  0  0.169808  0  3.97717  0  0  0.17455  0  4.001613  0  0  0.010741  0.166888  0  3.960418  0
C  C78  1  0.23618053  0.01740396  0.08142190  1  0  0.15188  0  3.741703  0  0  0.169872  0  3.977027  0  0  0.174616  0  4.001468  0  0  0.01072  0.166947  0  3.960281  0
C  C79  1  0.98259623  0.76382286  0.91857782  1  0  0.151798  0  3.741806  0  0  0.169878  0  3.976982  0  0  0.174618  0  4.00143  0  0  0.010708  0.166953  0  3.96023  0
C  C80  1  0.62045132  0.24153470  0.53960205  1  0  -0.152159  0  3.713686  0  0  -0.196403  0  3.969903  0  0  -0.19769  0  3.982377  0  0  -0.153495  -0.195304  0  3.961036  0
C  C81  1  0.75845440  0.37954853  0.46039665  1  0  -0.151916  0  3.713546  0  0  -0.196106  0  3.969722  0  0  -0.197377  0  3.982193  0  0  -0.153352  -0.195036  0  3.960853  0
C  C82  1  0.25846064  0.87955910  0.03960049  1  0  -0.152237  0  3.713504  0  0  -0.196532  0  3.969784  0  0  -0.197813  0  3.982255  0  0  -0.153547  -0.195445  0  3.960896  0
C  C83  1  0.12044351  0.74154173  0.96039871  1  0  -0.152061  0  3.713533  0  0  -0.196285  0  3.969642  0  0  -0.197561  0  3.982112  0  0  -0.153459  -0.195208  0  3.960762  0
C  C84  1  0.60550642  0.39448310  0.50000043  1  0  -0.093155  0  3.693914  0  0  -0.133278  0  3.95976  0  0  -0.134574  0  3.974433  0  0  -0.157653  -0.132183  0  3.949394  0
C  C85  1  0.10550755  0.89448951  0.99999985  1  0  -0.093232  0  3.693996  0  0  -0.13337  0  3.959902  0  0  -0.134668  0  3.974574  0  0  -0.157708  -0.132275  0  3.94954  0
N  N86  1  0.22805615  0.30569971  0.66015343  1  0  -0.313787  0  3.260455  0  0  -0.235881  0  3.523061  0  0  -0.254811  0  3.538395  0  0  -0.318843  -0.22312  0  3.512487  0
N  N87  1  0.69429641  0.77194871  0.33984753  1  0  -0.31382  0  3.260383  0  0  -0.235844  0  3.522908  0  0  -0.254771  0  3.53824  0  0  -0.318865  -0.223082  0  3.512325  0
N  N88  1  0.19429769  0.27195412  0.16015209  1  0  -0.313901  0  3.260479  0  0  -0.235913  0  3.522975  0  0  -0.254845  0  3.53832  0  0  -0.318931  -0.223154  0  3.512409  0
N  N89  1  0.72804787  0.80570666  0.83984887  1  0  -0.313805  0  3.260497  0  0  -0.235831  0  3.522997  0  0  -0.254761  0  3.538341  0  0  -0.318947  -0.223076  0  3.512419  0
O  O90  1  0.19877407  0.11361903  0.75949274  1  0  -0.665169  0  2.087892  0  0  -0.589524  0  2.334145  0  0  -0.619458  0  2.323303  0  0  -0.309579  -0.56878  0  2.341128  0
O  O91  1  0.88638078  0.80123495  0.24050456  1  0  -0.665171  0  2.088116  0  0  -0.589544  0  2.33429  0  0  -0.619478  0  2.323447  0  0  -0.309609  -0.568794  0  2.341274  0
O  O92  1  0.38638340  0.30122677  0.25949293  1  0  -0.665012  0  2.088144  0  0  -0.58947  0  2.334358  0  0  -0.619407  0  2.323517  0  0  -0.309532  -0.56873  0  2.341344  0
O  O93  1  0.69878257  0.61361346  0.74050739  1  0  -0.665049  0  2.087884  0  0  -0.589511  0  2.334176  0  0  -0.61944  0  2.323329  0  0  -0.309597  -0.568777  0  2.341172  0
O  O94  1  0.39631279  0.02843029  0.82073303  1  0  -0.635958  0  1.998174  0  0  -0.580386  0  2.254658  0  0  -0.606142  0  2.240834  0  0  -0.318023  -0.56242  0  2.263623  0
O  O95  1  0.97156439  0.60368519  0.17926720  1  0  -0.635903  0  1.998176  0  0  -0.580366  0  2.254576  0  0  -0.606124  0  2.240757  0  0  -0.318024  -0.562398  0  2.263542  0
O  O96  1  0.47157101  0.10369767  0.32072963  1  0  -0.6361  0  1.998387  0  0  -0.580528  0  2.254719  0  0  -0.606284  0  2.240893  0  0  -0.318077  -0.562562  0  2.263681  0
O  O97  1  0.89630885  0.52842466  0.67927061  1  0  -0.636032  0  1.998448  0  0  -0.580389  0  2.25479  0  0  -0.606146  0  2.240965  0  0  -0.318003  -0.562423  0  2.263761  0
O  O98  1  0.19565156  0.51338412  0.75897539  1  0  -0.664237  0  2.07675  0  0  -0.590047  0  2.324086  0  0  -0.619634  0  2.3126  0  0  -0.310212  -0.569386  0  2.33124  0
O  O99  1  0.48661729  0.80435322  0.24102483  1  0  -0.664123  0  2.076823  0  0  -0.589948  0  2.324182  0  0  -0.619533  0  2.312696  0  0  -0.310168  -0.569293  0  2.331371  0
O  O100  1  0.98661551  0.30435610  0.25897460  1  0  -0.664281  0  2.076714  0  0  -0.590107  0  2.324125  0  0  -0.619693  0  2.312636  0  0  -0.310242  -0.569452  0  2.331309  0
O  O101  1  0.69565197  0.01338286  0.74102663  1  0  -0.664297  0  2.0768  0  0  -0.590013  0  2.324094  0  0  -0.619597  0  2.312612  0  0  -0.31022  -0.569354  0  2.33126  0
O  O102  1  0.39947990  0.59232650  0.81876707  1  0  -0.638914  0  2.016402  0  0  -0.582661  0  2.27678  0  0  -0.60901  0  2.263608  0  0  -0.314303  -0.564251  0  2.285269  0
O  O103  1  0.40767047  0.60052121  0.18123257  1  0  -0.63896  0  2.016457  0  0  -0.582714  0  2.276826  0  0  -0.609067  0  2.263658  0  0  -0.314312  -0.564302  0  2.285321  0
O  O104  1  0.90767723  0.10050906  0.31876672  1  0  -0.63891  0  2.016268  0  0  -0.582658  0  2.276678  0  0  -0.609013  0  2.263511  0  0  -0.314238  -0.56425  0  2.285166  0
O  O105  1  0.89950080  0.09231964  0.68123506  1  0  -0.638938  0  2.016233  0  0  -0.582715  0  2.276707  0  0  -0.609066  0  2.263536  0  0  -0.314268  -0.564308  0  2.285207  0
O  O106  1  0.84245787  0.31244353  0.77999550  1  0  -0.826408  0  1.898745  0  0  -0.764786  0  2.090744  0  0  -0.787055  0  2.055131  0  0  -0.583311  -0.749117  0  2.115377  0
O  O107  1  0.68755732  0.15754707  0.22000522  1  0  -0.826554  0  1.898551  0  0  -0.764912  0  2.090616  0  0  -0.787168  0  2.054967  0  0  -0.583329  -0.749244  0  2.115269  0
O  O108  1  0.18754775  0.65754975  0.27999328  1  0  -0.82649  0  1.898604  0  0  -0.764777  0  2.09076  0  0  -0.787036  0  2.055118  0  0  -0.583323  -0.749119  0  2.11543  0
O  O109  1  0.34245912  0.81244748  0.72000568  1  0  -0.826529  0  1.898674  0  0  -0.764882  0  2.090766  0  0  -0.78714  0  2.055131  0  0  -0.583389  -0.749212  0  2.115401  0
