# generated using pymatgen
data_AgH4C6NO2
_symmetry_space_group_name_H-M   'P 1'
_cell_length_a   3.60345560
_cell_length_b   13.75484470
_cell_length_c   14.26561142
_cell_angle_alpha   90.00708769
_cell_angle_beta   90.65444071
_cell_angle_gamma   90.00929258
_symmetry_Int_Tables_number   1
_chemical_formula_structural   AgH4C6NO2
_chemical_formula_sum   'Ag4 H16 C24 N4 O8'
_cell_volume   707.02849509
_cell_formula_units_Z   4
loop_
 _symmetry_equiv_pos_site_id
 _symmetry_equiv_pos_as_xyz
  1  'x, y, z'
loop_
 _atom_site_type_symbol
 _atom_site_label
 _atom_site_symmetry_multiplicity
 _atom_site_fract_x
 _atom_site_fract_y
 _atom_site_fract_z
 _atom_site_occupancy
 _atom_site_hle17_bader_spin_density
 _atom_site_hle17_ddec_charge
 _atom_site_hle17_ddec_spin_density
 _atom_site_hle17_ddec_sum_bond_order
 _atom_site_hle17_magmom
 _atom_site_hse06_10hf_bader_spin_density
 _atom_site_hse06_10hf_ddec_charge
 _atom_site_hse06_10hf_ddec_spin_density
 _atom_site_hse06_10hf_ddec_sum_bond_order
 _atom_site_hse06_10hf_magmom
 _atom_site_hse06_bader_spin_density
 _atom_site_hse06_ddec_charge
 _atom_site_hse06_ddec_spin_density
 _atom_site_hse06_ddec_sum_bond_order
 _atom_site_hse06_magmom
 _atom_site_pbe_bader_spin_density
 _atom_site_pbe_cm5_charge
 _atom_site_pbe_ddec_charge
 _atom_site_pbe_ddec_spin_density
 _atom_site_pbe_ddec_sum_bond_order
 _atom_site_pbe_magmom
Ag  Ag0  1  0.52468509  0.56673488  0.07198903  1  0  0.548452  0  1.479158  0  0  0.421969  0  1.963067  0  0  0.456891  0  1.899575  0  0  0.41251  0.398377  0  2.006875  0
Ag  Ag1  1  0.47544230  0.06675908  0.42806653  1  0  0.548132  0  1.47896  0  0  0.42161  0  1.962897  0  0  0.456573  0  1.899373  0  0  0.412266  0.397991  0  2.006723  0
Ag  Ag2  1  0.47543656  0.43318998  0.92805107  1  0  0.548698  0  1.478841  0  0  0.422198  0  1.962805  0  0  0.457137  0  1.899279  0  0  0.412643  0.398601  0  2.006625  0
Ag  Ag3  1  0.52458233  0.93325375  0.57196621  1  0  0.548187  0  1.479025  0  0  0.421617  0  1.962988  0  0  0.456583  0  1.899462  0  0  0.412271  0.397993  0  2.006819  0
H  H4  1  0.84795440  0.41059259  0.28506510  1  0  0.108284  0  0.944083  0  0  0.119563  0  1.002238  0  0  0.123045  0  1.000533  0  0  0.107589  0.117055  0  1.003592  0
H  H5  1  0.15216624  0.91065177  0.21488162  1  0  0.108283  0  0.943447  0  0  0.119675  0  1.001496  0  0  0.123163  0  0.99979  0  0  0.107745  0.117163  0  1.002854  0
H  H6  1  0.15209048  0.58937080  0.71490182  1  0  0.108334  0  0.943384  0  0  0.119782  0  1.001384  0  0  0.123268  0  0.999676  0  0  0.107804  0.117271  0  1.002749  0
H  H7  1  0.84799546  0.08938504  0.78506682  1  0  0.108345  0  0.943507  0  0  0.119619  0  1.001703  0  0  0.123105  0  0.999996  0  0  0.107633  0.117108  0  1.003063  0
H  H8  1  0.57362631  0.29034628  0.39988644  1  0  0.079296  0  0.922944  0  0  0.09093  0  0.979631  0  0  0.093615  0  0.977515  0  0  0.115383  0.088917  0  0.981314  0
H  H9  1  0.42629530  0.79035156  0.10010518  1  0  0.079259  0  0.922978  0  0  0.090961  0  0.97959  0  0  0.093649  0  0.977467  0  0  0.11541  0.088946  0  0.981278  0
H  H10  1  0.42632898  0.70967090  0.60014254  1  0  0.079483  0  0.923231  0  0  0.091123  0  0.979858  0  0  0.09381  0  0.977736  0  0  0.11553  0.089116  0  0.981538  0
H  H11  1  0.57363852  0.20963945  0.89986624  1  0  0.079547  0  0.922959  0  0  0.091156  0  0.979662  0  0  0.093845  0  0.977542  0  0  0.115458  0.089142  0  0.981345  0
H  H12  1  0.66190043  0.06548623  0.20991135  1  0  0.074707  0  0.930503  0  0  0.086014  0  0.989577  0  0  0.088617  0  0.987399  0  0  0.112644  0.084079  0  0.991284  0
H  H13  1  0.33773540  0.56551042  0.29011351  1  0  0.075068  0  0.929379  0  0  0.086212  0  0.98868  0  0  0.088827  0  0.986495  0  0  0.11271  0.084272  0  0.990391  0
H  H14  1  0.33793260  0.93451423  0.79012840  1  0  0.074754  0  0.93003  0  0  0.085982  0  0.989206  0  0  0.088588  0  0.987032  0  0  0.112592  0.084055  0  0.9909  0
H  H15  1  0.66208996  0.43451258  0.70987574  1  0  0.074836  0  0.92988  0  0  0.086048  0  0.989111  0  0  0.088655  0  0.986935  0  0  0.112593  0.084115  0  0.990811  0
H  H16  1  0.93677466  0.17685883  0.08733153  1  0  0.108511  0  0.937032  0  0  0.120413  0  0.992121  0  0  0.124008  0  0.990429  0  0  0.108341  0.117789  0  0.993512  0
H  H17  1  0.06302440  0.67692551  0.41266825  1  0  0.108466  0  0.937332  0  0  0.120468  0  0.992298  0  0  0.124054  0  0.990597  0  0  0.108402  0.117849  0  0.993691  0
H  H18  1  0.06321715  0.82309220  0.91266113  1  0  0.108392  0  0.937347  0  0  0.120314  0  0.992392  0  0  0.123914  0  0.99069  0  0  0.108359  0.11767  0  0.993817  0
H  H19  1  0.93708405  0.32312512  0.58732135  1  0  0.10857  0  0.936943  0  0  0.120363  0  0.992112  0  0  0.124  0  0.990354  0  0  0.108418  0.117731  0  0.993523  0
C  C20  1  0.09469374  0.37014849  0.11000420  1  0  0.621744  0  3.945834  0  0  0.566792  0  4.236653  0  0  0.601935  0  4.232039  0  0  0.196219  0.542821  0  4.238978  0
C  C21  1  0.90522558  0.87022400  0.39000765  1  0  0.621327  0  3.944112  0  0  0.566377  0  4.235024  0  0  0.601579  0  4.230422  0  0  0.196059  0.54239  0  4.237347  0
C  C22  1  0.90535332  0.62981053  0.89000970  1  0  0.621183  0  3.944859  0  0  0.566356  0  4.235693  0  0  0.601549  0  4.231096  0  0  0.195764  0.542345  0  4.23801  0
C  C23  1  0.09482747  0.12981645  0.60997333  1  0  0.621266  0  3.945128  0  0  0.566268  0  4.236135  0  0  0.601471  0  4.231546  0  0  0.196129  0.542262  0  4.238451  0
C  C24  1  0.91458181  0.30168983  0.17821189  1  0  0.004161  0  3.710386  0  0  0.027741  0  3.935328  0  0  0.024615  0  3.956772  0  0  0.004106  0.029724  0  3.921044  0
C  C25  1  0.08538723  0.80180071  0.32182965  1  0  0.003955  0  3.709596  0  0  0.027299  0  3.934965  0  0  0.023999  0  3.956633  0  0  0.00397  0.029306  0  3.920662  0
C  C26  1  0.08546524  0.69825247  0.82180130  1  0  0.004432  0  3.709563  0  0  0.027585  0  3.935087  0  0  0.024287  0  3.95677  0  0  0.004123  0.029701  0  3.920615  0
C  C27  1  0.91467414  0.19825573  0.67815206  1  0  0.004308  0  3.709847  0  0  0.027539  0  3.935348  0  0  0.024241  0  3.957031  0  0  0.004058  0.02961  0  3.920945  0
C  C28  1  0.80906332  0.33439557  0.26679179  1  0  -0.123678  0  3.723792  0  0  -0.145965  0  3.970397  0  0  -0.151152  0  3.992096  0  0  -0.08097  -0.142651  0  3.955991  0
C  C29  1  0.19090531  0.83442832  0.23320747  1  0  -0.123647  0  3.720964  0  0  -0.145957  0  3.96775  0  0  -0.151087  0  3.98948  0  0  -0.081042  -0.142654  0  3.953345  0
C  C30  1  0.19095334  0.66558527  0.73321218  1  0  -0.123777  0  3.722521  0  0  -0.146138  0  3.969336  0  0  -0.151266  0  3.991057  0  0  -0.081093  -0.142865  0  3.954907  0
C  C31  1  0.80910362  0.16559032  0.76675021  1  0  -0.123681  0  3.721676  0  0  -0.145909  0  3.968496  0  0  -0.151041  0  3.990231  0  0  -0.081035  -0.142627  0  3.954077  0
C  C32  1  0.65800333  0.26852173  0.32968607  1  0  0.11401  0  3.726933  0  0  0.086323  0  3.98137  0  0  0.091221  0  4.001114  0  0  0.043163  0.083083  0  3.968057  0
C  C33  1  0.34193938  0.76850495  0.17029385  1  0  0.113895  0  3.726049  0  0  0.086128  0  3.980525  0  0  0.091033  0  4.000259  0  0  0.0431  0.082887  0  3.967209  0
C  C34  1  0.34193277  0.73149545  0.67032392  1  0  0.113769  0  3.727315  0  0  0.086064  0  3.98174  0  0  0.090972  0  4.001465  0  0  0.043047  0.082815  0  3.968448  0
C  C35  1  0.65798071  0.23149260  0.82966560  1  0  0.113219  0  3.726284  0  0  0.08552  0  3.980745  0  0  0.090422  0  4.000476  0  0  0.042891  0.082281  0  3.967434  0
C  C36  1  0.70501942  0.14284263  0.22313432  1  0  0.112368  0  3.729731  0  0  0.083276  0  3.987282  0  0  0.088136  0  4.006828  0  0  0.041254  0.08004  0  3.974109  0
C  C37  1  0.29492109  0.64290823  0.27688777  1  0  0.111923  0  3.727211  0  0  0.082965  0  3.984803  0  0  0.087806  0  4.004358  0  0  0.041328  0.079738  0  3.971626  0
C  C38  1  0.29496900  0.85713094  0.77690740  1  0  0.112044  0  3.728816  0  0  0.082991  0  3.986323  0  0  0.087836  0  4.005879  0  0  0.041397  0.079761  0  3.973149  0
C  C39  1  0.70497353  0.35712568  0.72311084  1  0  0.112028  0  3.727826  0  0  0.082934  0  3.98541  0  0  0.087782  0  4.004974  0  0  0.041298  0.079701  0  3.972238  0
C  C40  1  0.85788524  0.20377980  0.15607483  1  0  -0.117884  0  3.721408  0  0  -0.140401  0  3.967629  0  0  -0.145113  0  3.988961  0  0  -0.078693  -0.137339  0  3.953425  0
C  C41  1  0.14203692  0.70388301  0.34395462  1  0  -0.117765  0  3.7204  0  0  -0.140289  0  3.966553  0  0  -0.144933  0  3.987921  0  0  -0.078958  -0.137243  0  3.952346  0
C  C42  1  0.14210634  0.79617704  0.84393676  1  0  -0.117643  0  3.720947  0  0  -0.140004  0  3.967118  0  0  -0.144677  0  3.988503  0  0  -0.07885  -0.136964  0  3.952891  0
C  C43  1  0.85792992  0.29616689  0.65604006  1  0  -0.117888  0  3.720061  0  0  -0.140124  0  3.966246  0  0  -0.144815  0  3.987601  0  0  -0.07897  -0.137088  0  3.952042  0
N  N44  1  0.60749956  0.17418884  0.30864815  1  0  -0.288165  0  3.265302  0  0  -0.219423  0  3.552033  0  0  -0.235639  0  3.568155  0  0  -0.334575  -0.208519  0  3.541167  0
N  N45  1  0.39242329  0.67418795  0.19131811  1  0  -0.287903  0  3.26461  0  0  -0.219089  0  3.551231  0  0  -0.23529  0  3.567346  0  0  -0.334502  -0.208193  0  3.540367  0
N  N46  1  0.39243373  0.82580944  0.69136463  1  0  -0.28798  0  3.264942  0  0  -0.219113  0  3.551455  0  0  -0.235321  0  3.567568  0  0  -0.334494  -0.20821  0  3.5406  0
N  N47  1  0.60736903  0.32582123  0.80864928  1  0  -0.287734  0  3.264891  0  0  -0.218818  0  3.551416  0  0  -0.235021  0  3.567524  0  0  -0.334349  -0.20792  0  3.540554  0
O  O48  1  0.12623288  0.45814537  0.13700920  1  0  -0.637397  0  2.129562  0  0  -0.562081  0  2.414471  0  0  -0.593971  0  2.401157  0  0  -0.326596  -0.539832  0  2.422878  0
O  O49  1  0.87372893  0.95820803  0.36292029  1  0  -0.636827  0  2.128381  0  0  -0.561456  0  2.413202  0  0  -0.593366  0  2.399901  0  0  -0.326228  -0.539191  0  2.421591  0
O  O50  1  0.87373388  0.54180202  0.86298967  1  0  -0.637366  0  2.128735  0  0  -0.562035  0  2.41351  0  0  -0.593928  0  2.40017  0  0  -0.326499  -0.539786  0  2.42194  0
O  O51  1  0.12616878  0.04183824  0.63705451  1  0  -0.63684  0  2.129151  0  0  -0.56138  0  2.413876  0  0  -0.593287  0  2.400567  0  0  -0.326268  -0.539121  0  2.422281  0
O  O52  1  0.20497242  0.33427745  0.03328495  1  0  -0.604518  0  2.066717  0  0  -0.535256  0  2.33649  0  0  -0.566355  0  2.325491  0  0  -0.320414  -0.513632  0  2.343311  0
O  O53  1  0.79510658  0.83431307  0.46675957  1  0  -0.60415  0  2.06481  0  0  -0.534897  0  2.334676  0  0  -0.565995  0  2.323641  0  0  -0.320277  -0.51326  0  2.341486  0
O  O54  1  0.79519073  0.66565832  0.96676512  1  0  -0.604205  0  2.065907  0  0  -0.53496  0  2.335638  0  0  -0.566015  0  2.324531  0  0  -0.320115  -0.513358  0  2.34253  0
O  O55  1  0.20518732  0.16576156  0.53326997  1  0  -0.604189  0  2.065409  0  0  -0.534879  0  2.335188  0  0  -0.565959  0  2.324114  0  0  -0.32028  -0.513251  0  2.342026  0
