# generated using pymatgen
data_CdH24C26(N4Cl)2
_symmetry_space_group_name_H-M   'P 1'
_cell_length_a   8.81073746
_cell_length_b   12.73573907
_cell_length_c   14.07137911
_cell_angle_alpha   63.44484016
_cell_angle_beta   80.34947026
_cell_angle_gamma   71.42182022
_symmetry_Int_Tables_number   1
_chemical_formula_structural   CdH24C26(N4Cl)2
_chemical_formula_sum   'Cd2 H48 C52 N16 Cl4'
_cell_volume   1338.20121121
_cell_formula_units_Z   2
loop_
 _symmetry_equiv_pos_site_id
 _symmetry_equiv_pos_as_xyz
  1  'x, y, z'
loop_
 _atom_site_type_symbol
 _atom_site_label
 _atom_site_symmetry_multiplicity
 _atom_site_fract_x
 _atom_site_fract_y
 _atom_site_fract_z
 _atom_site_occupancy
 _atom_site_hle17_bader_spin_density
 _atom_site_hle17_ddec_charge
 _atom_site_hle17_ddec_spin_density
 _atom_site_hle17_ddec_sum_bond_order
 _atom_site_hle17_magmom
 _atom_site_hse06_10hf_bader_spin_density
 _atom_site_hse06_10hf_ddec_charge
 _atom_site_hse06_10hf_ddec_spin_density
 _atom_site_hse06_10hf_ddec_sum_bond_order
 _atom_site_hse06_10hf_magmom
 _atom_site_hse06_bader_spin_density
 _atom_site_hse06_ddec_charge
 _atom_site_hse06_ddec_spin_density
 _atom_site_hse06_ddec_sum_bond_order
 _atom_site_hse06_magmom
 _atom_site_pbe_bader_spin_density
 _atom_site_pbe_cm5_charge
 _atom_site_pbe_ddec_charge
 _atom_site_pbe_ddec_spin_density
 _atom_site_pbe_ddec_sum_bond_order
 _atom_site_pbe_magmom
Cd  Cd0  1  0.26020965  0.44104395  0.25310248  1  0  0.95624  0  1.970008  0  0  0.769348  0  2.427214  0  0  0.815267  0  2.388994  0  0  0.67804  0.73724  0  2.452936  0
Cd  Cd1  1  0.73978988  0.55895439  0.74689636  1  0  0.956183  0  1.970063  0  0  0.769278  0  2.42728  0  0  0.815195  0  2.389066  0  0  0.678027  0.737171  0  2.453011  0
H  H2  1  0.34320983  0.02553692  0.04941163  1  0  0.093565  0  0.95531  0  0  0.105502  0  1.015157  0  0  0.10858  0  1.013382  0  0  0.101852  0.103271  0  1.016504  0
H  H3  1  0.65679213  0.97446419  0.95058513  1  0  0.093582  0  0.955314  0  0  0.105511  0  1.015162  0  0  0.10859  0  1.013384  0  0  0.101862  0.103279  0  1.016512  0
H  H4  1  0.22372983  0.22199052  0.06606632  1  0  0.098489  0  0.972536  0  0  0.107964  0  1.035596  0  0  0.110783  0  1.034335  0  0  0.095947  0.105865  0  1.036656  0
H  H5  1  0.77627840  0.77800600  0.93394159  1  0  0.098447  0  0.972669  0  0  0.10793  0  1.035719  0  0  0.110748  0  1.034461  0  0  0.095938  0.105832  0  1.03678  0
H  H6  1  0.80198053  0.10785902  0.21715668  1  0  0.090307  0  0.960941  0  0  0.100004  0  1.022594  0  0  0.102717  0  1.02159  0  0  0.099386  0.098051  0  1.023369  0
H  H7  1  0.19802870  0.89213472  0.78285791  1  0  0.090342  0  0.960985  0  0  0.100039  0  1.022624  0  0  0.102756  0  1.021615  0  0  0.09939  0.098091  0  1.023394  0
H  H8  1  0.91690073  0.91413992  0.19590281  1  0  0.097378  0  0.952337  0  0  0.11232  0  1.007218  0  0  0.114962  0  1.006076  0  0  0.104555  0.110401  0  1.008128  0
H  H9  1  0.08310223  0.08585841  0.80410350  1  0  0.097493  0  0.952335  0  0  0.112427  0  1.007209  0  0  0.11507  0  1.006068  0  0  0.104612  0.110512  0  1.008114  0
H  H10  1  0.10793005  0.71950219  0.25150003  1  0  0.093871  0  0.942069  0  0  0.10083  0  1.010028  0  0  0.103566  0  1.006395  0  0  0.132752  0.098815  0  1.012616  0
H  H11  1  0.89206421  0.28049795  0.74849934  1  0  0.09384  0  0.942101  0  0  0.100809  0  1.010051  0  0  0.103543  0  1.006421  0  0  0.132751  0.098791  0  1.01264  0
H  H12  1  0.43613580  0.65454667  0.01578424  1  0  0.10317  0  0.992746  0  0  0.107105  0  1.064192  0  0  0.110028  0  1.062104  0  0  0.102902  0.104912  0  1.065847  0
H  H13  1  0.56386063  0.34545073  0.98421671  1  0  0.103176  0  0.992773  0  0  0.107112  0  1.064212  0  0  0.110034  0  1.062125  0  0  0.102905  0.104916  0  1.06588  0
H  H14  1  0.35061133  0.90207405  0.96668939  1  0  0.108025  0  0.955297  0  0  0.121513  0  1.01009  0  0  0.12429  0  1.008625  0  0  0.120286  0.119464  0  1.01127  0
H  H15  1  0.64939036  0.09792155  0.03331316  1  0  0.108011  0  0.955274  0  0  0.121474  0  1.010101  0  0  0.124267  0  1.008617  0  0  0.120277  0.119419  0  1.011283  0
H  H16  1  0.02878920  0.32397266  0.17244737  1  0  0.097908  0  0.944462  0  0  0.107547  0  1.015507  0  0  0.108442  0  1.015382  0  0  0.108065  0.106784  0  1.015754  0
H  H17  1  0.97121456  0.67602657  0.82756062  1  0  0.097875  0  0.944581  0  0  0.107545  0  1.015599  0  0  0.108438  0  1.015478  0  0  0.108043  0.106777  0  1.015836  0
H  H18  1  0.90078546  0.37317095  0.06814930  1  0  0.098326  0  0.939367  0  0  0.112136  0  1.004552  0  0  0.113197  0  1.003631  0  0  0.110988  0.1112  0  1.005431  0
H  H19  1  0.09922596  0.62682011  0.93185833  1  0  0.098324  0  0.939452  0  0  0.112156  0  1.004594  0  0  0.113215  0  1.003678  0  0  0.111006  0.111173  0  1.005511  0
H  H20  1  0.61424800  0.41250055  0.09889735  1  0  0.094246  0  0.983292  0  0  0.097453  0  1.059957  0  0  0.100257  0  1.056226  0  0  0.11815  0.095321  0  1.062675  0
H  H21  1  0.38576139  0.58749601  0.90110402  1  0  0.09421  0  0.983318  0  0  0.09747  0  1.059935  0  0  0.100273  0  1.056204  0  0  0.118122  0.095322  0  1.06267  0
H  H22  1  0.57258691  0.27943834  0.43257756  1  0  0.100413  0  0.982218  0  0  0.107218  0  1.048136  0  0  0.109087  0  1.048577  0  0  0.107616  0.105818  0  1.047991  0
H  H23  1  0.42740676  0.72055722  0.56742299  1  0  0.100374  0  0.982155  0  0  0.107196  0  1.048057  0  0  0.109058  0  1.048506  0  0  0.107608  0.105803  0  1.047918  0
H  H24  1  0.89779187  0.21743815  0.37147550  1  0  0.10318  0  0.981463  0  0  0.110474  0  1.050182  0  0  0.112884  0  1.049803  0  0  0.111964  0.108736  0  1.050546  0
H  H25  1  0.10220501  0.78256105  0.62853037  1  0  0.103173  0  0.981446  0  0  0.110467  0  1.050181  0  0  0.112878  0  1.049797  0  0  0.111946  0.108733  0  1.050545  0
H  H26  1  0.15079856  0.87374300  0.41160163  1  0  0.09738  0  0.946754  0  0  0.111009  0  1.003575  0  0  0.113502  0  1.003119  0  0  0.104063  0.109222  0  1.003973  0
H  H27  1  0.84920028  0.12625715  0.58840011  1  0  0.097381  0  0.946735  0  0  0.111029  0  1.003544  0  0  0.11352  0  1.00309  0  0  0.104076  0.109243  0  1.003934  0
H  H28  1  0.27489305  0.67329798  0.39956964  1  0  0.099585  0  0.980665  0  0  0.107791  0  1.046073  0  0  0.111094  0  1.043936  0  0  0.093618  0.10525  0  1.047873  0
H  H29  1  0.72510971  0.32670404  0.60042810  1  0  0.099539  0  0.980645  0  0  0.107799  0  1.046003  0  0  0.111079  0  1.043889  0  0  0.09363  0.105258  0  1.047803  0
H  H30  1  0.71629768  0.77052634  0.28370336  1  0  0.093301  0  0.956162  0  0  0.103947  0  1.016286  0  0  0.106868  0  1.014813  0  0  0.101063  0.101845  0  1.017397  0
H  H31  1  0.28369812  0.22948205  0.71629112  1  0  0.093296  0  0.956128  0  0  0.103956  0  1.016237  0  0  0.106877  0  1.01476  0  0  0.101044  0.101857  0  1.017342  0
H  H32  1  0.59653371  0.96678758  0.30184452  1  0  0.096626  0  0.953575  0  0  0.109453  0  1.01077  0  0  0.112312  0  1.009594  0  0  0.102509  0.107404  0  1.011655  0
H  H33  1  0.40345978  0.03322078  0.69815305  1  0  0.096678  0  0.953497  0  0  0.109462  0  1.01074  0  0  0.11232  0  1.009566  0  0  0.102527  0.107415  0  1.011623  0
H  H34  1  0.36905074  0.17528637  0.22542584  1  0  0.092153  0  0.956557  0  0  0.097319  0  1.027927  0  0  0.100147  0  1.024434  0  0  0.126086  0.095245  0  1.030388  0
H  H35  1  0.63094352  0.82471376  0.77457424  1  0  0.092127  0  0.956564  0  0  0.097331  0  1.027882  0  0  0.100162  0  1.024385  0  0  0.126074  0.095257  0  1.030347  0
H  H36  1  0.13339245  0.21531620  0.49772869  1  0  0.107737  0  0.942719  0  0  0.117361  0  1.000643  0  0  0.120154  0  0.999043  0  0  0.115795  0.1153  0  1.001915  0
H  H37  1  0.86661740  0.78468217  0.50227546  1  0  0.107777  0  0.942723  0  0  0.1174  0  1.000646  0  0  0.120188  0  0.999053  0  0  0.115819  0.115343  0  1.001918  0
H  H38  1  0.20318804  0.96927670  0.53392192  1  0  0.104099  0  0.991159  0  0  0.108882  0  1.063778  0  0  0.111645  0  1.062819  0  0  0.112963  0.106888  0  1.064528  0
H  H39  1  0.79681229  0.03072254  0.46608002  1  0  0.104127  0  0.991183  0  0  0.108915  0  1.06379  0  0  0.111678  0  1.062831  0  0  0.112965  0.106925  0  1.064536  0
H  H40  1  0.60713111  0.51948294  0.42832110  1  0  0.099797  0  0.929967  0  0  0.115534  0  0.991688  0  0  0.116123  0  0.991655  0  0  0.111944  0.114978  0  0.991903  0
H  H41  1  0.39286895  0.48052641  0.57166900  1  0  0.099926  0  0.929785  0  0  0.115674  0  0.991586  0  0  0.11627  0  0.991556  0  0  0.111992  0.115111  0  0.991797  0
H  H42  1  0.49119578  0.55335817  0.32177775  1  0  0.095277  0  0.950648  0  0  0.103896  0  1.023221  0  0  0.104862  0  1.022955  0  0  0.106402  0.103093  0  1.023577  0
H  H43  1  0.50879738  0.44665114  0.67821450  1  0  0.095303  0  0.950608  0  0  0.10397  0  1.023231  0  0  0.104943  0  1.022949  0  0  0.106393  0.103166  0  1.023594  0
H  H44  1  0.90236645  0.49077076  0.40165588  1  0  0.100627  0  0.978247  0  0  0.102761  0  1.055163  0  0  0.106093  0  1.050831  0  0  0.114354  0.100268  0  1.058332  0
H  H45  1  0.09762293  0.50923943  0.59833854  1  0  0.100658  0  0.978217  0  0  0.102764  0  1.055158  0  0  0.106099  0  1.05082  0  0  0.114346  0.10027  0  1.058327  0
H  H46  1  0.95483997  0.57857344  0.07314749  1  0  0.097365  0  0.980912  0  0  0.104581  0  1.048715  0  0  0.107022  0  1.047247  0  0  0.105707  0.102796  0  1.049842  0
H  H47  1  0.04516988  0.42141584  0.92684893  1  0  0.097245  0  0.980951  0  0  0.104465  0  1.048787  0  0  0.106903  0  1.04732  0  0  0.105653  0.102676  0  1.049912  0
H  H48  1  0.63029961  0.64293897  0.12610741  1  0  0.10477  0  0.993797  0  0  0.111713  0  1.063359  0  0  0.113919  0  1.06316  0  0  0.109865  0.110095  0  1.063626  0
H  H49  1  0.36970524  0.35705765  0.87387664  1  0  0.104862  0  0.993704  0  0  0.111769  0  1.063308  0  0  0.113978  0  1.063106  0  0  0.109907  0.110152  0  1.063577  0
C  C50  1  0.13708799  0.95784645  0.12099568  1  0  0.181131  0  3.795595  0  0  0.16995  0  4.049128  0  0  0.175716  0  4.071821  0  0  0.090826  0.166056  0  4.033757  0
C  C51  1  0.86291532  0.04215097  0.87900811  1  0  0.181197  0  3.795489  0  0  0.169998  0  4.049045  0  0  0.175765  0  4.071736  0  0  0.090807  0.166105  0  4.033674  0
C  C52  1  0.22310769  0.04476134  0.08418996  1  0  -0.145958  0  3.763836  0  0  -0.166825  0  4.017154  0  0  -0.170392  0  4.037708  0  0  -0.094303  -0.164368  0  4.003235  0
C  C53  1  0.77689459  0.95523883  0.91581212  1  0  -0.145976  0  3.763684  0  0  -0.166838  0  4.017027  0  0  -0.170407  0  4.037578  0  0  -0.094289  -0.164378  0  4.003114  0
C  C54  1  0.15684444  0.15402052  0.09449208  1  0  -0.100721  0  3.745866  0  0  -0.118515  0  3.99151  0  0  -0.120855  0  4.013686  0  0  -0.087803  -0.116834  0  3.976554  0
C  C55  1  0.84316136  0.84597323  0.90551789  1  0  -0.100581  0  3.745708  0  0  -0.118388  0  3.991303  0  0  -0.120727  0  4.013476  0  0  -0.087761  -0.116707  0  3.976354  0
C  C56  1  0.00480637  0.17822274  0.14257897  1  0  0.082933  0  3.716364  0  0  0.100064  0  3.956941  0  0  0.099151  0  3.981209  0  0  -0.009101  0.100542  0  3.940568  0
C  C57  1  0.99520334  0.82177285  0.85743271  1  0  0.082881  0  3.71649  0  0  0.100085  0  3.957016  0  0  0.099173  0  3.981277  0  0  -0.00908  0.100556  0  3.940634  0
C  C58  1  0.92082611  0.09005581  0.18023503  1  0  -0.110931  0  3.777199  0  0  -0.132257  0  4.030417  0  0  -0.134126  0  4.052273  0  0  -0.095159  -0.130875  0  4.015601  0
C  C59  1  0.07918036  0.90993610  0.81977703  1  0  -0.111052  0  3.777461  0  0  -0.132381  0  4.03064  0  0  -0.134252  0  4.052498  0  0  -0.09523  -0.131009  0  4.015832  0
C  C60  1  0.98535056  0.98075952  0.16901302  1  0  -0.154345  0  3.771787  0  0  -0.175727  0  4.028049  0  0  -0.179524  0  4.048874  0  0  -0.096275  -0.173148  0  4.013946  0
C  C61  1  0.01465572  0.01923607  0.83099474  1  0  -0.154423  0  3.771804  0  0  -0.175814  0  4.028084  0  0  -0.179614  0  4.04891  0  0  -0.096276  -0.173234  0  4.013978  0
C  C62  1  0.18321822  0.73470217  0.17997432  1  0  0.170262  0  3.654566  0  0  0.110028  0  3.922126  0  0  0.123835  0  3.934266  0  0  0.141504  0.101173  0  3.913549  0
C  C63  1  0.81677638  0.26529705  0.82002466  1  0  0.17032  0  3.654537  0  0  0.110064  0  3.92211  0  0  0.123872  0  3.934246  0  0  0.141505  0.101208  0  3.913534  0
C  C64  1  0.35369099  0.70472421  0.05768565  1  0  0.006468  0  3.747161  0  0  -0.024551  0  4.013168  0  0  -0.022656  0  4.032374  0  0  -0.003837  -0.025756  0  4.000227  0
C  C65  1  0.64630625  0.29527411  0.94231414  1  0  0.006476  0  3.747184  0  0  -0.024533  0  4.013191  0  0  -0.022638  0  4.032401  0  0  -0.003836  -0.025746  0  4.000249  0
C  C66  1  0.31530051  0.82721522  0.03290523  1  0  -0.073861  0  3.684679  0  0  -0.112961  0  3.940497  0  0  -0.111777  0  3.959131  0  0  -0.007561  -0.113603  0  3.927909  0
C  C67  1  0.68469752  0.17278401  0.96709624  1  0  -0.073826  0  3.684548  0  0  -0.112914  0  3.940368  0  0  -0.111747  0  3.958996  0  0  -0.007548  -0.113544  0  3.927767  0
C  C68  1  0.93691903  0.30052091  0.14766516  1  0  -0.056919  0  3.648352  0  0  -0.120089  0  3.888974  0  0  -0.116202  0  3.900145  0  0  -0.048962  -0.122516  0  3.881492  0
C  C69  1  0.06308576  0.69947559  0.85234240  1  0  -0.056927  0  3.648524  0  0  -0.12021  0  3.889253  0  0  -0.116317  0  3.900412  0  0  -0.049006  -0.122571  0  3.881745  0
C  C70  1  0.64279553  0.36506015  0.18242221  1  0  0.158148  0  3.668065  0  0  0.097205  0  3.934476  0  0  0.110547  0  3.947895  0  0  0.13491  0.088668  0  3.925164  0
C  C71  1  0.35720927  0.63493638  0.81757965  1  0  0.158047  0  3.668038  0  0  0.097052  0  3.934425  0  0  0.110399  0  3.947841  0  0  0.134821  0.088532  0  3.925132  0
C  C72  1  0.62952195  0.29508072  0.35479065  1  0  -0.003348  0  3.763835  0  0  -0.038059  0  4.032839  0  0  -0.035229  0  4.052066  0  0  -0.011792  -0.039891  0  4.019816  0
C  C73  1  0.37047480  0.70491575  0.64521348  1  0  -0.003378  0  3.764006  0  0  -0.038122  0  4.033038  0  0  -0.035289  0  4.052259  0  0  -0.011838  -0.039966  0  4.020026  0
C  C74  1  0.78926821  0.26334732  0.32624825  1  0  -0.085353  0  3.68635  0  0  -0.122458  0  3.945717  0  0  -0.121539  0  3.964072  0  0  -0.01171  -0.123012  0  3.933382  0
C  C75  1  0.21073280  0.73665010  0.67375364  1  0  -0.085254  0  3.686244  0  0  -0.122352  0  3.94559  0  0  -0.121428  0  3.96394  0  0  -0.011659  -0.122905  0  3.933264  0
C  C76  1  0.36727729  0.93095284  0.35841779  1  0  0.169399  0  3.796382  0  0  0.160324  0  4.046598  0  0  0.165059  0  4.069618  0  0  0.088216  0.157112  0  4.031019  0
C  C77  1  0.63271709  0.06905005  0.64158047  1  0  0.169418  0  3.796296  0  0  0.16034  0  4.04653  0  0  0.165075  0  4.06955  0  0  0.088254  0.157121  0  4.030961  0
C  C78  1  0.27509705  0.85005296  0.38439956  1  0  -0.137748  0  3.759909  0  0  -0.15711  0  4.010913  0  0  -0.160023  0  4.031695  0  0  -0.09018  -0.155057  0  3.996772  0
C  C79  1  0.72489915  0.14994808  0.61560351  1  0  -0.137849  0  3.7599  0  0  -0.157236  0  4.010967  0  0  -0.160148  0  4.031742  0  0  -0.090251  -0.155183  0  3.996823  0
C  C80  1  0.34369132  0.73937654  0.37647162  1  0  -0.108178  0  3.729616  0  0  -0.124921  0  3.975025  0  0  -0.12778  0  3.996068  0  0  -0.089189  -0.122863  0  3.960926  0
C  C81  1  0.65630504  0.26062729  0.62352250  1  0  -0.108063  0  3.729592  0  0  -0.124859  0  3.974996  0  0  -0.127699  0  3.996053  0  0  -0.089154  -0.122799  0  3.960893  0
C  C82  1  0.50327402  0.70941352  0.34099280  1  0  0.093701  0  3.715096  0  0  0.10886  0  3.957656  0  0  0.108818  0  3.981153  0  0  -0.004579  0.108791  0  3.941806  0
C  C83  1  0.49672476  0.29059307  0.65899925  1  0  0.093708  0  3.715191  0  0  0.108998  0  3.957754  0  0  0.108958  0  3.981248  0  0  -0.004584  0.108927  0  3.941902  0
C  C84  1  0.59182203  0.79366843  0.31069551  1  0  -0.101302  0  3.763298  0  0  -0.123904  0  4.015813  0  0  -0.125823  0  4.036707  0  0  -0.091582  -0.122554  0  4.001694  0
C  C85  1  0.40817295  0.20633904  0.68930013  1  0  -0.101448  0  3.763259  0  0  -0.124071  0  4.015731  0  0  -0.125989  0  4.036624  0  0  -0.091626  -0.122722  0  4.001612  0
C  C86  1  0.52506870  0.90381741  0.31995897  1  0  -0.152343  0  3.776219  0  0  -0.171352  0  4.027947  0  0  -0.1749  0  4.0491  0  0  -0.0944  -0.168885  0  4.013588  0
C  C87  1  0.47492615  0.09618731  0.68003779  1  0  -0.152285  0  3.776032  0  0  -0.171257  0  4.02777  0  0  -0.174806  0  4.048923  0  0  -0.09439  -0.168794  0  4.01342  0
C  C88  1  0.31508020  0.15361145  0.30465672  1  0  0.165642  0  3.660973  0  0  0.105396  0  3.928328  0  0  0.1189  0  3.940413  0  0  0.138167  0.096726  0  3.919852  0
C  C89  1  0.68491864  0.84638870  0.69534501  1  0  0.165619  0  3.661085  0  0  0.10535  0  3.928406  0  0  0.118852  0  3.940492  0  0  0.138185  0.096681  0  3.919925  0
C  C90  1  0.18970787  0.17001112  0.44612913  1  0  -0.002844  0  3.775872  0  0  -0.034205  0  4.040551  0  0  -0.032259  0  4.059556  0  0  -0.005604  -0.035449  0  4.027674  0
C  C91  1  0.81029773  0.82998632  0.55387512  1  0  -0.00295  0  3.776012  0  0  -0.034302  0  4.040695  0  0  -0.032352  0  4.059704  0  0  -0.005634  -0.035557  0  4.027828  0
C  C92  1  0.22197038  0.04930181  0.46503565  1  0  -0.08216  0  3.688878  0  0  -0.119217  0  3.943632  0  0  -0.117598  0  3.961365  0  0  -0.009665  -0.120186  0  3.931648  0
C  C93  1  0.77803043  0.95069927  0.53496408  1  0  -0.08227  0  3.688771  0  0  -0.119339  0  3.943538  0  0  -0.117722  0  3.961271  0  0  -0.009724  -0.120305  0  3.93155  0
C  C94  1  0.57716904  0.58302117  0.34536241  1  0  -0.055523  0  3.653814  0  0  -0.118666  0  3.894489  0  0  -0.114663  0  3.905497  0  0  -0.050372  -0.121204  0  3.887098  0
C  C95  1  0.42283010  0.41698453  0.65462641  1  0  -0.055622  0  3.653754  0  0  -0.119042  0  3.894792  0  0  -0.11506  0  3.905834  0  0  -0.050441  -0.121563  0  3.887388  0
C  C96  1  0.87584499  0.52124216  0.31917056  1  0  0.1458  0  3.663328  0  0  0.086666  0  3.92756  0  0  0.099753  0  3.940568  0  0  0.128515  0.078282  0  3.918481  0
C  C97  1  0.12415000  0.47876534  0.68082081  1  0  0.145682  0  3.663259  0  0  0.086618  0  3.927421  0  0  0.099697  0  3.940434  0  0  0.128436  0.078241  0  3.918338  0
C  C98  1  0.89603728  0.57205128  0.14876204  1  0  -0.004956  0  3.77753  0  0  -0.04139  0  4.051509  0  0  -0.039225  0  4.071383  0  0  -0.015521  -0.042801  0  4.038058  0
C  C99  1  0.10396560  0.42794438  0.85122970  1  0  -0.004762  0  3.777523  0  0  -0.041197  0  4.051455  0  0  -0.039028  0  4.071328  0  0  -0.015399  -0.042597  0  4.037992  0
C  C100  1  0.73543864  0.60379369  0.17372806  1  0  -0.07124  0  3.684718  0  0  -0.111583  0  3.945777  0  0  -0.110239  0  3.964673  0  0  -0.011162  -0.112408  0  3.93308  0
C  C101  1  0.26456105  0.39620744  0.82626182  1  0  -0.071322  0  3.684766  0  0  -0.111636  0  3.94582  0  0  -0.110293  0  3.964711  0  0  -0.011222  -0.11246  0  3.933126  0
N  N102  1  0.20568971  0.84599277  0.11101648  1  0  -0.095258  0  3.607277  0  0  -0.006266  0  3.820859  0  0  -0.021403  0  3.84688  0  0  -0.22712  0.003795  0  3.803044  0
N  N103  1  0.79430948  0.15400648  0.88898416  1  0  -0.095391  0  3.607212  0  0  -0.00636  0  3.820773  0  0  -0.021496  0  3.846795  0  0  -0.227163  0.003703  0  3.802952  0
N  N104  1  0.27129801  0.64843769  0.14984189  1  0  -0.352062  0  3.213173  0  0  -0.28306  0  3.48959  0  0  -0.301609  0  3.507044  0  0  -0.346177  -0.27041  0  3.477363  0
N  N105  1  0.72869706  0.35156337  0.85015774  1  0  -0.352049  0  3.213092  0  0  -0.283053  0  3.48953  0  0  -0.301603  0  3.506982  0  0  -0.346173  -0.270408  0  3.477312  0
N  N106  1  0.79525141  0.30872548  0.21650316  1  0  -0.05485  0  3.594459  0  0  0.04093  0  3.805466  0  0  0.026069  0  3.83256  0  0  -0.24721  0.05074  0  3.787002  0
N  N107  1  0.20475122  0.69127376  0.78350067  1  0  -0.054795  0  3.594139  0  0  0.041011  0  3.805162  0  0  0.026142  0  3.832258  0  0  -0.247156  0.050816  0  3.786679  0
N  N108  1  0.54013096  0.35832904  0.26434214  1  0  -0.376701  0  3.265264  0  0  -0.302933  0  3.543138  0  0  -0.32305  0  3.561575  0  0  -0.360076  -0.28922  0  3.530164  0
N  N109  1  0.45986959  0.64166656  0.73565768  1  0  -0.376586  0  3.265378  0  0  -0.302791  0  3.54322  0  0  -0.322912  0  3.561664  0  0  -0.359944  -0.289074  0  3.530247  0
N  N110  1  0.30246520  0.03994724  0.37414257  1  0  -0.093166  0  3.603715  0  0  -0.002463  0  3.813697  0  0  -0.017252  0  3.839271  0  0  -0.22921  0.007305  0  3.796294  0
N  N111  1  0.69753020  0.96005290  0.62585810  1  0  -0.093095  0  3.603562  0  0  -0.002385  0  3.813555  0  0  -0.017171  0  3.839123  0  0  -0.229188  0.007389  0  3.796145  0
N  N112  1  0.24722227  0.23357280  0.34588080  1  0  -0.353319  0  3.232465  0  0  -0.285015  0  3.510267  0  0  -0.30331  0  3.527677  0  0  -0.348607  -0.272532  0  3.498045  0
N  N113  1  0.75277738  0.76642827  0.65412119  1  0  -0.35321  0  3.232673  0  0  -0.284912  0  3.510475  0  0  -0.303207  0  3.527885  0  0  -0.348578  -0.272425  0  3.498251  0
N  N114  1  0.72446834  0.57034285  0.28205415  1  0  -0.055179  0  3.590621  0  0  0.040875  0  3.801916  0  0  0.026075  0  3.828776  0  0  -0.246621  0.050677  0  3.783567  0
N  N115  1  0.27553126  0.42966468  0.71793389  1  0  -0.05518  0  3.590732  0  0  0.040935  0  3.802076  0  0  0.026139  0  3.828943  0  0  -0.246559  0.05073  0  3.783728  0
N  N116  1  0.98192637  0.52084016  0.23981593  1  0  -0.384024  0  3.284711  0  0  -0.30978  0  3.56365  0  0  -0.330068  0  3.583001  0  0  -0.363604  -0.295902  0  3.550034  0
N  N117  1  0.01807134  0.47916001  0.76018023  1  0  -0.384002  0  3.284753  0  0  -0.309756  0  3.56363  0  0  -0.33004  0  3.582977  0  0  -0.363566  -0.295878  0  3.550007  0
Cl  Cl118  1  0.28768439  0.41639782  0.07118338  1  0  -0.635804  0  0.774528  0  0  -0.575006  0  1.01803  0  0  -0.589808  0  0.999394  0  0  -0.345461  -0.563954  0  1.030756  0
Cl  Cl119  1  0.71231731  0.58359778  0.92881774  1  0  -0.635806  0  0.774496  0  0  -0.575011  0  1.018012  0  0  -0.589815  0  0.999378  0  0  -0.345468  -0.563967  0  1.030755  0
Cl  Cl120  1  0.23297170  0.46212741  0.43209374  1  0  -0.649238  0  0.769819  0  0  -0.595652  0  1.01417  0  0  -0.610418  0  0.995459  0  0  -0.376184  -0.584712  0  1.026905  0
Cl  Cl121  1  0.76700891  0.53787540  0.56790312  1  0  -0.649183  0  0.769796  0  0  -0.595635  0  1.014205  0  0  -0.610392  0  0.995477  0  0  -0.37616  -0.584693  0  1.026945  0
