# generated using pymatgen
data_AlH7C13O5F
_symmetry_space_group_name_H-M   'P 1'
_cell_length_a   6.62134764
_cell_length_b   11.17257780
_cell_length_c   15.23297027
_cell_angle_alpha   79.53987570
_cell_angle_beta   78.44808692
_cell_angle_gamma   71.63278318
_symmetry_Int_Tables_number   1
_chemical_formula_structural   AlH7C13O5F
_chemical_formula_sum   'Al2 H14 C26 O10 F2'
_cell_volume   1039.28865166
_cell_formula_units_Z   2
loop_
 _symmetry_equiv_pos_site_id
 _symmetry_equiv_pos_as_xyz
  1  'x, y, z'
loop_
 _atom_site_type_symbol
 _atom_site_label
 _atom_site_symmetry_multiplicity
 _atom_site_fract_x
 _atom_site_fract_y
 _atom_site_fract_z
 _atom_site_occupancy
 _atom_site_pbe_bader_charge
 _atom_site_pbe_bader_spin_density
 _atom_site_pbe_cm5_charge
 _atom_site_pbe_ddec_charge
 _atom_site_pbe_ddec_spin_density
 _atom_site_pbe_ddec_sum_bond_order
 _atom_site_pbe_magmom
Al  Al0  1  0.49698929  0.49531386  0.50060916  1  2.502791  0  0.393795  1.637333  0  2.586883  0
Al  Al1  1  0.99757023  0.49330438  0.50206304  1  2.500323  0  0.394726  1.635103  0  2.58394  0
H  H2  1  0.24161406  0.41668858  0.61057657  1  0.619077  0  0.35117  0.427177  0  0.861037  0
H  H3  1  0.69540092  0.65046500  0.45111744  1  0.631001  0  0.342418  0.416013  0  0.888085  0
H  H4  1  0.81900531  0.61356902  0.76612747  1  0.065549  0  0.109483  0.113932  0  0.990064  0
H  H5  1  0.71631675  0.62519565  0.93040768  1  0.054128  0  0.104146  0.104096  0  1.005637  0
H  H6  1  0.07939958  0.45039452  0.23058065  1  0.11789  0  0.110786  0.114647  0  0.995803  0
H  H7  1  0.16428499  0.45198121  0.06446506  1  0.057587  0  0.09981  0.095601  0  1.023741  0
H  H8  1  0.65767161  0.54694623  0.23059986  1  0.116019  0  0.111867  0.11675  0  0.995527  0
H  H9  1  0.74906404  0.54575270  0.06476616  1  0.057873  0  0.099946  0.096091  0  1.024212  0
H  H10  1  0.41805237  0.37115508  0.78270182  1  0.076012  0  0.107246  0.108238  0  0.993528  0
H  H11  1  0.33475647  0.36893990  0.94844678  1  0.071791  0  0.104007  0.103692  0  1.004084  0
H  H12  1  0.25245291  0.24479804  0.39301783  1  0.15278  0  0.120082  0.152691  0  1.01809  0
H  H13  1  0.46139369  0.77847520  0.37654631  1  0.114387  0  0.119349  0.145001  0  1.007635  0
H  H14  1  0.75051471  0.87411433  0.55013109  1  0.107655  0  0.110192  0.115564  0  0.986392  0
H  H15  1  0.63262217  0.11113321  0.54599335  1  0.08582  0  0.112855  0.120353  0  0.982518  0
C  C16  1  0.86152728  0.27076866  0.49063273  1  1.581944  0  0.273262  0.647611  0  4.082585  0
C  C17  1  0.68022206  0.48860439  0.66470861  1  1.582068  0  0.266946  0.643478  0  4.096179  0
C  C18  1  0.13609423  0.72489083  0.49410123  1  1.510756  0  0.267066  0.647868  0  4.091073  0
C  C19  1  0.31172852  0.49921419  0.33991524  1  1.576398  0  0.26885  0.634617  0  4.105332  0
C  C20  1  0.62410058  0.49218154  0.76395274  1  -0.031151  0  -0.016889  -0.047545  0  3.985126  0
C  C21  1  0.36311199  0.49896608  0.24053713  1  0.002161  0  -0.015713  -0.050942  0  3.984835  0
C  C22  1  0.71068841  0.56156159  0.80666040  1  0.005388  0  -0.081784  -0.087908  0  3.990338  0
C  C23  1  0.65469309  0.56614765  0.89923999  1  -0.076765  0  -0.089353  -0.134213  0  3.982793  0
C  C24  1  0.22532621  0.47154713  0.19325578  1  -0.025361  0  -0.07652  -0.077312  0  3.970086  0
C  C25  1  0.27505043  0.47177856  0.10018067  1  -0.060471  0  -0.089178  -0.13332  0  3.975354  0
C  C26  1  0.55120277  0.52630072  0.19311453  1  -0.070759  0  -0.076747  -0.075922  0  3.968731  0
C  C27  1  0.60037206  0.52615280  0.10012406  1  -0.01212  0  -0.089123  -0.132726  0  3.976986  0
C  C28  1  0.48397742  0.42577013  0.81589316  1  -0.066238  0  -0.081631  -0.085034  0  3.993624  0
C  C29  1  0.43531790  0.42642240  0.90887655  1  -0.018026  0  -0.088197  -0.131611  0  3.979481  0
C  C30  1  0.51779115  0.49754269  0.95264586  1  0.017031  0  -0.002177  0.074011  0  3.989438  0
C  C31  1  0.46368997  0.49885584  0.05149347  1  -0.056032  0  -9.6e-05  0.076274  0  3.984284  0
C  C32  1  0.93923923  0.13221159  0.48116300  1  0.024246  0  -0.003724  -0.071838  0  3.916627  0
C  C33  1  0.15082171  0.07240273  0.43771209  1  -0.005953  0  0.004278  0.075335  0  3.954115  0
C  C34  1  0.79584819  0.06193277  0.51698697  1  -0.032141  0  -0.08076  -0.095472  0  3.99666  0
C  C35  1  0.29501889  0.14273527  0.39205614  1  0.050737  0  -0.093371  -0.235122  0  3.956325  0
C  C36  1  0.48932433  0.08222867  0.34539145  1  0.450728  0  0.093273  0.186505  0  4.112323  0
C  C37  1  0.06828931  0.86671845  0.48142290  1  0.12835  0  -0.007219  -0.074253  0  3.92663  0
C  C38  1  0.86099241  0.92944462  0.51825486  1  -0.136863  0  -0.082384  -0.097339  0  4.005981  0
C  C39  1  0.21424825  0.93708448  0.43579705  1  0.031225  0  0.00224  0.077606  0  3.958024  0
C  C40  1  0.41500926  0.87882570  0.38464124  1  0.048398  0  -0.098883  -0.249871  0  3.986862  0
C  C41  1  0.54853963  0.95020536  0.34082335  1  0.476261  0  0.091902  0.185926  0  4.119175  0
O  O42  1  0.66655196  0.32745018  0.48098401  1  -1.258424  0  -0.2278  -0.573735  0  2.337725  0
O  O43  1  0.86016881  0.50657573  0.62638403  1  -1.268855  0  -0.240113  -0.601228  0  2.328425  0
O  O44  1  0.99854307  0.67012363  0.48738307  1  -1.257932  0  -0.235779  -0.599398  0  2.343066  0
O  O45  1  0.44499857  0.52372546  0.37875325  1  -1.269758  0  -0.235425  -0.592199  0  2.367534  0
O  O46  1  0.32578944  0.66913953  0.51241884  1  -1.266252  0  -0.24146  -0.603492  0  2.351619  0
O  O47  1  0.13733256  0.47582013  0.38028467  1  -1.263883  0  -0.232924  -0.582636  0  2.348418  0
O  O48  1  0.99096037  0.32142585  0.51079815  1  -1.258517  0  -0.233244  -0.586973  0  2.343662  0
O  O49  1  0.54477698  0.46684580  0.62522769  1  -1.267006  0  -0.240567  -0.607857  0  2.342187  0
O  O50  1  0.25843345  0.43581415  0.54526179  1  -1.423322  0  -0.44823  -0.984073  0  2.188709  0
O  O51  1  0.73281961  0.55831983  0.46190465  1  -1.436903  0  -0.450583  -0.985391  0  2.203185  0
F  F52  1  0.62776144  0.14808107  0.30078087  1  -0.628952  0  -0.097888  -0.125775  0  1.341387  0
F  F53  1  0.73909150  0.89561435  0.29094807  1  -0.624688  0  -0.101934  -0.128328  0  1.326953  0
