# generated using pymatgen
data_CoH24C30(NO2)4
_symmetry_space_group_name_H-M   'P 1'
_cell_length_a   8.19694810
_cell_length_b   9.62131895
_cell_length_c   9.91200047
_cell_angle_alpha   111.20049082
_cell_angle_beta   105.18626259
_cell_angle_gamma   107.03169705
_symmetry_Int_Tables_number   1
_chemical_formula_structural   CoH24C30(NO2)4
_chemical_formula_sum   'Co1 H24 C30 N4 O8'
_cell_volume   634.73802214
_cell_formula_units_Z   1
loop_
 _symmetry_equiv_pos_site_id
 _symmetry_equiv_pos_as_xyz
  1  'x, y, z'
loop_
 _atom_site_type_symbol
 _atom_site_label
 _atom_site_symmetry_multiplicity
 _atom_site_fract_x
 _atom_site_fract_y
 _atom_site_fract_z
 _atom_site_occupancy
 _atom_site_pbe_cm5_charge
 _atom_site_pbe_ddec_charge
 _atom_site_pbe_ddec_spin_density
 _atom_site_pbe_ddec_sum_bond_order
 _atom_site_pbe_magmom
Co  Co0  1  0.00000000  0.00000000  0.00000000  1  0.627618  0.698745  -1.044535  2.827652  -0.967
H  H1  1  0.55208633  0.90233293  0.12747288  1  0.114431  0.146527  6.5e-05  0.993236  0.0
H  H2  1  0.44791089  0.09766446  0.87252669  1  0.114426  0.146527  6.5e-05  0.99326  0.0
H  H3  1  0.92629137  0.26525429  0.82653965  1  0.109294  0.13344  -1e-05  1.026359  0.0
H  H4  1  0.07370770  0.73474433  0.17345972  1  0.109276  0.133409  -1.1e-05  1.026402  0.0
H  H5  1  0.81338660  0.47690206  0.93904471  1  0.102986  0.102017  -0.000228  1.008566  0.0
H  H6  1  0.18661432  0.52309775  0.06095345  1  0.102995  0.102052  -0.000228  1.008573  0.0
H  H7  1  0.57637284  0.51559771  0.76016903  1  0.101939  0.110656  -0.000143  1.031975  0.0
H  H8  1  0.42362814  0.48439963  0.23982831  1  0.101916  0.110599  -0.000143  1.031984  0.0
H  H9  1  0.45345705  0.34863500  0.46920802  1  0.101526  0.098437  0.000141  1.041866  0.0
H  H10  1  0.54654515  0.65136486  0.53079245  1  0.101523  0.098447  0.000141  1.041882  0.0
H  H11  1  0.83230097  0.82374887  0.13960018  1  0.279668  0.362212  -0.000463  0.992345  -0.001
H  H12  1  0.16769624  0.17624852  0.86039939  1  0.279706  0.362273  -0.000463  0.992261  -0.001
H  H13  1  0.72320415  0.76350205  0.95750463  1  0.280483  0.355625  0.000181  1.004806  0.0
H  H14  1  0.27678795  0.23649782  0.04249567  1  0.280494  0.355668  0.000181  1.00475  0.0
H  H15  1  0.16751308  0.76857653  0.97185886  1  0.122285  0.096522  0.000213  1.024742  0.0
H  H16  1  0.83248599  0.23142208  0.02814051  1  0.122303  0.096538  0.000213  1.024686  0.0
H  H17  1  0.17751567  0.54554682  0.75772852  1  0.111365  0.120548  -4.6e-05  1.000931  0.0
H  H18  1  0.82248080  0.45445425  0.24227112  1  0.111349  0.120491  -4.6e-05  1.000849  0.0
H  H19  1  0.83101036  0.64476649  0.42525961  1  0.111008  0.123475  1e-06  1.006836  0.0
H  H20  1  0.16899302  0.35523579  0.57473991  1  0.111013  0.123509  1e-06  1.006829  0.0
H  H21  1  0.84853661  0.87014114  0.65456366  1  0.118495  0.087931  0.000167  1.042068  0.0
H  H22  1  0.15146493  0.12985994  0.34543707  1  0.118476  0.087938  0.000167  1.042033  0.0
H  H23  1  0.93739311  0.07884751  0.58961301  1  0.310007  0.281842  2e-06  0.990931  0.0
H  H24  1  0.06260410  0.92114986  0.41038554  1  0.309997  0.281864  2e-06  0.990868  0.0
C  C25  1  0.74937145  0.97012308  0.35987984  1  0.224997  0.504299  -0.00013  4.146768  0.0
C  C26  1  0.25062821  0.02987675  0.64011906  1  0.224951  0.504186  -0.00013  4.146931  0.0
C  C27  1  0.60473678  0.98412317  0.25433070  1  -0.095805  -0.276919  -0.000592  3.898016  -0.001
C  C28  1  0.39526170  0.01587423  0.74566915  1  -0.095754  -0.276882  -0.000592  3.898051  -0.001
C  C29  1  0.54277449  0.10135506  0.31184406  1  0.014568  0.019176  0.000422  3.931533  0.0
C  C30  1  0.45722585  0.89864356  0.68815559  1  0.014521  0.019143  0.000422  3.931613  0.0
C  C31  1  0.40136313  0.12390910  0.19903632  1  0.221194  0.566688  0.003127  4.182538  0.002
C  C32  1  0.59863040  0.87608591  0.80096568  1  0.221163  0.566594  0.003127  4.182625  0.002
C  C33  1  0.61319535  0.20649254  0.47980986  1  -0.013759  -0.021428  0.000319  4.007444  0.0
C  C34  1  0.38680806  0.79350979  0.52019170  1  -0.01378  -0.021462  0.000319  4.007322  0.0
C  C35  1  0.74989538  0.18640674  0.58338292  1  0.111527  0.218467  -8.9e-05  3.99409  0.0
C  C36  1  0.25010675  0.81359556  0.41661734  1  0.111534  0.218537  -8.9e-05  3.994069  0.0
C  C37  1  0.82216176  0.28349153  0.74914594  1  -0.097414  -0.197463  9.7e-05  3.962111  0.0
C  C38  1  0.17783850  0.71650953  0.25085351  1  -0.097393  -0.197453  9.7e-05  3.962083  0.0
C  C39  1  0.75771225  0.39940463  0.81098099  1  -0.082048  -0.045975  -0.000111  3.996944  0.0
C  C40  1  0.24229061  0.60059397  0.18901819  1  -0.082061  -0.046013  -0.000111  3.996923  0.0
C  C41  1  0.62352018  0.42227470  0.71025185  1  -0.095994  -0.089659  -5.3e-05  3.994331  0.0
C  C42  1  0.37648187  0.57773007  0.28974923  1  -0.095918  -0.089523  -5.3e-05  3.994441  0.0
C  C43  1  0.55392788  0.32822786  0.54725213  1  -0.090367  -0.11518  5e-05  3.984509  0.0
C  C44  1  0.44607623  0.67177070  0.45274529  1  -0.090392  -0.115242  5e-05  3.984593  0.0
C  C45  1  0.09625748  0.73736170  0.84868243  1  0.045191  0.090586  0.008692  3.900917  0.005
C  C46  1  0.90374521  0.26264437  0.15132225  1  0.045183  0.090554  0.008693  3.901043  0.005
C  C47  1  0.09826444  0.61026848  0.72597740  1  -0.075598  -0.155498  0.001728  3.948035  0.0
C  C48  1  0.90173716  0.38973012  0.27402151  1  -0.075617  -0.155461  0.001726  3.948043  0.0
C  C49  1  0.00177628  0.56820423  0.56680807  1  0.009463  0.095335  0.010822  3.963601  0.006
C  C50  1  0.99822204  0.43179806  0.43319136  1  0.009432  0.095299  0.010825  3.963463  0.006
C  C51  1  0.90946247  0.66534593  0.54329416  1  -0.083111  -0.167614  0.001462  3.94133  0.0
C  C52  1  0.09054160  0.33465517  0.45670713  1  -0.083086  -0.167646  0.001462  3.94126  0.0
C  C53  1  0.91746362  0.79343760  0.67181216  1  0.035078  0.065152  0.007851  3.952476  0.004
C  C54  1  0.08253844  0.20656716  0.32818892  1  0.035062  0.065123  0.007851  3.952485  0.004
N  N55  1  0.81328647  0.07175175  0.51876386  1  -0.380006  -0.346794  -0.00035  3.597166  -0.001
N  N56  1  0.18671517  0.92824695  0.48123912  1  -0.379955  -0.346781  -0.00035  3.597198  -0.001
N  N57  1  0.00766333  0.83042164  0.82449851  1  -0.338408  -0.187678  0.014315  3.610536  0.01
N  N58  1  0.99234007  0.16958069  0.17550305  1  -0.338371  -0.187598  0.014314  3.610433  0.01
O  O59  1  0.82311962  0.87236194  0.31408626  1  -0.312646  -0.536703  -0.000598  2.214126  -0.001
O  O60  1  0.17687888  0.12763551  0.68591563  1  -0.312651  -0.536659  -0.000598  2.214189  -0.001
O  O61  1  0.46084376  0.24108374  0.16977785  1  -0.299823  -0.52394  0.001933  2.168703  0.002
O  O62  1  0.53914826  0.75892118  0.83022917  1  -0.29977  -0.523849  0.001933  2.1689  0.002
O  O63  1  0.23109681  0.01893086  0.14542237  1  -0.291024  -0.503283  0.002834  2.457766  0.002
O  O64  1  0.76890115  0.98106287  0.85457713  1  -0.291023  -0.503234  0.002834  2.457576  0.002
O  O65  1  0.84768466  0.79202375  0.03750900  1  -0.583313  -0.760208  -0.029341  2.155775  -0.048
O  O66  1  0.15231173  0.20797976  0.96249043  1  -0.583351  -0.760289  -0.029341  2.155681  -0.048
