# generated using pymatgen
data_Al2H13C18N2O10F
_symmetry_space_group_name_H-M   'P 1'
_cell_length_a   6.68579366
_cell_length_b   16.05026642
_cell_length_c   17.54172529
_cell_angle_alpha   80.06402977
_cell_angle_beta   90.01083603
_cell_angle_gamma   90.00019104
_symmetry_Int_Tables_number   1
_chemical_formula_structural   Al2H13C18N2O10F
_chemical_formula_sum   'Al4 H26 C36 N4 O20 F2'
_cell_volume   1854.14745693
_cell_formula_units_Z   2
loop_
 _symmetry_equiv_pos_site_id
 _symmetry_equiv_pos_as_xyz
  1  'x, y, z'
loop_
 _atom_site_type_symbol
 _atom_site_label
 _atom_site_symmetry_multiplicity
 _atom_site_fract_x
 _atom_site_fract_y
 _atom_site_fract_z
 _atom_site_occupancy
 _atom_site_pbe_bader_charge
 _atom_site_pbe_bader_spin_density
 _atom_site_pbe_cm5_charge
 _atom_site_pbe_ddec_charge
 _atom_site_pbe_ddec_spin_density
 _atom_site_pbe_ddec_sum_bond_order
 _atom_site_pbe_magmom
Al  Al0  1  0.10938928  0.49983246  0.49456563  1  2.502092  0  0.399925  1.648531  0  2.576418  0
Al  Al1  1  0.60938812  0.50016866  0.50547986  1  2.502009  0  0.399813  1.648644  0  2.576126  0
Al  Al2  1  0.65652044  0.00155777  0.00139709  1  2.50069  0  0.397791  1.651654  0  2.577509  0
Al  Al3  1  0.15654053  0.99836702  0.99912318  1  2.50061  0  0.39799  1.653088  0  2.5745  0
H  H4  1  0.59816403  0.19087020  0.81293958  1  0.108907  0  0.111898  0.109343  0  0.98288  0
H  H5  1  0.09844396  0.80909604  0.18692317  1  0.111855  0  0.112602  0.110664  0  0.981929  0
H  H6  1  0.05601610  0.19393346  0.79275181  1  0.081274  0  0.110523  0.126533  0  0.990739  0
H  H7  1  0.55616217  0.80638614  0.20778088  1  0.048585  0  0.110716  0.126405  0  0.990285  0
H  H8  1  0.57798064  0.30100943  0.69721774  1  0.078879  0  0.111491  0.10699  0  0.980029  0
H  H9  1  0.07795904  0.69895495  0.30271857  1  0.098552  0  0.111384  0.106822  0  0.980086  0
H  H10  1  0.03865912  0.30476735  0.69741276  1  0.082949  0  0.111307  0.127351  0  0.989551  0
H  H11  1  0.53862275  0.69523047  0.30269698  1  0.083083  0  0.11142  0.127501  0  0.989496  0
H  H12  1  0.24397595  0.18185536  0.30049878  1  0.097243  0  0.103387  0.108855  0  0.99987  0
H  H13  1  0.74390042  0.81819721  0.69974566  1  0.094679  0  0.103572  0.109251  0  0.999503  0
H  H14  1  0.21537222  0.09365089  0.19701231  1  0.099763  0  0.107272  0.116561  0  0.993815  0
H  H15  1  0.71521553  0.90626934  0.80328773  1  0.098623  0  0.107019  0.116562  0  0.994494  0
H  H16  1  0.63638242  0.19690031  0.13390055  1  0.06632  0  0.104461  0.102597  0  1.022683  0
H  H17  1  0.13630186  0.80285807  0.86624451  1  0.065855  0  0.103954  0.10171  0  1.023575  0
H  H18  1  0.35606073  0.38888431  0.29400658  1  0.458903  0  0.294714  0.28594  0  0.978618  0
H  H19  1  0.49403711  0.43437020  0.35550563  1  0.497067  0  0.301786  0.306718  0  0.986894  0
H  H20  1  0.85627065  0.61101218  0.70595150  1  0.460436  0  0.294864  0.286099  0  0.978619  0
H  H21  1  0.99434077  0.56560124  0.64445512  1  0.496165  0  0.301869  0.306478  0  0.987541  0
H  H22  1  0.40696392  0.38001727  0.17872909  1  0.428465  0  0.302284  0.287952  0  0.956108  0
H  H23  1  0.45180597  0.28844990  0.14723334  1  0.421836  0  0.301381  0.289617  0  0.964174  0
H  H24  1  0.95211977  0.71120648  0.85293314  1  0.423681  0  0.301312  0.289712  0  0.964397  0
H  H25  1  0.90720580  0.61977841  0.82124232  1  0.428499  0  0.302505  0.288174  0  0.955781  0
H  H26  1  0.35805614  0.38806616  0.51857709  1  0.651788  0  0.3579  0.43783  0  0.839756  0
H  H27  1  0.85798308  0.61190020  0.48132786  1  0.65155  0  0.357796  0.437641  0  0.840062  0
H  H28  1  0.40157399  0.11178111  0.98580280  1  0.593905  0  0.35555  0.432676  0  0.848208  0
H  H29  1  0.90117669  0.88854653  0.00831853  1  0.592616  0  0.355631  0.4331  0  0.847578  0
C  C30  1  0.35289466  0.59087055  0.59805041  1  1.574812  0  0.266547  0.679017  0  4.063646  0
C  C31  1  0.85267611  0.40913658  0.40198989  1  1.575603  0  0.266221  0.679015  0  4.065161  0
C  C32  1  0.36495573  0.61233327  0.38834297  1  1.537784  0  0.259516  0.678705  0  4.112764  0
C  C33  1  0.86501155  0.38766976  0.61171597  1  1.536845  0  0.259318  0.678274  0  4.111438  0
C  C34  1  0.73895976  0.21368583  0.78521476  1  -0.081605  0  -0.067668  -0.025529  0  3.978446  0
C  C35  1  0.23909576  0.78635060  0.21484797  1  -0.08692  0  -0.067878  -0.026577  0  3.97916  0
C  C36  1  0.90824878  0.17674336  0.81672553  1  0.000511  0  -0.08155  -0.224959  0  3.865743  0
C  C37  1  0.40848458  0.82344991  0.18362416  1  0.035632  0  -0.080994  -0.224219  0  3.866548  0
C  C38  1  0.72715836  0.28064991  0.71821780  1  -0.058046  0  -0.065564  -0.017716  0  3.979027  0
C  C39  1  0.22716325  0.71934215  0.28180430  1  -0.074106  0  -0.065118  -0.016757  0  3.978857  0
C  C40  1  0.88478974  0.32056203  0.68002782  1  -0.000935  0  -0.083293  -0.230454  0  3.880498  0
C  C41  1  0.38476746  0.67941953  0.32004036  1  -0.005125  0  -0.083687  -0.231116  0  3.881454  0
C  C42  1  0.82874680  0.35616660  0.34073733  1  0.089176  0  -0.033966  -0.257613  0  3.976268  0
C  C43  1  0.32892390  0.64383976  0.65932357  1  0.023002  0  -0.034041  -0.257978  0  3.974566  0
C  C44  1  0.92231681  0.14253796  0.15972042  1  -0.026988  0  -0.019966  -0.040117  0  4.008519  0
C  C45  1  0.42225621  0.85729403  0.84058202  1  -0.027094  0  -0.020565  -0.040334  0  4.006772  0
C  C46  1  0.11235446  0.18594666  0.26350115  1  -0.030749  0  -0.089945  -0.101526  0  4.023956  0
C  C47  1  0.61231457  0.81402290  0.73672405  1  -0.022177  0  -0.089659  -0.100902  0  4.02298  0
C  C48  1  0.09669507  0.13714069  0.20670249  1  -0.039584  0  -0.096985  -0.119107  0  4.001798  0
C  C49  1  0.59662691  0.86273885  0.79359539  1  -0.042161  0  -0.097826  -0.1207  0  4.002127  0
C  C50  1  0.76845662  0.19699991  0.17034975  1  -0.031612  0  -0.085176  -0.137726  0  3.948252  0
C  C51  1  0.26843563  0.80284765  0.82982551  1  -0.04265  0  -0.085393  -0.137999  0  3.948557  0
C  C52  1  0.78257329  0.25099550  0.22621837  1  -0.020422  0  -0.014899  0.006647  0  4.017585  0
C  C53  1  0.28260879  0.74890764  0.77392023  1  -0.01128  0  -0.015074  0.006658  0  4.01761  0
C  C54  1  0.95925763  0.24426897  0.27398047  1  0.046327  0  -0.028236  -0.050568  0  4.087554  0
C  C55  1  0.45929013  0.75570029  0.72617997  1  0.049216  0  -0.028146  -0.05078  0  4.087064  0
C  C56  1  0.97551301  0.29831602  0.32865182  1  0.38241  0  0.091855  0.208552  0  4.059602  0
C  C57  1  0.47564268  0.70170446  0.67146530  1  0.447755  0  0.092231  0.209336  0  4.057676  0
C  C58  1  0.64913298  0.35976122  0.29528956  1  0.397707  0  0.090726  0.19678  0  4.043971  0
C  C59  1  0.14929989  0.64018772  0.70475257  1  0.430027  0  0.091105  0.197456  0  4.043033  0
C  C60  1  0.63181019  0.31033317  0.23662827  1  0.433049  0  0.07312  0.111466  0  4.066706  0
C  C61  1  0.13191178  0.68956699  0.76344664  1  0.430433  0  0.072917  0.111045  0  4.06661  0
C  C62  1  0.40678940  0.88952146  0.11363420  1  1.565287  0  0.258344  0.673763  0  4.123672  0
C  C63  1  0.90634679  0.11068541  0.88674403  1  1.566584  0  0.258145  0.674917  0  4.122443  0
C  C64  1  0.40979376  0.90886171  0.90331828  1  1.555689  0  0.265882  0.643798  0  4.096133  0
C  C65  1  0.91001335  0.09084367  0.09710609  1  1.558091  0  0.265638  0.641954  0  4.097584  0
N  N66  1  0.49186681  0.41389162  0.30366259  1  -1.233313  0  -0.608656  -0.612211  0  3.289075  0
N  N67  1  0.99211669  0.58605236  0.69631208  1  -1.265056  0  -0.6088  -0.612099  0  3.290312  0
N  N68  1  0.45599367  0.31929328  0.19297698  1  -1.194228  0  -0.59625  -0.595119  0  3.367024  0
N  N69  1  0.95613152  0.68052180  0.80708889  1  -1.197194  0  -0.596517  -0.595503  0  3.366442  0
O  O70  1  0.52996159  0.58647123  0.42108332  1  -1.253519  0  -0.241191  -0.605731  0  2.314481  0
O  O71  1  0.03007177  0.41360207  0.57908074  1  -1.252543  0  -0.241099  -0.605158  0  2.313543  0
O  O72  1  0.19154443  0.57173762  0.56596938  1  -1.266267  0  -0.237488  -0.600517  0  2.387943  0
O  O73  1  0.69133016  0.42834002  0.43400879  1  -1.266996  0  -0.237294  -0.601037  0  2.388743  0
O  O74  1  0.19099383  0.58528617  0.41019756  1  -1.258715  0  -0.239501  -0.600554  0  2.312117  0
O  O75  1  0.69104616  0.41464792  0.58979250  1  -1.258184  0  -0.239125  -0.599967  0  2.311922  0
O  O76  1  0.02674420  0.43183041  0.41959262  1  -1.245022  0  -0.236922  -0.593212  0  2.329909  0
O  O77  1  0.52694736  0.56811130  0.58053959  1  -1.244379  0  -0.236923  -0.593051  0  2.329054  0
O  O78  1  0.35995950  0.44888867  0.50236055  1  -1.454447  0  -0.447752  -0.995905  0  2.202464  0
O  O79  1  0.86000000  0.55110367  0.49772975  1  -1.454187  0  -0.447609  -0.995853  0  2.202915  0
O  O80  1  0.23704071  0.92617921  0.92742367  1  -1.261233  0  -0.24197  -0.602422  0  2.327557  0
O  O81  1  0.73745799  0.07395794  0.07256213  1  -1.260773  0  -0.241298  -0.599961  0  2.328519  0
O  O82  1  0.57791046  0.91664463  0.08801949  1  -1.244832  0  -0.240236  -0.595835  0  2.297365  0
O  O83  1  0.07754165  0.08395711  0.91271635  1  -1.244781  0  -0.240656  -0.598682  0  2.295936  0
O  O84  1  0.57655889  0.93070298  0.92913753  1  -1.259922  0  -0.238801  -0.600687  0  2.35918  0
O  O85  1  0.07670517  0.06844392  0.07176044  1  -1.2603  0  -0.237814  -0.597375  0  2.359144  0
O  O86  1  0.73730045  0.08653966  0.91609892  1  -1.264101  0  -0.239169  -0.602798  0  2.341286  0
O  O87  1  0.23796259  0.91331014  0.08389460  1  -1.259664  0  -0.238458  -0.600714  0  2.341838  0
O  O88  1  0.40506039  0.05063224  0.99568139  1  -1.397568  0  -0.447688  -0.995939  0  2.218026  0
O  O89  1  0.90509037  0.94934263  0.00456689  1  -1.39572  0  -0.447809  -0.996289  0  2.218222  0
F  F90  1  0.14340299  0.28972275  0.37392616  1  -0.634183  0  -0.095552  -0.134548  0  1.381355  0
F  F91  1  0.64357725  0.71033244  0.62623322  1  -0.634238  0  -0.095475  -0.134542  0  1.380628  0
