# generated using pymatgen
data_CoH24C26S2(NO3)2
_symmetry_space_group_name_H-M   'P 1'
_cell_length_a   6.96307429
_cell_length_b   8.88571018
_cell_length_c   10.17253032
_cell_angle_alpha   76.35659171
_cell_angle_beta   77.62777504
_cell_angle_gamma   81.68187152
_symmetry_Int_Tables_number   1
_chemical_formula_structural   CoH24C26S2(NO3)2
_chemical_formula_sum   'Co1 H24 C26 S2 N2 O6'
_cell_volume   594.48432361
_cell_formula_units_Z   1
loop_
 _symmetry_equiv_pos_site_id
 _symmetry_equiv_pos_as_xyz
  1  'x, y, z'
loop_
 _atom_site_type_symbol
 _atom_site_label
 _atom_site_symmetry_multiplicity
 _atom_site_fract_x
 _atom_site_fract_y
 _atom_site_fract_z
 _atom_site_occupancy
 _atom_site_hle17_ddec_charge
 _atom_site_hle17_ddec_spin_density
 _atom_site_hle17_ddec_sum_bond_order
 _atom_site_hle17_magmom
 _atom_site_hse06_10hf_ddec_charge
 _atom_site_hse06_10hf_ddec_spin_density
 _atom_site_hse06_10hf_ddec_sum_bond_order
 _atom_site_hse06_10hf_magmom
 _atom_site_hse06_ddec_charge
 _atom_site_hse06_ddec_spin_density
 _atom_site_hse06_ddec_sum_bond_order
 _atom_site_hse06_magmom
 _atom_site_pbe_cm5_charge
 _atom_site_pbe_ddec_charge
 _atom_site_pbe_ddec_spin_density
 _atom_site_pbe_ddec_sum_bond_order
 _atom_site_pbe_magmom
Co  Co0  1  0.50000165  0.49999843  0.50000040  1  0.756693  1.12964  2.263192  1.043  0.744098  1.044333  2.684198  0.984  0.817666  1.033373  2.606172  0.982  0.627023  0.705884  1.050977  2.730449  0.984
H  H1  1  0.87712733  0.50999956  0.62470323  1  0.40737  0.000453  0.893715  0.001  0.382291  0.000736  0.956697  0.002  0.391855  0.000564  0.942841  0.001  0.291648  0.375882  0.000906  0.966003  0.002
H  H2  1  0.12286979  0.48999964  0.37529891  1  0.40739  0.000453  0.893733  0.001  0.382313  0.000737  0.956677  0.002  0.391876  0.000564  0.942822  0.001  0.29168  0.375904  0.000906  0.965984  0.002
H  H3  1  0.20413566  0.13975978  0.95438291  1  0.085154  -7.4e-05  0.999504  0.0  0.09537  -4.8e-05  1.064467  0.0  0.097346  -2.9e-05  1.065474  0.0  0.093727  0.094388  -5e-05  1.06255  0.0
H  H4  1  0.79585826  0.86023016  0.04561849  1  0.085107  -7.7e-05  0.999576  0.0  0.095293  -4.9e-05  1.064568  0.0  0.097271  -2.8e-05  1.065567  0.0  0.093642  0.094301  -5e-05  1.062661  0.0
H  H5  1  0.68486578  0.42571027  0.85113211  1  0.102607  -7e-05  0.972369  0.0  0.112078  -5.9e-05  1.036369  0.0  0.115554  -5.8e-05  1.034203  0.0  0.101511  0.108672  -5.7e-05  1.039411  0.0
H  H6  1  0.31513405  0.57430044  0.14887629  1  0.102689  -6.9e-05  0.972235  0.0  0.112104  -5.9e-05  1.036298  0.0  0.115581  -5.8e-05  1.034132  0.0  0.101507  0.108698  -5.7e-05  1.039345  0.0
H  H7  1  0.98374408  0.24626995  0.79084944  1  0.087539  5.9e-05  0.9588  0.0  0.097983  7.1e-05  1.020617  0.0  0.100788  4.5e-05  1.019145  0.0  0.097719  0.096058  9.5e-05  1.021619  0.0
H  H8  1  0.01624820  0.75373276  0.20915266  1  0.087597  5.9e-05  0.958831  0.0  0.098034  7.1e-05  1.020647  0.0  0.100842  4.5e-05  1.019167  0.0  0.097724  0.096104  9.5e-05  1.021664  0.0
H  H9  1  0.60878252  0.48999694  0.08516546  1  0.094906  -6.4e-05  0.969237  0.0  0.105838  -4.1e-05  1.031725  0.0  0.108695  -3.4e-05  1.029786  0.0  0.103131  0.103841  -3e-05  1.033028  0.0
H  H10  1  0.39122343  0.51001262  0.91483940  1  0.094872  -6.3e-05  0.969272  0.0  0.105793  -4.1e-05  1.031788  0.0  0.108651  -3.4e-05  1.029849  0.0  0.103095  0.103802  -3e-05  1.033076  0.0
H  H11  1  0.29388201  0.96433964  0.11393502  1  0.094897  1.2e-05  0.955843  0.0  0.108359  -1e-06  1.023176  0.0  0.109181  2e-06  1.023382  0.0  0.097869  0.108034  -1.2e-05  1.022423  0.0
H  H12  1  0.70611395  0.03565725  0.88606674  1  0.094951  1.2e-05  0.955835  0.0  0.108416  -1e-06  1.023149  0.0  0.109236  3e-06  1.023354  0.0  0.097902  0.108092  -1.2e-05  1.022391  0.0
H  H13  1  0.46259866  0.11172042  0.06026215  1  0.097819  3.2e-05  0.942933  0.0  0.1151  -5e-06  1.002661  0.0  0.115544  -3e-06  1.003383  0.0  0.098148  0.114479  -1.2e-05  1.002908  0.0
H  H14  1  0.53738989  0.88827892  0.93973322  1  0.097827  3.2e-05  0.942897  0.0  0.115099  -5e-06  1.002633  0.0  0.115548  -3e-06  1.003347  0.0  0.09816  0.114477  -1.2e-05  1.002883  0.0
H  H15  1  0.35170717  0.73935992  0.28880762  1  0.105183  -0.000162  0.987047  0.0  0.11311  -0.000226  1.050446  0.0  0.11526  -0.000181  1.048052  0.0  0.120737  0.111052  -0.000252  1.053179  0.0
H  H16  1  0.64829278  0.26064044  0.71119294  1  0.105234  -0.000162  0.986959  0.0  0.113123  -0.000227  1.050409  0.0  0.115273  -0.000181  1.048014  0.0  0.120759  0.111065  -0.000252  1.053144  0.0
H  H17  1  0.66451128  0.13934743  0.24384533  1  0.099201  4.1e-05  0.978689  0.0  0.109102  -7.9e-05  1.040848  0.0  0.111116  -3.9e-05  1.040254  0.0  0.102379  0.107285  -0.000247  1.042352  0.0
H  H18  1  0.33548392  0.86065770  0.75614804  1  0.099185  4.3e-05  0.978773  0.0  0.109045  -7.9e-05  1.040966  0.0  0.111055  -3.9e-05  1.04037  0.0  0.102366  0.107233  -0.000247  1.042465  0.0
H  H19  1  0.83943006  0.98254168  0.43258407  1  0.101661  -0.000377  0.956901  0.0  0.104452  -8.1e-05  1.027837  0.0  0.107953  -6.7e-05  1.026963  0.0  0.102554  0.101522  -5.7e-05  1.029633  0.0
H  H20  1  0.16057278  0.01746109  0.56740875  1  0.101667  -0.000377  0.956939  0.0  0.104459  -8.1e-05  1.027883  0.0  0.10796  -6.7e-05  1.027007  0.0  0.102525  0.101526  -5.7e-05  1.029684  0.0
H  H21  1  0.74801664  0.71535302  0.54468399  1  0.08414  -0.000132  0.998847  0.0  0.087078  -0.000169  1.073343  0.0  0.089982  -0.00016  1.069451  0.0  0.114954  0.084757  -0.000191  1.076577  0.0
H  H22  1  0.25199701  0.28464627  0.45530515  1  0.084103  -0.000132  0.998939  0.0  0.087049  -0.000169  1.073406  0.0  0.089953  -0.00016  1.069516  0.0  0.114918  0.08474  -0.000191  1.076628  0.0
H  H23  1  0.86287754  0.41012717  0.51548222  1  0.394478  -0.000695  0.93184  -0.001  0.359871  -0.000271  1.004045  0.0  0.371486  -0.000285  0.987035  0.0  0.280415  0.351118  -0.000256  1.016715  0.0
H  H24  1  0.13712563  0.58987086  0.48451837  1  0.394467  -0.000694  0.931865  -0.001  0.359867  -0.000271  1.004057  0.0  0.371482  -0.000285  0.987047  0.0  0.280413  0.351113  -0.000256  1.016729  0.0
C  C25  1  0.80580990  0.39282968  0.29014900  1  0.64268  -0.004536  3.855742  -0.002  0.593036  -0.003023  4.155939  -0.002  0.631508  -0.001754  4.14808  -0.001  0.213422  0.56693  -0.003963  4.159881  -0.002
C  C26  1  0.19419641  0.60716720  0.70984943  1  0.642686  -0.004532  3.855748  -0.002  0.59307  -0.003024  4.155905  -0.002  0.631541  -0.001754  4.148043  -0.001  0.213419  0.566962  -0.003962  4.159853  -0.002
C  C27  1  0.86248051  0.35352278  0.15138799  1  -0.126082  -0.000836  3.748205  0.0  -0.10551  -0.000658  3.978069  0.0  -0.115879  -0.000558  3.999444  0.0  -0.02572  -0.098772  -0.000759  3.964181  0.0
C  C28  1  0.13752708  0.64647401  0.84861619  1  -0.126295  -0.000837  3.748037  0.0  -0.105728  -0.000658  3.977886  0.0  -0.116093  -0.000557  3.999259  0.0  -0.025812  -0.098991  -0.00076  3.964003  0.0
C  C29  1  0.03510282  0.25307916  0.11624078  1  0.04009  -0.001977  3.746609  -0.001  0.052043  -0.00079  3.998349  -0.001  0.056944  -0.0004  4.020887  0.0  -0.000456  0.048708  -0.000819  3.982292  -0.001
C  C30  1  0.96489665  0.74691185  0.88376560  1  0.040304  -0.001975  3.746291  -0.001  0.052264  -0.000788  3.998  -0.001  0.057164  -0.0004  4.020536  0.0  -0.00044  0.048928  -0.000819  3.981945  -0.001
C  C31  1  0.07369085  0.21552337  0.98556048  1  -0.133468  0.000448  3.760308  0.001  -0.151535  1e-05  4.009913  0.0  -0.157272  -6e-06  4.032728  0.0  -0.10338  -0.146016  -1.7e-05  3.989843  0.0
C  C32  1  0.92629975  0.78446887  0.01444386  1  -0.133451  0.000451  3.760217  0.001  -0.151506  1e-05  4.009829  0.0  -0.157239  -7e-06  4.032635  0.0  -0.103283  -0.145976  -1.7e-05  3.989763  0.0
C  C33  1  0.77941377  0.37545834  0.92617687  1  -0.104232  0.00064  3.777823  0.001  -0.125295  0.000156  4.043801  0.0  -0.129399  9e-05  4.063896  0.0  -0.105067  -0.121564  9.3e-05  4.031084  0.0
C  C34  1  0.22058944  0.62455009  0.07382661  1  -0.104274  0.000637  3.777508  0.001  -0.125298  0.000155  4.043498  0.0  -0.129399  9e-05  4.063589  0.0  -0.10505  -0.121569  9.3e-05  4.030779  0.0
C  C35  1  0.94779075  0.27560157  0.89216288  1  -0.036635  -0.001916  3.762158  -0.001  -0.05255  -0.000531  4.017207  0.0  -0.050402  -0.000223  4.035761  0.0  -0.090538  -0.054558  -0.000752  4.00339  0.0
C  C36  1  0.05220200  0.72439644  0.10784301  1  -0.03673  -0.001914  3.76209  -0.001  -0.052649  -0.000532  4.017128  0.0  -0.050502  -0.000222  4.035686  0.0  -0.090567  -0.054657  -0.000751  4.003303  0.0
C  C37  1  0.73872304  0.41280551  0.05519122  1  -0.052848  -0.001736  3.749607  -0.001  -0.077364  -0.000489  4.000639  0.0  -0.074203  -0.000219  4.01903  0.0  -0.084534  -0.080179  -0.000733  3.98835  0.0
C  C38  1  0.26127909  0.58719942  0.94481406  1  -0.052737  -0.001736  3.749463  -0.001  -0.07723  -0.000488  4.000437  0.0  -0.074057  -0.00022  4.018798  0.0  -0.084413  -0.080044  -0.000733  3.988153  0.0
C  C39  1  0.37051944  0.04279488  0.14909034  1  -0.210108  -0.0006  3.713478  -0.001  -0.25452  -0.000124  3.968626  0.0  -0.253417  -9.1e-05  3.979687  0.0  -0.152841  -0.255464  -0.000144  3.961783  0.0
C  C40  1  0.62947483  0.95720437  0.85090921  1  -0.210228  -0.000602  3.713602  -0.001  -0.254585  -0.000125  3.968702  0.0  -0.253502  -9.1e-05  3.979815  0.0  -0.15291  -0.255528  -0.000144  3.961858  0.0
C  C41  1  0.45826360  0.79903936  0.31636216  1  0.064724  -0.012588  3.611438  -0.009  0.0261  -0.004901  3.859777  -0.003  0.036026  -0.003103  3.875146  -0.002  0.042243  0.018558  -0.006333  3.851549  -0.004
C  C42  1  0.54172899  0.20096103  0.68363936  1  0.064652  -0.01259  3.611392  -0.009  0.026066  -0.004903  3.859763  -0.003  0.035994  -0.003105  3.875129  -0.002  0.042214  0.018516  -0.006334  3.851535  -0.004
C  C43  1  0.49178295  0.95258316  0.25285397  1  0.048403  0.003005  3.775092  0.005  0.077879  0.000424  4.011148  0.001  0.072459  0.000289  4.033558  0.001  -0.012346  0.081359  0.000178  3.997662  0.001
C  C44  1  0.50821422  0.04741728  0.74714202  1  0.048534  0.003004  3.775015  0.005  0.077927  0.000425  4.011153  0.001  0.072507  0.000289  4.033557  0.001  -0.012318  0.081408  0.000178  3.99767  0.001
C  C45  1  0.63298046  0.02047137  0.29305483  1  -0.05659  -0.013555  3.680092  -0.009  -0.082873  -0.005407  3.922039  -0.003  -0.076971  -0.002954  3.938619  -0.002  -0.073565  -0.088519  -0.007817  3.914011  -0.004
C  C46  1  0.36701968  0.97952908  0.70693979  1  -0.056549  -0.013564  3.680051  -0.009  -0.082762  -0.005407  3.922007  -0.003  -0.07685  -0.002957  3.938578  -0.002  -0.073486  -0.088408  -0.007819  3.913974  -0.004
C  C47  1  0.72903469  0.93412402  0.39763866  1  -0.110556  0.003338  3.74865  0.005  -0.120514  0.000476  4.003036  0.001  -0.128572  0.000345  4.023635  0.001  -0.084513  -0.116217  0.000183  3.992762  0.001
C  C48  1  0.27097433  0.06587764  0.60234865  1  -0.110574  0.003339  3.748599  0.005  -0.120558  0.000476  4.002962  0.001  -0.128616  0.000346  4.023556  0.001  -0.084525  -0.116261  0.000183  3.992695  0.001
C  C49  1  0.68118713  0.78382609  0.45989922  1  0.10887  -0.012929  3.668031  -0.009  0.075179  -0.005007  3.925377  -0.003  0.085081  -0.003277  3.941884  -0.002  0.041718  0.066761  -0.006582  3.918891  -0.004
C  C50  1  0.31882009  0.21617665  0.54009402  1  0.108869  -0.012929  3.668239  -0.009  0.075194  -0.005006  3.925542  -0.003  0.085098  -0.003279  3.942049  -0.002  0.041759  0.066769  -0.006583  3.91903  -0.004
S  S51  1  0.19006293  0.17509025  0.23671320  1  0.031229  -0.000179  2.474071  0.0  0.032746  -0.000149  2.819583  0.0  0.026723  -4.4e-05  2.823595  0.0  0.027569  0.037663  -0.000379  2.8168  0.0
S  S52  1  0.80992785  0.82490085  0.76329036  1  0.031146  -0.000178  2.473991  0.0  0.032674  -0.000149  2.819445  0.0  0.026654  -4.5e-05  2.823464  0.0  0.027541  0.037593  -0.000379  2.816663  0.0
N  N53  1  0.55020932  0.71519812  0.41856766  1  -0.235321  -0.013809  3.349098  -0.008  -0.184543  -0.010338  3.630672  -0.007  -0.211434  -0.009826  3.648352  -0.007  -0.333212  -0.169402  -0.011004  3.620083  -0.008
N  N54  1  0.44978908  0.28480344  0.58143090  1  -0.235353  -0.01381  3.349304  -0.008  -0.184566  -0.010339  3.630849  -0.007  -0.211455  -0.009825  3.648526  -0.007  -0.333238  -0.169407  -0.011004  3.620245  -0.008
O  O55  1  0.62520311  0.44563324  0.32622098  1  -0.554209  -0.020952  2.150142  -0.017  -0.527806  -0.007958  2.437431  -0.007  -0.568628  -0.008075  2.429144  -0.007  -0.297435  -0.49886  -0.006373  2.439917  -0.005
O  O56  1  0.37479431  0.55436365  0.67378059  1  -0.554213  -0.020951  2.150219  -0.017  -0.527797  -0.007958  2.437527  -0.007  -0.568619  -0.008076  2.429237  -0.007  -0.29742  -0.498857  -0.006374  2.440022  -0.005
O  O57  1  0.93710067  0.36725747  0.36506845  1  -0.629992  -0.001917  2.081322  -0.001  -0.559907  -0.000892  2.302796  -0.001  -0.586658  -0.000468  2.293237  0.0  -0.300776  -0.540667  -0.001254  2.308783  -0.001
O  O58  1  0.06290384  0.63274050  0.63493590  1  -0.629988  -0.001918  2.081439  -0.001  -0.559922  -0.000893  2.302883  -0.001  -0.586674  -0.000467  2.293325  0.0  -0.300772  -0.540674  -0.001254  2.308862  -0.001
O  O59  1  0.79212200  0.44434879  0.60189226  1  -0.819244  0.016259  1.925517  0.026  -0.777237  0.017209  2.122894  0.026  -0.799497  0.013835  2.08878  0.021  -0.578878  -0.759793  0.021152  2.147013  0.032
O  O60  1  0.20787803  0.55565039  0.39811048  1  -0.819245  0.016258  1.925568  0.026  -0.777249  0.017209  2.122886  0.026  -0.799516  0.013835  2.088785  0.021  -0.578897  -0.759804  0.021151  2.14701  0.032
