# generated using pymatgen
data_ZnH20C22(NO)4
_symmetry_space_group_name_H-M   'P 1'
_cell_length_a   9.97387298
_cell_length_b   15.20257843
_cell_length_c   22.55147695
_cell_angle_alpha   90.00005909
_cell_angle_beta   89.99990362
_cell_angle_gamma   92.67322316
_symmetry_Int_Tables_number   1
_chemical_formula_structural   ZnH20C22(NO)4
_chemical_formula_sum   'Zn4 H80 C88 N16 O16'
_cell_volume   3415.72745815
_cell_formula_units_Z   4
loop_
 _symmetry_equiv_pos_site_id
 _symmetry_equiv_pos_as_xyz
  1  'x, y, z'
loop_
 _atom_site_type_symbol
 _atom_site_label
 _atom_site_symmetry_multiplicity
 _atom_site_fract_x
 _atom_site_fract_y
 _atom_site_fract_z
 _atom_site_occupancy
 _atom_site_pbe_bader_charge
 _atom_site_pbe_bader_spin_density
 _atom_site_pbe_cm5_charge
 _atom_site_pbe_ddec_charge
 _atom_site_pbe_ddec_spin_density
 _atom_site_pbe_ddec_sum_bond_order
 _atom_site_pbe_magmom
Zn  Zn0  1  0.84716855  0.55120060  0.78804050  1  1.245615  0  0.686611  0.755561  0  2.420741  0
Zn  Zn1  1  0.65282990  0.94879910  0.28804065  1  1.244889  0  0.686623  0.755578  0  2.42074  0
Zn  Zn2  1  0.15282994  0.44880006  0.21195917  1  1.245504  0  0.68662  0.755563  0  2.42069  0
Zn  Zn3  1  0.34717151  0.05120025  0.71195858  1  1.245588  0  0.686639  0.755613  0  2.42069  0
H  H4  1  0.05557784  0.47206561  0.87142112  1  0.149219  0  0.119823  0.102834  0  1.008013  0
H  H5  1  0.44441905  0.02793558  0.37142031  1  0.149197  0  0.11982  0.102835  0  1.007926  0
H  H6  1  0.94442266  0.52793506  0.12857988  1  0.149197  0  0.119831  0.102868  0  1.00794  0
H  H7  1  0.55558245  0.97206509  0.62857936  1  0.149039  0  0.119828  0.102849  0  1.007954  0
H  H8  1  0.16946476  0.51837792  0.96378356  1  0.069998  0  0.110842  0.122348  0  1.011951  0
H  H9  1  0.33053181  0.98162379  0.46378315  1  0.069939  0  0.110872  0.122383  0  1.012023  0
H  H10  1  0.83053478  0.48162340  0.03621744  1  0.069985  0  0.110872  0.1224  0  1.012016  0
H  H11  1  0.66946974  0.01837754  0.53621652  1  0.069421  0  0.110875  0.122382  0  1.012041  0
H  H12  1  0.89744465  0.73406718  0.97137089  1  0.082835  0  0.108183  0.118983  0  1.021752  0
H  H13  1  0.60255321  0.76593411  0.47137094  1  0.082878  0  0.108202  0.119064  0  1.021724  0
H  H14  1  0.10255489  0.26593415  0.02862833  1  0.082847  0  0.108179  0.119009  0  1.021764  0
H  H15  1  0.39744619  0.23406524  0.52862739  1  0.082773  0  0.108179  0.119025  0  1.021769  0
H  H16  1  0.79531858  0.67548265  0.88057242  1  0.110817  0  0.120653  0.094539  0  0.995278  0
H  H17  1  0.70468062  0.82451851  0.38057244  1  0.110852  0  0.120606  0.094522  0  0.995298  0
H  H18  1  0.20468287  0.32451736  0.11942680  1  0.110819  0  0.120652  0.094541  0  0.995289  0
H  H19  1  0.29532088  0.17548216  0.61942590  1  0.110425  0  0.120621  0.094505  0  0.99528  0
H  H20  1  0.14442796  0.80014138  0.02869635  1  0.043571  0  0.105074  0.07858  0  0.961675  0
H  H21  1  0.35557008  0.69985773  0.52869542  1  0.043703  0  0.105088  0.078601  0  0.961634  0
H  H22  1  0.85557144  0.19985796  0.97130509  1  0.04371  0  0.105116  0.078641  0  0.961663  0
H  H23  1  0.64442932  0.30014161  0.47130381  1  0.043561  0  0.105083  0.078607  0  0.961672  0
H  H24  1  0.97568317  0.76414195  0.04452293  1  0.081178  0  0.116447  0.097674  0  0.980969  0
H  H25  1  0.52431622  0.73585807  0.54452227  1  0.081201  0  0.116458  0.097718  0  0.980946  0
H  H26  1  0.02431728  0.23585805  0.95547718  1  0.081187  0  0.116451  0.097703  0  0.980963  0
H  H27  1  0.47568418  0.26414128  0.45547696  1  0.081205  0  0.116444  0.097677  0  0.980984  0
H  H28  1  0.31839258  0.66520017  0.02356841  1  0.062931  0  0.105965  0.081987  0  0.957501  0
H  H29  1  0.18160356  0.83480025  0.52356904  1  0.063018  0  0.105965  0.081974  0  0.957476  0
H  H30  1  0.68160586  0.33479983  0.97643170  1  0.063025  0  0.105973  0.081964  0  0.95749  0
H  H31  1  0.81839598  0.16520107  0.47643152  1  0.062905  0  0.105979  0.081982  0  0.957445  0
H  H32  1  0.24020110  0.55948953  0.03772535  1  0.055637  0  0.118447  0.104964  0  0.980084  0
H  H33  1  0.25979800  0.94051091  0.53772599  1  0.055628  0  0.118435  0.104936  0  0.980091  0
H  H34  1  0.75979939  0.44051113  0.96227432  1  0.055627  0  0.118465  0.104977  0  0.980051  0
H  H35  1  0.74020346  0.05948909  0.46227412  1  0.055631  0  0.118458  0.104957  0  0.980063  0
H  H36  1  0.18458372  0.59479564  0.13791616  1  0.077755  0  0.106045  0.077664  0  1.051463  0
H  H37  1  0.31541496  0.90520429  0.63791629  1  0.07761  0  0.106053  0.077662  0  1.051474  0
H  H38  1  0.81541764  0.40520305  0.86208351  1  0.077645  0  0.106045  0.077668  0  1.051469  0
H  H39  1  0.68458649  0.09479572  0.36208338  1  0.077622  0  0.106064  0.077689  0  1.051477  0
H  H40  1  0.35686907  0.61677132  0.12567389  1  0.103648  0  0.11957  0.119997  0  0.993947  0
H  H41  1  0.14312870  0.88322925  0.62567413  1  0.103618  0  0.119545  0.119966  0  0.993956  0
H  H42  1  0.64313042  0.38322934  0.87432578  1  0.103644  0  0.119561  0.120002  0  0.993938  0
H  H43  1  0.85687380  0.11677142  0.37432509  1  0.103598  0  0.119567  0.120007  0  0.993919  0
H  H44  1  0.09077957  0.82389422  0.13299066  1  0.045411  0  0.118117  0.102838  0  0.983479  0
H  H45  1  0.40921809  0.67610504  0.63298967  1  0.045417  0  0.118143  0.102881  0  0.983455  0
H  H46  1  0.90921879  0.17610447  0.86701034  1  0.045414  0  0.11814  0.102866  0  0.983433  0
H  H47  1  0.59078332  0.32389430  0.36700956  1  0.045435  0  0.118139  0.102876  0  0.983459  0
H  H48  1  0.03070070  0.71308417  0.14274033  1  0.106262  0  0.11126  0.100918  0  0.995888  0
H  H49  1  0.46929801  0.78691642  0.64274026  1  0.106285  0  0.111228  0.100835  0  0.995977  0
H  H50  1  0.96929775  0.28691583  0.85725978  1  0.106285  0  0.111228  0.100854  0  0.995977  0
H  H51  1  0.53070244  0.21308358  0.35725940  1  0.106272  0  0.111267  0.100938  0  0.995901  0
H  H52  1  0.47135358  0.67331858  0.18141212  1  0.081712  0  0.113644  0.13361  0  1.006731  0
H  H53  1  0.02864695  0.82668141  0.68141197  1  0.081652  0  0.113647  0.133631  0  1.006729  0
H  H54  1  0.52864673  0.32667945  0.81858887  1  0.081719  0  0.113633  0.13357  0  1.006815  0
H  H55  1  0.97135464  0.17332057  0.31858726  1  0.081732  0  0.113644  0.133599  0  1.006828  0
H  H56  1  0.62983803  0.76688941  0.23930099  1  0.095976  0  0.119426  0.095751  0  0.986652  0
H  H57  1  0.87015968  0.73311154  0.73930007  1  0.095963  0  0.11944  0.095767  0  0.986642  0
H  H58  1  0.37016137  0.23310993  0.76069912  1  0.095988  0  0.11942  0.095744  0  0.986625  0
H  H59  1  0.12983890  0.26689044  0.26069827  1  0.095973  0  0.119423  0.095754  0  0.986673  0
H  H60  1  0.38155894  0.97763865  0.23529432  1  0.136416  0  0.117161  0.096689  0  1.001218  0
H  H61  1  0.11844039  0.52236142  0.73529389  1  0.136428  0  0.11717  0.096716  0  1.001228  0
H  H62  1  0.61844038  0.02235938  0.76470535  1  0.136381  0  0.117134  0.096676  0  1.001218  0
H  H63  1  0.88155701  0.47763793  0.26470534  1  0.136419  0  0.117154  0.096671  0  1.001307  0
H  H64  1  0.21269727  0.89631144  0.17578429  1  0.061549  0  0.107107  0.118402  0  1.017935  0
H  H65  1  0.28730123  0.60368788  0.67578289  1  0.06157  0  0.107102  0.118379  0  1.017936  0
H  H66  1  0.78730409  0.10368725  0.82421627  1  0.061518  0  0.107078  0.118362  0  1.017941  0
H  H67  1  0.71269603  0.39630948  0.32421456  1  0.061138  0  0.107108  0.118414  0  1.017941  0
H  H68  1  0.69194040  0.33092506  0.68430448  1  0.09312  0  0.101569  0.105975  0  1.005155  0
H  H69  1  0.80806165  0.16907740  0.18430520  1  0.093065  0  0.101594  0.106023  0  1.005136  0
H  H70  1  0.30805800  0.66907428  0.31569474  1  0.093136  0  0.101576  0.10598  0  1.005192  0
H  H71  1  0.19193998  0.83092524  0.81569402  1  0.093075  0  0.101596  0.105993  0  1.005157  0
H  H72  1  0.66580891  0.19093419  0.62645679  1  0.053886  0  0.086255  0.082067  0  1.062061  0
H  H73  1  0.83418921  0.30906621  0.12645803  1  0.053858  0  0.086219  0.081994  0  1.062138  0
H  H74  1  0.33419541  0.80906384  0.37354155  1  0.053924  0  0.086252  0.082056  0  1.06204  0
H  H75  1  0.16580331  0.69093510  0.87354119  1  0.053846  0  0.086231  0.08201  0  1.062091  0
H  H76  1  0.85187209  0.08520959  0.62636002  1  0.085  0  0.095451  0.095278  0  1.02218  0
H  H77  1  0.64812822  0.41479345  0.12636014  1  0.08495  0  0.095453  0.095289  0  1.022159  0
H  H78  1  0.14813447  0.91479174  0.37364009  1  0.084937  0  0.095432  0.095283  0  1.022101  0
H  H79  1  0.35186530  0.58520787  0.87363997  1  0.084941  0  0.095427  0.09531  0  1.02211  0
H  H80  1  0.07992604  0.25721146  0.74354116  1  0.104426  0  0.100951  0.108176  0  1.026911  0
H  H81  1  0.42007620  0.24278757  0.24354052  1  0.104424  0  0.100937  0.108116  0  1.02689  0
H  H82  1  0.92007250  0.74278986  0.25646161  1  0.104591  0  0.100938  0.108134  0  1.026987  0
H  H83  1  0.57992630  0.75721310  0.75646225  1  0.104466  0  0.100903  0.108105  0  1.027047  0
C  C84  1  0.39800469  0.91030909  0.22116795  1  0.453527  0  0.03802  0.102541  0  3.993663  0
C  C85  1  0.10199565  0.58969030  0.72116712  1  0.453524  0  0.038015  0.102505  0  3.99377  0
C  C86  1  0.60199677  0.08969092  0.77883084  1  0.453297  0  0.038012  0.102557  0  3.993718  0
C  C87  1  0.89800084  0.41031036  0.27883210  1  0.453241  0  0.037958  0.102496  0  3.993824  0
C  C88  1  0.02327069  0.52888604  0.89630777  1  0.414609  0  0.043493  0.100698  0  3.970929  0
C  C89  1  0.47672604  0.97111425  0.39630724  1  0.414792  0  0.043516  0.100783  0  3.970724  0
C  C90  1  0.97672776  0.47111396  0.10369279  1  0.41509  0  0.043493  0.100669  0  3.970806  0
C  C91  1  0.52327546  0.02888641  0.60369110  1  0.414969  0  0.043478  0.100722  0  3.970837  0
C  C92  1  0.08655495  0.55597799  0.94814250  1  0.011638  0  -0.099589  -0.244451  0  3.97813  0
C  C93  1  0.41344053  0.94402172  0.44814244  1  0.011516  0  -0.099633  -0.244547  0  3.978235  0
C  C94  1  0.91344349  0.44402201  0.05185806  1  0.01126  0  -0.099644  -0.24456  0  3.97825  0
C  C95  1  0.58655992  0.05597829  0.55185767  1  0.011999  0  -0.099626  -0.244523  0  3.978333  0
C  C96  1  0.04580585  0.63204233  0.97857247  1  0.45075  0  0.121036  0.225226  0  4.050904  0
C  C97  1  0.45419062  0.86795874  0.47857278  1  0.450651  0  0.121109  0.225258  0  4.051109  0
C  C98  1  0.95419269  0.36795899  0.02142764  1  0.450636  0  0.121046  0.225265  0  4.050896  0
C  C99  1  0.54580983  0.13204126  0.52142689  1  0.45067  0  0.121104  0.225272  0  4.05095  0
C  C100  1  0.93656746  0.67468582  0.95258672  1  -0.052106  0  -0.107126  -0.258332  0  3.990908  0
C  C101  1  0.56342842  0.82531478  0.45258684  1  -0.052096  0  -0.107196  -0.258493  0  3.991186  0
C  C102  1  0.06343098  0.32531419  0.04741295  1  -0.052082  0  -0.107102  -0.258349  0  3.990929  0
C  C103  1  0.43657103  0.17468523  0.54741238  1  -0.05199  0  -0.107179  -0.258451  0  3.99116  0
C  C104  1  0.87821675  0.64235552  0.90104022  1  0.467635  0  0.041045  0.102926  0  3.998011  0
C  C105  1  0.62178037  0.85764566  0.40103988  1  0.467727  0  0.041046  0.102896  0  3.998222  0
C  C106  1  0.12178374  0.35764514  0.09895990  1  0.467657  0  0.041025  0.102898  0  3.998055  0
C  C107  1  0.37821807  0.14235435  0.59895846  1  0.468122  0  0.041045  0.102955  0  3.998132  0
C  C108  1  0.08076722  0.74988440  0.05232053  1  0.278351  0  -0.053286  -0.076977  0  3.92989  0
C  C109  1  0.41923087  0.75011672  0.55231958  1  0.278303  0  -0.053303  -0.077097  0  3.929947  0
C  C110  1  0.91923122  0.25011560  0.94768047  1  0.278285  0  -0.053331  -0.077112  0  3.930029  0
C  C111  1  0.58076958  0.24988328  0.44767920  1  0.278303  0  -0.053311  -0.07706  0  3.930021  0
C  C112  1  0.23637357  0.62965600  0.04801872  1  0.282409  0  -0.052413  -0.073319  0  3.902998  0
C  C113  1  0.26362650  0.87034446  0.54801753  1  0.282314  0  -0.052369  -0.073265  0  3.902989  0
C  C114  1  0.76362593  0.37034466  0.95198140  1  0.282333  0  -0.052452  -0.073286  0  3.902934  0
C  C115  1  0.73637495  0.12965555  0.45198081  1  0.282413  0  -0.052442  -0.073274  0  3.902995  0
C  C116  1  0.25743611  0.63898978  0.11467155  1  0.304309  0  -0.058726  -0.101395  0  3.901166  0
C  C117  1  0.24256266  0.86101012  0.61467215  1  0.3045  0  -0.058696  -0.101346  0  3.901051  0
C  C118  1  0.74256325  0.36100891  0.88532767  1  0.304459  0  -0.058699  -0.10138  0  3.901093  0
C  C119  1  0.75743875  0.13898923  0.38532841  1  0.304466  0  -0.058733  -0.101452  0  3.901139  0
C  C120  1  0.10498999  0.75616724  0.11897336  1  0.308559  0  -0.054275  -0.094463  0  3.911759  0
C  C121  1  0.39500781  0.74383332  0.61897243  1  0.308492  0  -0.054213  -0.094353  0  3.911837  0
C  C122  1  0.89500846  0.24383276  0.88102719  1  0.308495  0  -0.054233  -0.094386  0  3.911824  0
C  C123  1  0.60499168  0.25616734  0.38102635  1  0.308609  0  -0.054304  -0.094551  0  3.911861  0
C  C124  1  0.32653569  0.77625981  0.16924760  1  0.429503  0  0.124112  0.225008  0  4.056122  0
C  C125  1  0.17346383  0.72373951  0.66924638  1  0.429603  0  0.124155  0.225066  0  4.056098  0
C  C126  1  0.67346581  0.22374085  0.83075251  1  0.429524  0  0.124134  0.225031  0  4.056077  0
C  C127  1  0.82653566  0.27626116  0.33075196  1  0.429505  0  0.124128  0.225065  0  4.056092  0
C  C128  1  0.44736846  0.74117321  0.19005771  1  0.012602  0  -0.102006  -0.248587  0  3.973465  0
C  C129  1  0.05263209  0.75882745  0.69005704  1  0.012547  0  -0.102058  -0.248688  0  3.973518  0
C  C130  1  0.55263391  0.25882547  0.80994107  1  0.012612  0  -0.101996  -0.24856  0  3.973558  0
C  C131  1  0.94737037  0.24117256  0.30994262  1  0.012618  0  -0.102019  -0.248604  0  3.973419  0
C  C132  1  0.53611273  0.79283379  0.22349276  1  0.463604  0  0.038161  0.099051  0  3.99729  0
C  C133  1  0.96388701  0.70716649  0.72349263  1  0.463632  0  0.038196  0.099079  0  3.997287  0
C  C134  1  0.46388877  0.20716688  0.77650647  1  0.463643  0  0.03819  0.099108  0  3.997246  0
C  C135  1  0.03611362  0.29283615  0.27650615  1  0.463647  0  0.038197  0.099075  0  3.99732  0
C  C136  1  0.30379307  0.86377978  0.18736087  1  -0.00974  0  -0.105403  -0.25231  0  3.991926  0
C  C137  1  0.19620544  0.63622022  0.68736001  1  -0.009759  0  -0.105423  -0.252301  0  3.991997  0
C  C138  1  0.69620834  0.13621956  0.81263792  1  -0.009497  0  -0.105368  -0.25228  0  3.991907  0
C  C139  1  0.80379397  0.36377913  0.31263877  1  -0.009137  0  -0.105416  -0.252375  0  3.992093  0
C  C140  1  0.90375277  0.38578849  0.75249109  1  1.552041  0  0.19551  0.55674  0  4.229203  0
C  C141  1  0.59624789  0.11421209  0.25249193  1  1.551714  0  0.195546  0.556827  0  4.229054  0
C  C142  1  0.09624362  0.61421085  0.24750991  1  1.552042  0  0.195482  0.556697  0  4.229213  0
C  C143  1  0.40375361  0.88578858  0.74750730  1  1.551727  0  0.195449  0.556694  0  4.229164  0
C  C144  1  0.88732457  0.30241052  0.71736210  1  -0.01998  0  -0.025709  -0.041395  0  3.99188  0
C  C145  1  0.61267946  0.19759330  0.21736121  1  -0.019993  0  -0.025864  -0.04176  0  3.992164  0
C  C146  1  0.11267684  0.69758882  0.28264023  1  -0.019961  0  -0.025756  -0.041497  0  3.991874  0
C  C147  1  0.38731917  0.80240933  0.78263934  1  -0.020022  0  -0.025737  -0.041492  0  3.991915  0
C  C148  1  0.77078688  0.28371493  0.68401621  1  -0.049899  0  -0.08589  -0.08721  0  3.971115  0
C  C149  1  0.72921804  0.21628556  0.18401791  1  -0.049402  0  -0.085881  -0.087158  0  3.971079  0
C  C150  1  0.22921243  0.71628310  0.31598435  1  -0.049762  0  -0.085855  -0.087156  0  3.9711  0
C  C151  1  0.27078150  0.78371576  0.81598221  1  -0.049311  0  -0.085914  -0.087162  0  3.971133  0
C  C152  1  0.75718855  0.20564960  0.65167728  1  -0.030306  0  -0.104452  -0.099457  0  4.042882  0
C  C153  1  0.74281640  0.29434953  0.15167858  1  -0.030397  0  -0.10448  -0.099416  0  4.042722  0
C  C154  1  0.24281673  0.79434777  0.34832238  1  -0.030603  0  -0.104452  -0.099422  0  4.042586  0
C  C155  1  0.25717917  0.70565245  0.84832064  1  -0.02974  0  -0.104417  -0.099335  0  4.042589  0
C  C156  1  0.85997852  0.14638116  0.65169940  1  -0.074404  0  -0.086912  -0.090993  0  3.979291  0
C  C157  1  0.64002543  0.35361796  0.15170170  1  -0.073792  0  -0.086929  -0.09106  0  3.979398  0
C  C158  1  0.14002480  0.85361687  0.34830072  1  -0.074167  0  -0.086948  -0.091134  0  3.979171  0
C  C159  1  0.35997106  0.64638270  0.84829885  1  -0.074568  0  -0.086925  -0.091193  0  3.979146  0
C  C160  1  0.97702340  0.16461227  0.68473134  1  -0.028226  0  -0.026741  -0.043305  0  3.988532  0
C  C161  1  0.52297847  0.33538756  0.18473150  1  -0.028791  0  -0.026656  -0.043394  0  3.988781  0
C  C162  1  0.02297905  0.83538774  0.31527054  1  -0.028291  0  -0.026654  -0.043177  0  3.98863  0
C  C163  1  0.47701998  0.66461244  0.81526994  1  -0.028648  0  -0.026657  -0.043192  0  3.98859  0
C  C164  1  0.98944772  0.24253383  0.71771723  1  -0.070946  0  -0.08396  -0.111021  0  3.946567  0
C  C165  1  0.51055321  0.25746868  0.21771912  1  -0.070966  0  -0.083831  -0.11064  0  3.946306  0
C  C166  1  0.01054968  0.75746552  0.28228465  1  -0.071148  0  -0.083923  -0.11094  0  3.946526  0
C  C167  1  0.48944638  0.74253330  0.78228276  1  -0.071093  0  -0.083905  -0.110933  0  3.946607  0
C  C168  1  0.08972120  0.10216735  0.68350379  1  1.585239  0  0.190549  0.562022  0  4.243191  0
C  C169  1  0.41028222  0.39783093  0.18350593  1  1.586109  0  0.190571  0.562347  0  4.243139  0
C  C170  1  0.91027998  0.89782870  0.31649720  1  1.585407  0  0.190531  0.562211  0  4.242873  0
C  C171  1  0.58971850  0.60217302  0.81649685  1  1.585359  0  0.190521  0.562217  0  4.243032  0
N  N172  1  0.51465765  0.87697351  0.23893879  1  -1.271172  0  -0.355879  -0.274561  0  3.594071  0
N  N173  1  0.98534098  0.62302613  0.73893771  1  -1.271939  0  -0.355899  -0.274566  0  3.594111  0
N  N174  1  0.48534275  0.12302584  0.76105955  1  -1.271973  0  -0.35588  -0.274636  0  3.594095  0
N  N175  1  0.01465450  0.37697453  0.26106152  1  -1.271954  0  -0.355841  -0.27451  0  3.594165  0
N  N176  1  0.91998903  0.57083800  0.87216091  1  -1.275228  0  -0.350117  -0.271105  0  3.60679  0
N  N177  1  0.58001020  0.92916314  0.37216066  1  -1.275261  0  -0.350091  -0.271073  0  3.606778  0
N  N178  1  0.08001142  0.42916201  0.12783875  1  -1.275234  0  -0.350115  -0.271076  0  3.606784  0
N  N179  1  0.41999235  0.07083818  0.62783857  1  -1.275211  0  -0.350108  -0.271143  0  3.60679  0
N  N180  1  0.10690990  0.66223660  0.02948429  1  -1.136742  0  -0.280404  -0.08549  0  3.590442  0
N  N181  1  0.39308723  0.83776384  0.52948387  1  -1.136793  0  -0.280437  -0.085407  0  3.590568  0
N  N182  1  0.89308955  0.33776341  0.97051582  1  -1.136736  0  -0.280404  -0.085489  0  3.590484  0
N  N183  1  0.60691331  0.16223749  0.47051535  1  -1.136764  0  -0.280356  -0.085394  0  3.590495  0
N  N184  1  0.23862612  0.72892927  0.13400868  1  -1.20232  0  -0.280946  -0.048879  0  3.603063  0
N  N185  1  0.26137253  0.77107000  0.63400831  1  -1.202367  0  -0.280982  -0.048921  0  3.603165  0
N  N186  1  0.76137219  0.27106876  0.86599143  1  -1.202423  0  -0.280972  -0.048895  0  3.60317  0
N  N187  1  0.73862887  0.22892935  0.36599135  1  -1.202325  0  -0.280938  -0.048837  0  3.603066  0
O  O188  1  0.80734169  0.43965308  0.74719038  1  -1.15917  0  -0.336889  -0.541582  0  2.308128  0
O  O189  1  0.69265780  0.06034486  0.24718978  1  -1.159262  0  -0.336877  -0.541577  0  2.308088  0
O  O190  1  0.19265871  0.56034627  0.25281017  1  -1.159082  0  -0.336862  -0.541527  0  2.308049  0
O  O191  1  0.30734164  0.93965514  0.75280944  1  -1.159139  0  -0.336856  -0.541554  0  2.308088  0
O  O192  1  0.00512805  0.40028532  0.78496646  1  -1.198427  0  -0.335676  -0.580683  0  2.140979  0
O  O193  1  0.49487117  0.09971574  0.28496655  1  -1.198432  0  -0.335663  -0.580682  0  2.140936  0
O  O194  1  0.99487035  0.59971402  0.21503409  1  -1.198473  0  -0.335668  -0.580663  0  2.140991  0
O  O195  1  0.50513028  0.90028427  0.71503400  1  -1.19848  0  -0.335608  -0.580602  0  2.140978  0
O  O196  1  0.19337264  0.12743268  0.71559390  1  -1.185819  0  -0.348554  -0.572894  0  2.328577  0
O  O197  1  0.30662970  0.37256631  0.21559432  1  -1.185878  0  -0.348573  -0.573014  0  2.328546  0
O  O198  1  0.80662872  0.87256601  0.28440976  1  -1.185965  0  -0.348543  -0.572985  0  2.328642  0
O  O199  1  0.69337084  0.62743501  0.78441111  1  -1.185957  0  -0.348507  -0.572932  0  2.328754  0
O  O200  1  0.08183180  0.03381735  0.65266766  1  -1.19644  0  -0.345634  -0.570672  0  2.085953  0
O  O201  1  0.41816467  0.46618023  0.15266894  1  -1.197192  0  -0.345661  -0.570837  0  2.086061  0
O  O202  1  0.91817394  0.96618661  0.34733379  1  -1.196463  0  -0.345654  -0.570812  0  2.085653  0
O  O203  1  0.58182648  0.53381582  0.84733427  1  -1.196398  0  -0.345698  -0.570871  0  2.085687  0
