# generated using pymatgen
data_AlH5C10SO7
_symmetry_space_group_name_H-M   'P 1'
_cell_length_a   6.61123934
_cell_length_b   11.23082329
_cell_length_c   12.74975424
_cell_angle_alpha   72.51707067
_cell_angle_beta   74.59050831
_cell_angle_gamma   70.79482035
_symmetry_Int_Tables_number   1
_chemical_formula_structural   AlH5C10SO7
_chemical_formula_sum   'Al2 H10 C20 S2 O14'
_cell_volume   837.91925669
_cell_formula_units_Z   2
loop_
 _symmetry_equiv_pos_site_id
 _symmetry_equiv_pos_as_xyz
  1  'x, y, z'
loop_
 _atom_site_type_symbol
 _atom_site_label
 _atom_site_symmetry_multiplicity
 _atom_site_fract_x
 _atom_site_fract_y
 _atom_site_fract_z
 _atom_site_occupancy
 _atom_site_pbe_bader_charge
 _atom_site_pbe_bader_spin_density
 _atom_site_pbe_cm5_charge
 _atom_site_pbe_ddec_charge
 _atom_site_pbe_ddec_spin_density
 _atom_site_pbe_ddec_sum_bond_order
 _atom_site_pbe_magmom
Al  Al0  1  0.49352479  0.48945182  0.51381760  1  2.503866  0  0.393118  1.638658  0  2.596407  0
Al  Al1  1  0.99389814  0.49047803  0.51051070  1  2.503316  0  0.398583  1.637687  0  2.570687  0
H  H2  1  0.21944070  0.39525746  0.64827442  1  0.626268  0  0.355291  0.432345  0  0.849964  0
H  H3  1  0.68150464  0.65423782  0.44574878  1  0.604242  0  0.342115  0.413361  0  0.891416  0
H  H4  1  0.23910068  0.51123685  0.86423426  1  0.098103  0  0.112493  0.131272  0  1.013996  0
H  H5  1  0.75773530  0.46243604  0.16445081  1  0.129748  0  0.115283  0.138338  0  1.004654  0
H  H6  1  0.26281376  0.25044007  0.35965176  1  0.10452  0  0.099752  0.114972  0  1.069161  0
H  H7  1  0.45027651  0.79260285  0.34195746  1  0.051104  0  0.102739  0.116189  0  1.050557  0
H  H8  1  0.75165486  0.77711009  0.56621764  1  0.642986  0  0.312523  0.349337  0  0.969554  0
H  H9  1  0.55917296  0.20264092  0.56697666  1  0.62801  0  0.31701  0.35621  0  0.967397  0
H  H10  1  0.58486005  0.25462116  0.23949474  1  0.589049  0  0.306947  0.330815  0  0.953405  0
H  H11  1  0.76464423  0.82530385  0.23082640  1  0.61186  0  0.33225  0.356163  0  0.885556  0
C  C12  1  0.88016560  0.26489940  0.50095216  1  1.474962  0  0.264703  0.657557  0  4.037748  0
C  C13  1  0.64481196  0.47451015  0.71228430  1  1.573783  0  0.261178  0.65246  0  4.132482  0
C  C14  1  0.11836415  0.72566670  0.49427646  1  1.496113  0  0.264438  0.664075  0  4.052909  0
C  C15  1  0.34836878  0.50194935  0.31514816  1  1.61143  0  0.255971  0.6317  0  4.170863  0
C  C16  1  0.38413258  0.49643426  0.89658983  1  0.01511  0  -0.084898  -0.127465  0  3.962614  0
C  C17  1  0.61335126  0.47587274  0.13194419  1  0.049781  0  -0.085892  -0.139775  0  3.976615  0
C  C18  1  0.59050124  0.47667075  0.83112023  1  -0.108777  0  -0.015566  -0.113762  0  3.961715  0
C  C19  1  0.40603913  0.49620356  0.19715908  1  -0.213223  0  -0.021357  -0.14136  0  4.00402  0
C  C20  1  0.60577703  0.47569896  0.02246862  1  -0.189504  0  -0.016055  -0.002096  0  4.049442  0
C  C21  1  0.39228724  0.49592286  0.00603641  1  -0.141248  0  -0.016292  -0.001852  0  4.048306  0
C  C22  1  0.94108609  0.13417361  0.48117596  1  0.037453  0  -0.029808  -0.235006  0  3.929524  0
C  C23  1  0.15276586  0.07659143  0.42047788  1  -0.009115  0  -0.008645  0.090031  0  3.985606  0
C  C24  1  0.78506009  0.06278149  0.52509673  1  0.569671  0  0.095888  0.222833  0  4.023587  0
C  C25  1  0.30299669  0.14896610  0.35828208  1  0.055354  0  -0.120994  -0.282411  0  4.015539  0
C  C26  1  0.49953492  0.09590846  0.29515232  1  0.473311  0  0.068693  0.218336  0  4.089487  0
C  C27  1  0.05619458  0.86730917  0.47673294  1  -0.005476  0  -0.033516  -0.2344  0  3.957555  0
C  C28  1  0.84443669  0.92829717  0.52411102  1  0.606265  0  0.094273  0.221394  0  4.032609  0
C  C29  1  0.20923695  0.94296650  0.41728728  1  0.105079  0  -0.012388  0.087415  0  3.994129  0
C  C30  1  0.40976286  0.89167549  0.35062563  1  -0.020102  0  -0.12577  -0.299622  0  4.044329  0
C  C31  1  0.55426631  0.96427226  0.29122631  1  0.43829  0  0.068129  0.217144  0  4.106547  0
S  S32  1  0.79495407  0.45663683  0.90206688  1  0.254637  0  0.101195  0.135803  0  2.751688  0
S  S33  1  0.20224963  0.51514983  0.12617258  1  0.262721  0  0.103947  0.142565  0  2.763984  0
O  O34  1  0.67442587  0.31671526  0.53521839  1  -1.277013  0  -0.244338  -0.625641  0  2.413843  0
O  O35  1  0.84594879  0.45660250  0.66540346  1  -1.261102  0  -0.243511  -0.611802  0  2.338025  0
O  O36  1  0.96539661  0.66717156  0.51997281  1  -1.26959  0  -0.247843  -0.624193  0  2.362029  0
O  O37  1  0.50518681  0.47980136  0.36463389  1  -1.257402  0  -0.233596  -0.56563  0  2.323433  0
O  O38  1  0.31902680  0.66360807  0.48644607  1  -1.274621  0  -0.234323  -0.600446  0  2.423957  0
O  O39  1  0.14592598  0.52798956  0.35891455  1  -1.25423  0  -0.239618  -0.589493  0  2.348658  0
O  O40  1  0.02168290  0.32435289  0.48895904  1  -1.261502  0  -0.224484  -0.558118  0  2.34941  0
O  O41  1  0.48611176  0.49133363  0.66542213  1  -1.254021  0  -0.237691  -0.587636  0  2.314239  0
O  O42  1  0.25068283  0.42391150  0.56732476  1  -1.431065  0  -0.446518  -0.980694  0  2.170754  0
O  O43  1  0.73071029  0.56017042  0.46104709  1  -1.415082  0  -0.450788  -0.987039  0  2.206453  0
O  O44  1  0.68750944  0.86764661  0.57617943  1  -1.137117  0  -0.340816  -0.403619  0  2.297269  0
O  O45  1  0.57897381  0.10823749  0.57459261  1  -1.110833  0  -0.335511  -0.394138  0  2.298771  0
O  O46  1  0.64603334  0.16450217  0.23357988  1  -1.108621  0  -0.35944  -0.423587  0  2.286997  0
O  O47  1  0.74910139  0.91598539  0.22636658  1  -1.11739  0  -0.356863  -0.426877  0  2.253224  0
