# generated using pymatgen
data_Y2P2H16C14N2O19
_symmetry_space_group_name_H-M   'P 1'
_cell_length_a   11.48036449
_cell_length_b   14.57674563
_cell_length_c   16.32052068
_cell_angle_alpha   90.00046469
_cell_angle_beta   89.99999142
_cell_angle_gamma   90.00025227
_symmetry_Int_Tables_number   1
_chemical_formula_structural   Y2P2H16C14N2O19
_chemical_formula_sum   'Y8 P8 H64 C56 N8 O76'
_cell_volume   2731.17961151
_cell_formula_units_Z   4
loop_
 _symmetry_equiv_pos_site_id
 _symmetry_equiv_pos_as_xyz
  1  'x, y, z'
loop_
 _atom_site_type_symbol
 _atom_site_label
 _atom_site_symmetry_multiplicity
 _atom_site_fract_x
 _atom_site_fract_y
 _atom_site_fract_z
 _atom_site_occupancy
 _atom_site_pbe_bader_charge
 _atom_site_pbe_bader_spin_density
 _atom_site_pbe_cm5_charge
 _atom_site_pbe_ddec_charge
 _atom_site_pbe_ddec_spin_density
 _atom_site_pbe_ddec_sum_bond_order
 _atom_site_pbe_magmom
Y  Y0  1  0.72539227  0.25973189  0.56693502  1  2.287571  0  1.273012  1.771808  0  2.43548  0
Y  Y1  1  0.77461075  0.74026701  0.06693678  1  2.287562  0  1.273049  1.771812  0  2.435535  0
Y  Y2  1  0.27460917  0.75973121  0.93306856  1  2.287599  0  1.273041  1.771852  0  2.435353  0
Y  Y3  1  0.22539156  0.24026723  0.43306670  1  2.287555  0  1.27306  1.771815  0  2.435491  0
Y  Y4  1  0.76168273  0.20128442  0.94675234  1  2.295239  0  1.291091  1.784318  0  2.45004  0
Y  Y5  1  0.73832283  0.79871313  0.44674963  1  2.295232  0  1.291103  1.784323  0  2.450001  0
Y  Y6  1  0.23832100  0.70128771  0.55324897  1  2.295201  0  1.291156  1.784443  0  2.449848  0
Y  Y7  1  0.26168242  0.29871552  0.05324876  1  2.295157  0  1.291134  1.784315  0  2.450067  0
P  P8  1  0.73191890  0.18405274  0.17371077  1  3.395451  0  0.37701  1.318389  0  5.356876  0
P  P9  1  0.76807278  0.81594440  0.67370936  1  3.395485  0  0.37714  1.318662  0  5.3568  0
P  P10  1  0.26807090  0.68405655  0.32629353  1  3.39511  0  0.377117  1.318653  0  5.356664  0
P  P11  1  0.23192288  0.31594504  0.82629156  1  3.395439  0  0.377047  1.318327  0  5.35674  0
P  P12  1  0.67805782  0.04606840  0.45669144  1  3.373818  0  0.382976  1.347891  0  5.294091  0
P  P13  1  0.82194164  0.95392719  0.95669164  1  3.373997  0  0.382971  1.348022  0  5.293966  0
P  P14  1  0.32193904  0.54607051  0.04331002  1  3.374249  0  0.383025  1.348019  0  5.294113  0
P  P15  1  0.17805306  0.45392988  0.54331028  1  3.373737  0  0.383032  1.348124  0  5.293748  0
H  H16  1  0.58809784  0.24527430  0.24476511  1  0.627172  0  0.346371  0.410008  0  0.860616  0
H  H17  1  0.91189643  0.75472348  0.74476079  1  0.627241  0  0.346442  0.410077  0  0.860609  0
H  H18  1  0.41189229  0.74528071  0.25523657  1  0.627164  0  0.346358  0.409988  0  0.8607  0
H  H19  1  0.08810760  0.25471818  0.75522989  1  0.627067  0  0.346337  0.409892  0  0.860728  0
H  H20  1  0.52529695  0.96200716  0.46109904  1  0.661248  0  0.310963  0.381867  0  0.95966  0
H  H21  1  0.97470426  0.03799052  0.96109687  1  0.661266  0  0.310899  0.381768  0  0.959785  0
H  H22  1  0.47470573  0.46201359  0.03889440  1  0.661309  0  0.31095  0.381891  0  0.959626  0
H  H23  1  0.02529420  0.53799431  0.53890204  1  0.661233  0  0.310971  0.381856  0  0.959641  0
H  H24  1  0.71029059  0.48169072  0.53195839  1  0.656735  0  0.349913  0.442307  0  0.829391  0
H  H25  1  0.78970286  0.51830513  0.03195670  1  0.656681  0  0.349917  0.442234  0  0.829477  0
H  H26  1  0.28970687  0.98169658  0.96804190  1  0.656673  0  0.349877  0.442249  0  0.829473  0
H  H27  1  0.21028775  0.01830424  0.46803721  1  0.656916  0  0.349867  0.44218  0  0.829578  0
H  H28  1  0.72928726  0.44537510  0.62268330  1  0.647453  0  0.327845  0.41297  0  0.889766  0
H  H29  1  0.77070355  0.55462431  0.12268127  1  0.647532  0  0.327842  0.412999  0  0.889731  0
H  H30  1  0.27071870  0.94537252  0.87731734  1  0.647445  0  0.327863  0.413021  0  0.889686  0
H  H31  1  0.22928813  0.05462884  0.37731474  1  0.647498  0  0.327824  0.412933  0  0.889824  0
H  H32  1  0.75866415  0.97531573  0.30483017  1  0.520031  0  0.311533  0.249841  0  0.984745  0
H  H33  1  0.74133447  0.02468122  0.80483283  1  0.520077  0  0.311538  0.249898  0  0.984713  0
H  H34  1  0.24133773  0.47531796  0.19517012  1  0.520059  0  0.311542  0.249826  0  0.984788  0
H  H35  1  0.25866044  0.52468450  0.69517089  1  0.519953  0  0.311533  0.249831  0  0.984747  0
H  H36  1  0.13696922  0.83486815  0.25962403  1  0.585954  0  0.311223  0.302197  0  1.00025  0
H  H37  1  0.36302980  0.16513489  0.75962647  1  0.586349  0  0.311267  0.302251  0  1.000197  0
H  H38  1  0.86303100  0.33486265  0.24037095  1  0.586297  0  0.311206  0.302202  0  1.000267  0
H  H39  1  0.63697024  0.66513715  0.74037091  1  0.586321  0  0.311227  0.302182  0  1.00032  0
H  H40  1  0.65512822  0.03054039  0.19536210  1  0.098744  0  0.137798  0.1699  0  0.933484  0
H  H41  1  0.84486519  0.96945763  0.69536364  1  0.098735  0  0.137817  0.169945  0  0.933355  0
H  H42  1  0.34487117  0.53054701  0.30463802  1  0.098747  0  0.137788  0.169878  0  0.933479  0
H  H43  1  0.15512784  0.46945575  0.80464085  1  0.098789  0  0.137787  0.169871  0  0.933517  0
H  H44  1  0.80359998  0.02789934  0.17047685  1  0.116321  0  0.129966  0.157901  0  0.99236  0
H  H45  1  0.69639344  0.97209777  0.67047903  1  0.1162  0  0.129985  0.157916  0  0.9924  0
H  H46  1  0.19640026  0.52790087  0.32952264  1  0.116227  0  0.129942  0.157822  0  0.992413  0
H  H47  1  0.30360049  0.47209869  0.82952486  1  0.11626  0  0.129933  0.157811  0  0.9924  0
H  H48  1  0.59412681  0.08448432  0.32414802  1  0.097971  0  0.12883  0.152556  0  0.966835  0
H  H49  1  0.90586832  0.91551075  0.82414793  1  0.098043  0  0.128808  0.152495  0  0.966929  0
H  H50  1  0.40587288  0.58448861  0.17585310  1  0.097974  0  0.128825  0.152537  0  0.966862  0
H  H51  1  0.09412441  0.41551092  0.67585616  1  0.098188  0  0.128781  0.152495  0  0.966822  0
H  H52  1  0.70041809  0.16751003  0.35455053  1  0.115717  0  0.127132  0.149189  0  1.014618  0
H  H53  1  0.79957529  0.83248600  0.85454985  1  0.115602  0  0.127128  0.149149  0  1.014592  0
H  H54  1  0.29958119  0.66751368  0.14545120  1  0.115653  0  0.127115  0.149156  0  1.014574  0
H  H55  1  0.20041785  0.33248970  0.64544997  1  0.115699  0  0.127131  0.149173  0  1.014624  0
H  H56  1  0.89797274  0.14790844  0.31814904  1  0.137631  0  0.122539  0.132495  0  1.007931  0
H  H57  1  0.60201891  0.85209344  0.81815465  1  0.137615  0  0.122521  0.132525  0  1.007806  0
H  H58  1  0.10202469  0.64790694  0.18184887  1  0.137602  0  0.122554  0.132547  0  1.007857  0
H  H59  1  0.39797260  0.35209403  0.68185021  1  0.137692  0  0.122507  0.132453  0  1.007965  0
H  H60  1  0.89907608  0.04951847  0.38453014  1  0.120574  0  0.131993  0.128683  0  0.964573  0
H  H61  1  0.60092165  0.95048469  0.88453340  1  0.121174  0  0.131991  0.128713  0  0.964555  0
H  H62  1  0.10092777  0.54951636  0.11546522  1  0.120815  0  0.13201  0.128736  0  0.964525  0
H  H63  1  0.39907041  0.45048126  0.61546666  1  0.120767  0  0.132015  0.12873  0  0.964622  0
H  H64  1  0.99194622  0.13694599  0.17889118  1  0.116713  0  0.121399  0.122497  0  0.983628  0
H  H65  1  0.50804981  0.86305531  0.67889259  1  0.116782  0  0.121433  0.122512  0  0.983596  0
H  H66  1  0.00805376  0.63694131  0.32110542  1  0.116822  0  0.121429  0.122496  0  0.983645  0
H  H67  1  0.49194263  0.36305955  0.82110683  1  0.116821  0  0.121443  0.122524  0  0.983665  0
H  H68  1  0.13858721  0.05579226  0.09236551  1  0.144327  0  0.120538  0.134031  0  1.017757  0
H  H69  1  0.36141620  0.94421132  0.59236563  1  0.144304  0  0.120516  0.133988  0  1.017794  0
H  H70  1  0.86142190  0.55578446  0.40763296  1  0.144359  0  0.120479  0.133874  0  1.017821  0
H  H71  1  0.63858367  0.44421480  0.90763009  1  0.144406  0  0.120467  0.133857  0  1.017776  0
H  H72  1  0.20636528  0.89661607  0.13768512  1  0.186062  0  0.14018  0.121066  0  0.986781  0
H  H73  1  0.29363986  0.10338862  0.63768406  1  0.186015  0  0.140165  0.121054  0  0.986804  0
H  H74  1  0.79364399  0.39660663  0.36231275  1  0.186005  0  0.140158  0.121066  0  0.986707  0
H  H75  1  0.70636332  0.60338947  0.86230858  1  0.186037  0  0.140175  0.121022  0  0.986868  0
H  H76  1  0.99824781  0.90621105  0.34540581  1  0.209028  0  0.133121  0.121477  0  1.051996  0
H  H77  1  0.50174557  0.09379107  0.84540961  1  0.208938  0  0.133151  0.121538  0  1.05194  0
H  H78  1  0.00175107  0.40620797  0.15458845  1  0.208858  0  0.133186  0.121519  0  1.052056  0
H  H79  1  0.49824797  0.59379137  0.65458970  1  0.208872  0  0.133164  0.121517  0  1.052079  0
C  C80  1  0.73885214  0.06423123  0.20767433  1  -0.29285  0  -0.06622  -0.389813  0  3.760993  0
C  C81  1  0.76114128  0.93576689  0.70767747  1  -0.292566  0  -0.066266  -0.389866  0  3.760827  0
C  C82  1  0.26114483  0.56423471  0.29232481  1  -0.292656  0  -0.06624  -0.389786  0  3.76088  0
C  C83  1  0.23885331  0.43576725  0.79232494  1  -0.292785  0  -0.066199  -0.389691  0  3.76094  0
C  C84  1  0.68058838  0.09391674  0.35145233  1  -0.237167  0  -0.070263  -0.397818  0  3.74852  0
C  C85  1  0.81940849  0.90607926  0.85144973  1  -0.237132  0  -0.070289  -0.397773  0  3.748472  0
C  C86  1  0.31941137  0.59391912  0.14854887  1  -0.237177  0  -0.070272  -0.397848  0  3.748547  0
C  C87  1  0.18058593  0.40608155  0.64855062  1  -0.237405  0  -0.070225  -0.39785  0  3.748534  0
C  C88  1  0.89056249  0.07315581  0.32099855  1  0.176299  0  -0.052784  -0.130145  0  3.754705  0
C  C89  1  0.60943090  0.92684540  0.82100287  1  0.175838  0  -0.052724  -0.130059  0  3.754479  0
C  C90  1  0.10943365  0.57315362  0.17899881  1  0.176059  0  -0.05276  -0.130189  0  3.754511  0
C  C91  1  0.39056364  0.42684594  0.67899886  1  0.175685  0  -0.052732  -0.130078  0  3.754718  0
C  C92  1  0.98014663  0.02774504  0.26757362  1  0.001735  0  0.006169  0.058143  0  3.954107  0
C  C93  1  0.51984938  0.97225912  0.76757521  1  0.001417  0  0.006113  0.057989  0  3.954048  0
C  C94  1  0.01985361  0.52773891  0.23242465  1  0.001336  0  0.006123  0.057987  0  3.954185  0
C  C95  1  0.48014367  0.47226045  0.73242317  1  0.001093  0  0.006198  0.057986  0  3.954246  0
C  C96  1  0.02298899  0.06886335  0.19604730  1  -0.021235  0  -0.039983  -0.046325  0  3.858069  0
C  C97  1  0.47701004  0.93113843  0.69604977  1  -0.021572  0  -0.040008  -0.04625  0  3.857929  0
C  C98  1  0.97701410  0.56885912  0.30394881  1  -0.021719  0  -0.039979  -0.046245  0  3.857914  0
C  C99  1  0.52298714  0.43114056  0.80394954  1  -0.021646  0  -0.039997  -0.046272  0  3.857991  0
C  C100  1  0.10504288  0.02375307  0.14765223  1  -0.007394  0  -0.059139  -0.087082  0  3.92813  0
C  C101  1  0.39495877  0.97625102  0.64765136  1  -0.00751  0  -0.059105  -0.087077  0  3.928258  0
C  C102  1  0.89496343  0.52374625  0.35234845  1  -0.007293  0  -0.059108  -0.086963  0  3.928171  0
C  C103  1  0.60504040  0.47625593  0.85234644  1  -0.007426  0  -0.059059  -0.0869  0  3.928132  0
C  C104  1  0.14472101  0.93831335  0.17210575  1  0.478985  0  0.08299  0.109569  0  3.821334  0
C  C105  1  0.35528238  0.06168958  0.67210621  1  0.479658  0  0.083006  0.109608  0  3.821414  0
C  C106  1  0.85528414  0.43830862  0.32789059  1  0.479598  0  0.083054  0.109674  0  3.821332  0
C  C107  1  0.64472057  0.56169197  0.82789042  1  0.479559  0  0.082987  0.109638  0  3.821468  0
C  C108  1  0.02461507  0.94246481  0.28963817  1  0.461864  0  0.071183  0.038636  0  3.810047  0
C  C109  1  0.47538220  0.05753645  0.78964166  1  0.462288  0  0.07119  0.038659  0  3.809997  0
C  C110  1  0.97538837  0.44246286  0.21035452  1  0.462436  0  0.071194  0.038804  0  3.809753  0
C  C111  1  0.52461114  0.55753941  0.71035556  1  0.462968  0  0.071219  0.038867  0  3.809758  0
C  C112  1  0.49918694  0.26492899  0.45356612  1  1.585064  0  0.212459  0.483624  0  4.251445  0
C  C113  1  0.00081727  0.73506620  0.95357090  1  1.585125  0  0.212494  0.48357  0  4.251329  0
C  C114  1  0.50081551  0.76492970  0.04643631  1  1.584892  0  0.212466  0.483568  0  4.251728  0
C  C115  1  0.99918491  0.23506422  0.54643128  1  1.585031  0  0.212417  0.483303  0  4.251592  0
C  C116  1  0.45418916  0.24110163  0.54087207  1  1.597138  0  0.22046  0.491357  0  4.224261  0
C  C117  1  0.04581251  0.75890560  0.04087277  1  1.597068  0  0.220575  0.491372  0  4.224491  0
C  C118  1  0.54580869  0.74109801  0.95913689  1  1.597539  0  0.220544  0.4913  0  4.224556  0
C  C119  1  0.95419077  0.25889485  0.45912962  1  1.597328  0  0.220578  0.491624  0  4.224179  0
C  C120  1  0.74329739  0.18275398  0.74902391  1  1.590446  0  0.225393  0.481672  0  4.206775  0
C  C121  1  0.75670733  0.81724864  0.24902194  1  1.590435  0  0.225452  0.481817  0  4.206666  0
C  C122  1  0.25670971  0.68275021  0.75097789  1  1.590455  0  0.225479  0.481874  0  4.206772  0
C  C123  1  0.24329279  0.31725070  0.25097965  1  1.590554  0  0.22541  0.481729  0  4.206982  0
C  C124  1  0.75073212  0.28732266  0.76337064  1  1.602159  0  0.220958  0.497426  0  4.239439  0
C  C125  1  0.74927261  0.71267665  0.26336792  1  1.602004  0  0.221035  0.497459  0  4.239209  0
C  C126  1  0.24927906  0.78732285  0.73663559  1  1.602252  0  0.220985  0.497382  0  4.239144  0
C  C127  1  0.25072867  0.21267724  0.23663291  1  1.602139  0  0.220962  0.497424  0  4.239131  0
C  C128  1  0.53472516  0.30257058  0.01247003  1  1.598212  0  0.223885  0.486221  0  4.215006  0
C  C129  1  0.96528310  0.69743744  0.51247081  1  1.599178  0  0.223877  0.486138  0  4.214845  0
C  C130  1  0.46528272  0.80256487  0.48752103  1  1.599111  0  0.224023  0.48637  0  4.214695  0
C  C131  1  0.03472409  0.19743063  0.98752558  1  1.599111  0  0.22393  0.486278  0  4.214946  0
C  C132  1  0.49139690  0.20731701  0.98334190  1  1.604443  0  0.221406  0.488439  0  4.236171  0
C  C133  1  0.00861165  0.79269080  0.48334652  1  1.60405  0  0.221364  0.48843  0  4.236552  0
C  C134  1  0.50860338  0.70731405  0.51665027  1  1.604271  0  0.221372  0.488283  0  4.236549  0
C  C135  1  0.99140053  0.29267960  0.01665979  1  1.604359  0  0.221404  0.488316  0  4.23621  0
N  N136  1  0.76706634  0.04822743  0.29626213  1  -0.968603  0  -0.332784  0.076001  0  3.578237  0
N  N137  1  0.73293141  0.95177013  0.79626416  1  -0.968887  0  -0.332814  0.075813  0  3.578421  0
N  N138  1  0.23293663  0.54822863  0.20373690  1  -0.968591  0  -0.332817  0.076008  0  3.578115  0
N  N139  1  0.26706327  0.45177184  0.70373836  1  -0.968313  0  -0.332827  0.075969  0  3.57826  0
N  N140  1  0.10447479  0.90112834  0.24209480  1  -1.316581  0  -0.327887  -0.121007  0  3.660971  0
N  N141  1  0.39552510  0.09887454  0.74209615  1  -1.317297  0  -0.327932  -0.121103  0  3.660795  0
N  N142  1  0.89552841  0.40112380  0.25790188  1  -1.317349  0  -0.327942  -0.121233  0  3.660563  0
N  N143  1  0.60447544  0.59887547  0.75790259  1  -1.317577  0  -0.328012  -0.121262  0  3.660602  0
O  O144  1  0.81843720  0.23878481  0.22295694  1  -1.467654  0  -0.366197  -0.748713  0  2.216527  0
O  O145  1  0.68155359  0.76121552  0.72295944  1  -1.467848  0  -0.36624  -0.748829  0  2.216576  0
O  O146  1  0.18154854  0.73878719  0.27704775  1  -1.467634  0  -0.366232  -0.748832  0  2.216377  0
O  O147  1  0.31844960  0.26121601  0.77704722  1  -1.467747  0  -0.366251  -0.748758  0  2.216375  0
O  O148  1  0.74492022  0.17828151  0.08240239  1  -1.466816  0  -0.432723  -0.784682  0  2.316775  0
O  O149  1  0.75506538  0.82171274  0.58240164  1  -1.466811  0  -0.432716  -0.784673  0  2.316751  0
O  O150  1  0.25507041  0.67828473  0.41760064  1  -1.46677  0  -0.432702  -0.784704  0  2.316865  0
O  O151  1  0.24491725  0.32171768  0.91759994  1  -1.466785  0  -0.432659  -0.784568  0  2.316828  0
O  O152  1  0.59996760  0.21759300  0.19091623  1  -1.37  0  -0.379457  -0.644835  0  2.176059  0
O  O153  1  0.90002233  0.78240086  0.69091273  1  -1.369961  0  -0.379553  -0.644955  0  2.176195  0
O  O154  1  0.40002325  0.71760260  0.30908708  1  -1.36989  0  -0.379491  -0.644872  0  2.176118  0
O  O155  1  0.09997402  0.28239815  0.80907999  1  -1.369878  0  -0.379481  -0.644703  0  2.176118  0
O  O156  1  0.74568105  0.95745644  0.45587185  1  -1.473596  0  -0.419921  -0.785961  0  2.284181  0
O  O157  1  0.75431580  0.04253845  0.95587403  1  -1.47362  0  -0.419867  -0.785986  0  2.284131  0
O  O158  1  0.25432160  0.45745597  0.04413136  1  -1.473649  0  -0.41996  -0.786041  0  2.284229  0
O  O159  1  0.24567833  0.54254237  0.54412736  1  -1.47363  0  -0.419956  -0.786061  0  2.284142  0
O  O160  1  0.72098175  0.11982387  0.51371501  1  -1.474404  0  -0.443376  -0.786549  0  2.295043  0
O  O161  1  0.77902128  0.88017112  0.01371472  1  -1.474452  0  -0.443421  -0.786665  0  2.29499  0
O  O162  1  0.27900759  0.61982300  0.98628694  1  -1.474593  0  -0.443386  -0.786606  0  2.295051  0
O  O163  1  0.22097135  0.38017249  0.48628794  1  -1.47439  0  -0.443438  -0.786649  0  2.294984  0
O  O164  1  0.54308732  0.02881610  0.47333240  1  -1.426547  0  -0.388053  -0.6656  0  2.199115  0
O  O165  1  0.95691214  0.97118032  0.97332720  1  -1.426546  0  -0.387944  -0.665494  0  2.199202  0
O  O166  1  0.45691119  0.52882334  0.02666526  1  -1.426716  0  -0.388038  -0.665617  0  2.199028  0
O  O167  1  0.04308178  0.47118377  0.52667485  1  -1.426313  0  -0.387999  -0.665589  0  2.199024  0
O  O168  1  0.60556777  0.28678039  0.44756516  1  -1.193878  0  -0.347833  -0.562788  0  2.255684  0
O  O169  1  0.89443779  0.71320962  0.94757096  1  -1.193942  0  -0.347869  -0.5627  0  2.255554  0
O  O170  1  0.39443305  0.78678079  0.05243866  1  -1.193892  0  -0.34782  -0.562768  0  2.255635  0
O  O171  1  0.10556688  0.21321008  0.55243351  1  -1.194089  0  -0.347839  -0.56263  0  2.255554  0
O  O172  1  0.42572149  0.25966268  0.39575055  1  -1.191901  0  -0.355818  -0.572836  0  2.232858  0
O  O173  1  0.07427837  0.74033473  0.89575229  1  -1.191811  0  -0.355837  -0.572857  0  2.232844  0
O  O174  1  0.57427134  0.75966417  0.10425614  1  -1.191922  0  -0.355853  -0.572837  0  2.232961  0
O  O175  1  0.92572645  0.24033508  0.60425054  1  -1.191766  0  -0.355792  -0.572714  0  2.232845  0
O  O176  1  0.34812975  0.21849767  0.54698577  1  -1.194615  0  -0.348572  -0.560557  0  2.309298  0
O  O177  1  0.15187018  0.78151099  0.04698662  1  -1.194714  0  -0.348673  -0.560505  0  2.30934  0
O  O178  1  0.65186711  0.71849230  0.95301873  1  -1.194554  0  -0.348663  -0.56048  0  2.309207  0
O  O179  1  0.84813148  0.28149914  0.45301532  1  -1.194535  0  -0.348678  -0.560693  0  2.309238  0
O  O180  1  0.52651876  0.24677544  0.59934878  1  -1.193024  0  -0.355397  -0.565444  0  2.257474  0
O  O181  1  0.97348513  0.75323748  0.09935061  1  -1.192978  0  -0.355409  -0.565508  0  2.257719  0
O  O182  1  0.47348436  0.74676829  0.90065961  1  -1.193317  0  -0.355423  -0.565449  0  2.257646  0
O  O183  1  0.02651638  0.25322436  0.40065358  1  -1.193181  0  -0.355437  -0.565566  0  2.257446  0
O  O184  1  0.72245913  0.15324223  0.67860877  1  -1.168844  0  -0.322772  -0.5113  0  2.304476  0
O  O185  1  0.77754213  0.84675906  0.17860701  1  -1.168903  0  -0.322845  -0.511393  0  2.304522  0
O  O186  1  0.27754172  0.65323917  0.82139281  1  -1.168926  0  -0.322847  -0.511411  0  2.304475  0
O  O187  1  0.22245816  0.34675825  0.32139479  1  -1.168998  0  -0.322791  -0.511348  0  2.304699  0
O  O188  1  0.75768442  0.13324804  0.81314484  1  -1.199509  0  -0.342345  -0.553314  0  2.361826  0
O  O189  1  0.74232029  0.86675104  0.31314691  1  -1.199448  0  -0.34236  -0.553356  0  2.361874  0
O  O190  1  0.24232154  0.63324913  0.68685476  1  -1.199354  0  -0.342326  -0.553376  0  2.362084  0
O  O191  1  0.25767924  0.36675257  0.18685626  1  -1.19941  0  -0.342333  -0.553292  0  2.362064  0
O  O192  1  0.76352185  0.31271620  0.83680221  1  -1.179623  0  -0.333573  -0.553557  0  2.25356  0
O  O193  1  0.73648548  0.68728584  0.33680114  1  -1.179642  0  -0.333571  -0.553567  0  2.253646  0
O  O194  1  0.23649296  0.81271637  0.66320114  1  -1.179481  0  -0.333549  -0.553565  0  2.253609  0
O  O195  1  0.26352002  0.18728648  0.16319705  1  -1.179497  0  -0.333597  -0.553615  0  2.253485  0
O  O196  1  0.74091725  0.33701726  0.69991022  1  -1.205819  0  -0.341287  -0.576666  0  2.266447  0
O  O197  1  0.75908749  0.66298354  0.19990714  1  -1.205589  0  -0.341356  -0.576684  0  2.266375  0
O  O198  1  0.25909508  0.83701532  0.80009453  1  -1.205996  0  -0.341379  -0.576693  0  2.266418  0
O  O199  1  0.24091351  0.16298397  0.30009027  1  -1.205882  0  -0.341293  -0.576635  0  2.266494  0
O  O200  1  0.46003951  0.35178805  0.05051251  1  -1.207023  0  -0.336471  -0.568662  0  2.334692  0
O  O201  1  0.03997349  0.64822407  0.55051665  1  -1.207088  0  -0.336546  -0.568611  0  2.334416  0
O  O202  1  0.53996865  0.85178020  0.44947708  1  -1.207281  0  -0.336607  -0.568743  0  2.334465  0
O  O203  1  0.96003953  0.14821737  0.94947877  1  -1.207375  0  -0.336532  -0.568692  0  2.334709  0
O  O204  1  0.63669053  0.32593501  0.99410852  1  -1.179006  0  -0.32263  -0.53211  0  2.28307  0
O  O205  1  0.86332112  0.67406983  0.49410367  1  -1.179784  0  -0.322579  -0.532098  0  2.28315  0
O  O206  1  0.36331738  0.82593488  0.50588696  1  -1.179719  0  -0.322666  -0.532161  0  2.282857  0
O  O207  1  0.13669214  0.17406381  0.00588953  1  -1.179641  0  -0.322656  -0.532149  0  2.282927  0
O  O208  1  0.56322115  0.16216695  0.94001530  1  -1.195698  0  -0.350134  -0.555594  0  2.31504  0
O  O209  1  0.93678876  0.83784152  0.44001285  1  -1.195331  0  -0.350203  -0.555715  0  2.314757  0
O  O210  1  0.43678061  0.66216687  0.55998084  1  -1.195639  0  -0.35014  -0.5556  0  2.315031  0
O  O211  1  0.06322193  0.33782819  0.05998828  1  -1.195697  0  -0.350125  -0.555472  0  2.315022  0
O  O212  1  0.38935749  0.18376392  0.00217398  1  -1.183761  0  -0.341324  -0.537416  0  2.247765  0
O  O213  1  0.11064245  0.81625050  0.50217995  1  -1.183821  0  -0.341209  -0.53731  0  2.24825  0
O  O214  1  0.61064101  0.68375607  0.49781990  1  -1.183677  0  -0.341298  -0.537336  0  2.247905  0
O  O215  1  0.88935931  0.31623714  0.99782956  1  -1.18362  0  -0.341291  -0.537357  0  2.2477  0
O  O216  1  0.71008922  0.42739206  0.56658331  1  -1.274489  0  -0.583402  -0.783692  0  1.994962  0
O  O217  1  0.78991293  0.57260342  0.06658079  1  -1.274526  0  -0.583406  -0.783648  0  1.995051  0
O  O218  1  0.28991664  0.92739555  0.93342026  1  -1.274437  0  -0.583387  -0.783696  0  1.994986  0
O  O219  1  0.21009279  0.07260564  0.43341780  1  -1.274716  0  -0.583356  -0.783533  0  1.995183  0
