# generated using pymatgen
data_CdH16C24Br2(NO2)2
_symmetry_space_group_name_H-M   'P 1'
_cell_length_a   9.81181303
_cell_length_b   10.62901670
_cell_length_c   13.88439774
_cell_angle_alpha   103.81295572
_cell_angle_beta   95.73309541
_cell_angle_gamma   110.31452182
_symmetry_Int_Tables_number   1
_chemical_formula_structural   CdH16C24Br2(NO2)2
_chemical_formula_sum   'Cd2 H32 C48 Br4 N4 O8'
_cell_volume   1291.83314685
_cell_formula_units_Z   2
loop_
 _symmetry_equiv_pos_site_id
 _symmetry_equiv_pos_as_xyz
  1  'x, y, z'
loop_
 _atom_site_type_symbol
 _atom_site_label
 _atom_site_symmetry_multiplicity
 _atom_site_fract_x
 _atom_site_fract_y
 _atom_site_fract_z
 _atom_site_occupancy
 _atom_site_hle17_bader_spin_density
 _atom_site_hle17_ddec_charge
 _atom_site_hle17_ddec_spin_density
 _atom_site_hle17_ddec_sum_bond_order
 _atom_site_hle17_magmom
 _atom_site_hse06_10hf_bader_spin_density
 _atom_site_hse06_10hf_ddec_charge
 _atom_site_hse06_10hf_ddec_spin_density
 _atom_site_hse06_10hf_ddec_sum_bond_order
 _atom_site_hse06_10hf_magmom
 _atom_site_hse06_bader_spin_density
 _atom_site_hse06_ddec_charge
 _atom_site_hse06_ddec_spin_density
 _atom_site_hse06_ddec_sum_bond_order
 _atom_site_hse06_magmom
 _atom_site_pbe_bader_spin_density
 _atom_site_pbe_cm5_charge
 _atom_site_pbe_ddec_charge
 _atom_site_pbe_ddec_spin_density
 _atom_site_pbe_ddec_sum_bond_order
 _atom_site_pbe_magmom
Cd  Cd0  1  0.58845275  0.87479080  0.42042189  1  0  1.113404  0  1.69756  0  0  0.918548  0  2.149139  0  0  0.978511  0  2.096342  0  0  0.771769  0.875137  0  2.185704  0
Cd  Cd1  1  0.41154811  0.12520744  0.57957517  1  0  1.113415  0  1.697503  0  0  0.918598  0  2.149027  0  0  0.978563  0  2.09623  0  0  0.771768  0.875183  0  2.185591  0
H  H2  1  0.51635701  0.56459662  0.42298654  1  0  0.078332  0  0.938773  0  0  0.08878  0  0.999456  0  0  0.090857  0  0.998022  0  0  0.118418  0.087317  0  1.000326  0
H  H3  1  0.48363602  0.43540812  0.57702937  1  0  0.07827  0  0.938724  0  0  0.088683  0  0.999448  0  0  0.090752  0  0.998014  0  0  0.118362  0.087219  0  1.000317  0
H  H4  1  0.30692988  0.34453943  0.42099083  1  0  0.1266  0  0.978987  0  0  0.133079  0  1.044568  0  0  0.136982  0  1.042782  0  0  0.109855  0.129869  0  1.04659  0
H  H5  1  0.69305932  0.65546424  0.57901676  1  0  0.126577  0  0.97894  0  0  0.133038  0  1.044541  0  0  0.136932  0  1.042762  0  0  0.109842  0.129824  0  1.046575  0
H  H6  1  0.01070081  0.55722730  0.38092855  1  0  0.110044  0  0.946582  0  0  0.122955  0  1.001539  0  0  0.125735  0  1.001305  0  0  0.109699  0.120974  0  1.001904  0
H  H7  1  0.98928820  0.44276785  0.61905941  1  0  0.11005  0  0.946676  0  0  0.123026  0  1.001549  0  0  0.125812  0  1.001312  0  0  0.109726  0.121042  0  1.001912  0
H  H8  1  0.23280786  0.76699569  0.38530685  1  0  0.083069  0  0.950787  0  0  0.09149  0  1.013987  0  0  0.093298  0  1.01296  0  0  0.116566  0.090192  0  1.014782  0
H  H9  1  0.76718606  0.23301002  0.61469631  1  0  0.083016  0  0.950836  0  0  0.091429  0  1.014056  0  0  0.093228  0  1.013037  0  0  0.116555  0.09013  0  1.01485  0
H  H10  1  0.85674149  0.32078786  0.29091644  1  0  0.107317  0  0.948233  0  0  0.117015  0  1.007683  0  0  0.12092  0  1.005517  0  0  0.106029  0.1143  0  1.0093  0
H  H11  1  0.14326412  0.67922192  0.70908231  1  0  0.107264  0  0.948367  0  0  0.116889  0  1.007876  0  0  0.120795  0  1.005714  0  0  0.105986  0.114176  0  1.009491  0
H  H12  1  0.64960695  0.11331017  0.30614610  1  0  0.082493  0  0.944316  0  0  0.09032  0  1.009943  0  0  0.092234  0  1.008669  0  0  0.116003  0.089159  0  1.010467  0
H  H13  1  0.35039243  0.88669228  0.69384808  1  0  0.082533  0  0.944346  0  0  0.090381  0  1.00995  0  0  0.092299  0  1.008664  0  0  0.116027  0.089219  0  1.010476  0
H  H14  1  0.92048557  0.05814869  0.52726738  1  0  0.086331  0  0.936348  0  0  0.094756  0  0.999576  0  0  0.096918  0  0.998226  0  0  0.120604  0.093235  0  1.000551  0
H  H15  1  0.07952121  0.94185898  0.47273103  1  0  0.086361  0  0.936326  0  0  0.094781  0  0.999576  0  0  0.096937  0  0.998219  0  0  0.120615  0.093258  0  1.000553  0
H  H16  1  0.13839491  0.26148751  0.52322265  1  0  0.139105  0  0.964378  0  0  0.14661  0  1.026483  0  0  0.150729  0  1.023638  0  0  0.113064  0.143678  0  1.028716  0
H  H17  1  0.86160844  0.73852227  0.47677095  1  0  0.139068  0  0.964462  0  0  0.146556  0  1.026559  0  0  0.150674  0  1.023716  0  0  0.11304  0.14362  0  1.028795  0
H  H18  1  0.53198864  0.67435772  0.06331650  1  0  0.103624  0  0.941049  0  0  0.115143  0  0.998074  0  0  0.118291  0  0.996214  0  0  0.104865  0.112864  0  0.999505  0
H  H19  1  0.46801965  0.32566049  0.93668902  1  0  0.103625  0  0.941078  0  0  0.115168  0  0.998084  0  0  0.118311  0  0.99623  0  0  0.104902  0.11289  0  0.999516  0
H  H20  1  0.61152458  0.59707211  0.90098666  1  0  0.109624  0  0.932  0  0  0.122162  0  0.985037  0  0  0.125381  0  0.984104  0  0  0.10455  0.119733  0  0.986012  0
H  H21  1  0.38847908  0.40293245  0.09901605  1  0  0.109607  0  0.931996  0  0  0.122131  0  0.985046  0  0  0.125347  0  0.984113  0  0  0.104553  0.119705  0  0.986019  0
H  H22  1  0.03526608  0.66129393  0.07119725  1  0  0.102489  0  0.961033  0  0  0.109695  0  1.026499  0  0  0.112861  0  1.025452  0  0  0.094672  0.107486  0  1.027368  0
H  H23  1  0.96473752  0.33871275  0.92880803  1  0  0.10247  0  0.961034  0  0  0.109683  0  1.026484  0  0  0.112849  0  1.025436  0  0  0.094646  0.107472  0  1.027357  0
H  H24  1  0.95006741  0.73052008  0.23253520  1  0  0.097331  0  0.941018  0  0  0.107685  0  1.000345  0  0  0.111162  0  0.997998  0  0  0.099652  0.104963  0  1.00242  0
H  H25  1  0.04992927  0.26947194  0.76747128  1  0  0.097344  0  0.941015  0  0  0.107735  0  1.000304  0  0  0.111215  0  0.997951  0  0  0.099653  0.105014  0  1.002378  0
H  H26  1  0.56681346  0.10561453  0.78087219  1  0  0.11647  0  0.989361  0  0  0.12245  0  1.058236  0  0  0.126697  0  1.054137  0  0  0.102661  0.119502  0  1.061137  0
H  H27  1  0.43318082  0.89437010  0.21912413  1  0  0.116448  0  0.989401  0  0  0.122498  0  1.058191  0  0  0.126746  0  1.05409  0  0  0.102661  0.119549  0  1.061091  0
H  H28  1  0.61852417  0.14375444  0.96549682  1  0  0.108295  0  0.938681  0  0  0.119371  0  0.995182  0  0  0.123103  0  0.993232  0  0  0.10337  0.116674  0  0.996745  0
H  H29  1  0.38148169  0.85624374  0.03449831  1  0  0.108173  0  0.938736  0  0  0.119249  0  0.995267  0  0  0.12299  0  0.993297  0  0  0.103312  0.116552  0  0.996833  0
H  H30  1  0.88171483  0.88988538  0.92684314  1  0  0.104108  0  0.97024  0  0  0.108289  0  1.04161  0  0  0.111683  0  1.040263  0  0  0.094028  0.105987  0  1.042366  0
H  H31  1  0.11828915  0.11011285  0.07315552  1  0  0.103995  0  0.970132  0  0  0.108201  0  1.041491  0  0  0.111585  0  1.040176  0  0  0.093998  0.105896  0  1.04225  0
H  H32  1  0.82949348  0.85161011  0.74086469  1  0  0.097116  0  0.954201  0  0  0.103951  0  1.020956  0  0  0.107326  0  1.018842  0  0  0.099331  0.101479  0  1.02259  0
H  H33  1  0.17051430  0.14838492  0.25913355  1  0  0.097105  0  0.954178  0  0  0.103936  0  1.020936  0  0  0.107313  0  1.018822  0  0  0.099351  0.101464  0  1.022571  0
C  C34  1  0.40243786  0.55860480  0.41575674  1  0  0.134099  0  3.714844  0  0  0.104258  0  3.962938  0  0  0.111317  0  3.981961  0  0  0.049403  0.099728  0  3.949692  0
C  C35  1  0.59755721  0.44140304  0.58425337  1  0  0.134191  0  3.714905  0  0  0.104385  0  3.962986  0  0  0.111454  0  3.981996  0  0  0.049479  0.099856  0  3.949737  0
C  C36  1  0.28651358  0.43739547  0.41509649  1  0  -0.167477  0  3.690866  0  0  -0.184553  0  3.936032  0  0  -0.192432  0  3.956435  0  0  -0.081692  -0.179139  0  3.922421  0
C  C37  1  0.71347533  0.56261030  0.58490860  1  0  -0.167529  0  3.69107  0  0  -0.184576  0  3.936139  0  0  -0.192453  0  3.956548  0  0  -0.081687  -0.179162  0  3.922531  0
C  C38  1  0.14159538  0.43452665  0.40370915  1  0  0.10016  0  3.761322  0  0  0.110307  0  3.993105  0  0  0.114317  0  4.014513  0  0  0.012138  0.107891  0  3.978236  0
C  C39  1  0.85839634  0.56547693  0.59628630  1  0  0.100236  0  3.761488  0  0  0.110461  0  3.993157  0  0  0.114463  0  4.014559  0  0  0.012194  0.10804  0  3.978289  0
C  C40  1  0.12076889  0.55387060  0.39075946  1  0  -0.163373  0  3.714346  0  0  -0.18131  0  3.963379  0  0  -0.1887  0  3.984312  0  0  -0.08625  -0.176521  0  3.949462  0
C  C41  1  0.87922583  0.44613295  0.60923469  1  0  -0.163416  0  3.714596  0  0  -0.181425  0  3.963548  0  0  -0.188828  0  3.984498  0  0  -0.08632  -0.176633  0  3.949632  0
C  C42  1  0.24349028  0.67133606  0.39359739  1  0  0.138221  0  3.709095  0  0  0.105395  0  3.965342  0  0  0.113035  0  3.983667  0  0  0.04648  0.100244  0  3.953056  0
C  C43  1  0.75650666  0.32866749  0.60640119  1  0  0.138226  0  3.709199  0  0  0.105421  0  3.965491  0  0  0.113068  0  3.983819  0  0  0.046467  0.100269  0  3.953201  0
C  C44  1  0.01602309  0.30994724  0.40625905  1  0  0.089135  0  3.762733  0  0  0.10217  0  3.99401  0  0  0.105264  0  4.015798  0  0  0.01161  0.100262  0  3.979299  0
C  C45  1  0.98397373  0.69005629  0.59373664  1  0  0.089144  0  3.762678  0  0  0.102095  0  3.99395  0  0  0.105217  0  4.015706  0  0  0.011593  0.100189  0  3.979239  0
C  C46  1  0.87557588  0.26691554  0.34540879  1  0  -0.161576  0  3.718275  0  0  -0.180053  0  3.9651  0  0  -0.186694  0  3.984862  0  0  -0.08459  -0.175816  0  3.951884  0
C  C47  1  0.12442539  0.73308900  0.65458587  1  0  -0.161437  0  3.718303  0  0  -0.179815  0  3.965127  0  0  -0.186469  0  3.984889  0  0  -0.084487  -0.175582  0  3.951914  0
C  C48  1  0.75989446  0.15087577  0.35292566  1  0  0.135254  0  3.707372  0  0  0.105875  0  3.956532  0  0  0.113017  0  3.975358  0  0  0.045903  0.10102  0  3.943789  0
C  C49  1  0.24010650  0.84912774  0.64707168  1  0  0.135194  0  3.707322  0  0  0.105792  0  3.956477  0  0  0.112931  0  3.97531  0  0  0.045847  0.100937  0  3.943736  0
C  C50  1  0.91181590  0.11903478  0.47552952  1  0  0.132763  0  3.69768  0  0  0.102357  0  3.951343  0  0  0.108871  0  3.969936  0  0  0.051356  0.097946  0  3.938557  0
C  C51  1  0.08818721  0.88097397  0.52446819  1  0  0.132733  0  3.697777  0  0  0.102303  0  3.951435  0  0  0.108829  0  3.970018  0  0  0.051286  0.097894  0  3.938643  0
C  C52  1  0.03368707  0.23284312  0.47222942  1  0  -0.142504  0  3.662236  0  0  -0.162608  0  3.909679  0  0  -0.16848  0  3.927736  0  0  -0.074671  -0.158564  0  3.897671  0
C  C53  1  0.96631327  0.76715931  0.52776336  1  0  -0.142482  0  3.662298  0  0  -0.162513  0  3.9097  0  0  -0.168391  0  3.927743  0  0  -0.074595  -0.158465  0  3.897689  0
C  C54  1  0.68615455  0.75195308  0.25389700  1  0  0.624394  0  3.956375  0  0  0.578114  0  4.246358  0  0  0.612665  0  4.239788  0  0  0.182201  0.554812  0  4.250115  0
C  C55  1  0.31383897  0.24803683  0.74610317  1  0  0.624641  0  3.955916  0  0  0.578344  0  4.24591  0  0  0.612893  0  4.239338  0  0  0.182341  0.555035  0  4.249675  0
C  C56  1  0.73545053  0.70531340  0.15756547  1  0  -0.067488  0  3.765509  0  0  -0.045967  0  3.998184  0  0  -0.053569  0  4.020393  0  0  -0.024935  -0.041426  0  3.983621  0
C  C57  1  0.26455096  0.29468805  0.84244015  1  0  -0.067647  0  3.765471  0  0  -0.046067  0  3.998125  0  0  -0.053673  0  4.020332  0  0  -0.02493  -0.041516  0  3.983559  0
C  C58  1  0.64109341  0.66941474  0.06409576  1  0  -0.053666  0  3.745519  0  0  -0.078198  0  3.997991  0  0  -0.077289  0  4.018003  0  0  -0.083889  -0.078736  0  3.98467  0
C  C59  1  0.35891416  0.33059926  0.93590893  1  0  -0.053719  0  3.745588  0  0  -0.078322  0  3.998127  0  0  -0.077404  0  4.018131  0  0  -0.083989  -0.078867  0  3.98481  0
C  C60  1  0.68544096  0.62749460  0.97375859  1  0  -0.132193  0  3.779726  0  0  -0.151888  0  4.031515  0  0  -0.156122  0  4.052937  0  0  -0.100028  -0.148886  0  4.016935  0
C  C61  1  0.31456335  0.37251416  0.02624351  1  0  -0.132086  0  3.779694  0  0  -0.15176  0  4.031498  0  0  -0.155988  0  4.05291  0  0  -0.099995  -0.148759  0  4.016919  0
C  C62  1  0.82724715  0.62512780  0.97798453  1  0  0.102816  0  3.722892  0  0  0.119652  0  3.984873  0  0  0.123815  0  4.006693  0  0  -0.016743  0.116811  0  3.970094  0
C  C63  1  0.17275274  0.37486733  0.02201982  1  0  0.10269  0  3.723169  0  0  0.119524  0  3.985143  0  0  0.123685  0  4.00696  0  0  -0.016824  0.116685  0  3.970363  0
C  C64  1  0.92469722  0.66276555  0.06977917  1  0  -0.133763  0  3.784199  0  0  -0.154766  0  4.036057  0  0  -0.159053  0  4.05858  0  0  -0.104566  -0.152271  0  4.021339  0
C  C65  1  0.07530628  0.33723800  0.93022983  1  0  -0.133664  0  3.784096  0  0  -0.154641  0  4.035908  0  0  -0.158931  0  4.058434  0  0  -0.104518  -0.152147  0  4.021188  0
C  C66  1  0.87686131  0.70126476  0.15952903  1  0  -0.055714  0  3.737112  0  0  -0.077431  0  3.983607  0  0  -0.076783  0  4.003418  0  0  -0.086001  -0.077597  0  3.970472  0
C  C67  1  0.12313975  0.29873563  0.84047637  1  0  -0.055769  0  3.736982  0  0  -0.077542  0  3.983483  0  0  -0.076893  0  4.003295  0  0  -0.086035  -0.077713  0  3.970347  0
C  C68  1  0.65696426  0.94617819  0.63568447  1  0  0.636076  0  3.924371  0  0  0.586876  0  4.212475  0  0  0.62259  0  4.20473  0  0  0.19566  0.56269  0  4.21656  0
C  C69  1  0.34303996  0.05381581  0.36431196  1  0  0.635987  0  3.924501  0  0  0.586803  0  4.212638  0  0  0.622521  0  4.204894  0  0  0.19568  0.562615  0  4.216724  0
C  C70  1  0.69306606  0.97385471  0.74780787  1  0  -0.084404  0  3.77352  0  0  -0.059966  0  4.00243  0  0  -0.069606  0  4.026142  0  0  -0.028247  -0.053692  0  3.987001  0
C  C71  1  0.30693433  0.02614248  0.25218825  1  0  -0.084283  0  3.773459  0  0  -0.059917  0  4.002458  0  0  -0.069559  0  4.026179  0  0  -0.028203  -0.05364  0  3.987027  0
C  C72  1  0.63550414  0.05751319  0.81180425  1  0  -0.060389  0  3.720041  0  0  -0.083921  0  3.967915  0  0  -0.082527  0  3.986835  0  0  -0.085745  -0.085046  0  3.95462  0
C  C73  1  0.36449501  0.94248087  0.18819266  1  0  -0.060517  0  3.719949  0  0  -0.084077  0  3.96786  0  0  -0.082687  0  3.986783  0  0  -0.085818  -0.085201  0  3.954564  0
C  C74  1  0.66442996  0.07982778  0.91609755  1  0  -0.130646  0  3.77696  0  0  -0.151652  0  4.027966  0  0  -0.155872  0  4.048167  0  0  -0.099945  -0.148615  0  4.013383  0
C  C75  1  0.33557683  0.92017251  0.08389947  1  0  -0.130399  0  3.776798  0  0  -0.151429  0  4.027804  0  0  -0.155652  0  4.04802  0  0  -0.099858  -0.148392  0  4.013223  0
C  C76  1  0.75199605  0.01814512  0.95619162  1  0  0.105427  0  3.722709  0  0  0.122114  0  3.983417  0  0  0.126646  0  4.005845  0  0  -0.013056  0.119333  0  3.968465  0
C  C77  1  0.24801019  0.98185411  0.04380229  1  0  0.105274  0  3.72293  0  0  0.122023  0  3.983561  0  0  0.126558  0  4.005982  0  0  -0.013029  0.119238  0  3.968614  0
C  C78  1  0.81259395  0.93629863  0.89434903  1  0  -0.134525  0  3.776447  0  0  -0.154246  0  4.028146  0  0  -0.158978  0  4.050016  0  0  -0.102271  -0.150938  0  4.012701  0
C  C79  1  0.18741810  0.06370164  0.10565186  1  0  -0.134378  0  3.776405  0  0  -0.154129  0  4.028108  0  0  -0.158865  0  4.049976  0  0  -0.102274  -0.150819  0  4.012661  0
C  C80  1  0.78279111  0.91483155  0.79017899  1  0  -0.044647  0  3.725819  0  0  -0.06674  0  3.971219  0  0  -0.064941  0  3.990447  0  0  -0.082718  -0.068271  0  3.958319  0
C  C81  1  0.21721873  0.08517084  0.20982146  1  0  -0.044639  0  3.725825  0  0  -0.066707  0  3.971237  0  0  -0.064908  0  3.990464  0  0  -0.082739  -0.06824  0  3.958338  0
Br  Br82  1  0.78757353  0.04550427  0.09824711  1  0  -0.06677  0  1.301438  0  0  -0.059033  0  1.550685  0  0  -0.065492  0  1.547036  0  0  0.050941  -0.053616  0  1.552238  0
Br  Br83  1  0.21243098  0.95449501  0.90175393  1  0  -0.066669  0  1.301582  0  0  -0.058952  0  1.550814  0  0  -0.065417  0  1.547169  0  0  0.050994  -0.053533  0  1.552368  0
Br  Br84  1  0.88691422  0.56777588  0.85386483  1  0  -0.093954  0  1.295251  0  0  -0.084966  0  1.538746  0  0  -0.090334  0  1.534066  0  0  0.03001  -0.080889  0  1.541985  0
Br  Br85  1  0.11306187  0.43216894  0.14613172  1  0  -0.093848  0  1.295315  0  0  -0.084853  0  1.538806  0  0  -0.090224  0  1.534127  0  0  0.030079  -0.080776  0  1.542043  0
N  N86  1  0.38227255  0.67477924  0.40756262  1  0  -0.320787  0  3.253259  0  0  -0.243536  0  3.518014  0  0  -0.26358  0  3.536324  0  0  -0.325662  -0.229247  0  3.505021  0
N  N87  1  0.61772453  0.32522858  0.59244686  1  0  -0.320776  0  3.253357  0  0  -0.243584  0  3.51814  0  0  -0.263628  0  3.536447  0  0  -0.325666  -0.229292  0  3.505138  0
N  N88  1  0.77736327  0.07860085  0.41726181  1  0  -0.326476  0  3.272293  0  0  -0.248404  0  3.534025  0  0  -0.268854  0  3.554475  0  0  -0.328047  -0.233878  0  3.519662  0
N  N89  1  0.22263843  0.92139949  0.58273496  1  0  -0.326506  0  3.272293  0  0  -0.248457  0  3.534066  0  0  -0.268909  0  3.554515  0  0  -0.328031  -0.233928  0  3.519703  0
O  O90  1  0.75599447  0.75647122  0.33771719  1  0  -0.656483  0  1.918552  0  0  -0.604692  0  2.147606  0  0  -0.63103  0  2.137791  0  0  -0.346867  -0.586135  0  2.153572  0
O  O91  1  0.24400250  0.24352709  0.66228401  1  0  -0.656577  0  1.918388  0  0  -0.604804  0  2.147481  0  0  -0.631141  0  2.137657  0  0  -0.346931  -0.58625  0  2.15345  0
O  O92  1  0.57453028  0.78805976  0.24685643  1  0  -0.649754  0  1.988532  0  0  -0.589406  0  2.231953  0  0  -0.619025  0  2.222594  0  0  -0.340767  -0.569437  0  2.238192  0
O  O93  1  0.42545099  0.21191239  0.75314554  1  0  -0.649845  0  1.988408  0  0  -0.589465  0  2.231809  0  0  -0.619085  0  2.222469  0  0  -0.340848  -0.569494  0  2.238054  0
O  O94  1  0.70491978  0.86477035  0.57843831  1  0  -0.638443  0  1.97768  0  0  -0.577611  0  2.221911  0  0  -0.605724  0  2.212273  0  0  -0.326297  -0.558016  0  2.22805  0
O  O95  1  0.29508924  0.13523307  0.42155726  1  0  -0.63846  0  1.977723  0  0  -0.577646  0  2.221967  0  0  -0.605761  0  2.212326  0  0  -0.326381  -0.558052  0  2.228106  0
O  O96  1  0.57815394  0.00377280  0.59827185  1  0  -0.679042  0  2.057676  0  0  -0.608491  0  2.326141  0  0  -0.639153  0  2.313806  0  0  -0.337848  -0.586563  0  2.333597  0
O  O97  1  0.42184584  0.99621282  0.40172422  1  0  -0.679015  0  2.057749  0  0  -0.608426  0  2.326166  0  0  -0.63909  0  2.313833  0  0  -0.337799  -0.586497  0  2.333624  0
