# generated using pymatgen
data_Cd2H22C20S2N4O11
_symmetry_space_group_name_H-M   'P 1'
_cell_length_a   9.54937765
_cell_length_b   13.21739390
_cell_length_c   13.59560000
_cell_angle_alpha   118.36279290
_cell_angle_beta   90.00000000
_cell_angle_gamma   111.17632388
_symmetry_Int_Tables_number   1
_chemical_formula_structural   Cd2H22C20S2N4O11
_chemical_formula_sum   'Cd4 H44 C40 S4 N8 O22'
_cell_volume   1376.90889197
_cell_formula_units_Z   2
loop_
 _symmetry_equiv_pos_site_id
 _symmetry_equiv_pos_as_xyz
  1  'x, y, z'
loop_
 _atom_site_type_symbol
 _atom_site_label
 _atom_site_symmetry_multiplicity
 _atom_site_fract_x
 _atom_site_fract_y
 _atom_site_fract_z
 _atom_site_occupancy
 _atom_site_hle17_bader_spin_density
 _atom_site_hle17_ddec_charge
 _atom_site_hle17_ddec_spin_density
 _atom_site_hle17_ddec_sum_bond_order
 _atom_site_hle17_magmom
 _atom_site_hse06_10hf_bader_spin_density
 _atom_site_hse06_10hf_ddec_charge
 _atom_site_hse06_10hf_ddec_spin_density
 _atom_site_hse06_10hf_ddec_sum_bond_order
 _atom_site_hse06_10hf_magmom
 _atom_site_hse06_bader_spin_density
 _atom_site_hse06_ddec_charge
 _atom_site_hse06_ddec_spin_density
 _atom_site_hse06_ddec_sum_bond_order
 _atom_site_hse06_magmom
 _atom_site_pbe_bader_charge
 _atom_site_pbe_bader_spin_density
 _atom_site_pbe_cm5_charge
 _atom_site_pbe_ddec_charge
 _atom_site_pbe_ddec_spin_density
 _atom_site_pbe_ddec_sum_bond_order
 _atom_site_pbe_magmom
Cd  Cd0  1  0.17905136  0.50440833  0.85461107  1  0  1.189247  0  1.644121  0  0  0.998217  0  2.092372  0  0  1.049847  0  2.041034  0  1.312934  0  0.791315  0.96139  0  2.127624  0
Cd  Cd1  1  0.67469124  0.49555161  0.14536389  1  0  1.189712  0  1.64314  0  0  0.998732  0  2.091275  0  0  1.050383  0  2.039897  0  1.305806  0  0.791354  0.961889  0  2.12655  0
Cd  Cd2  1  0.68089572  0.49271347  0.61431997  1  0  1.186955  0  1.602212  0  0  0.994878  0  2.04139  0  0  1.047162  0  1.992234  0  1.303547  0  0.805384  0.957542  0  2.075185  0
Cd  Cd3  1  0.18817648  0.50726910  0.38566249  1  0  1.186624  0  1.601452  0  0  0.99457  0  2.04059  0  0  1.046894  0  1.991456  0  1.301979  0  0.805177  0.957229  0  2.074368  0
H  H4  1  0.42572859  0.80231843  0.98359073  1  0  0.066262  0  0.962189  0  0  0.07564  0  1.025535  0  0  0.078171  0  1.022368  0  0.094478  0  0.114314  0.073702  0  1.027951  0
H  H5  1  0.62326819  0.19761134  0.01650710  1  0  0.065963  0  0.963244  0  0  0.075935  0  1.025831  0  0  0.078459  0  1.022685  0  0.097794  0  0.114363  0.074005  0  1.028242  0
H  H6  1  0.43458543  0.01475930  0.10422145  1  0  0.122111  0  0.947005  0  0  0.1348  0  1.000598  0  0  0.137781  0  0.999659  0  0.112445  0  0.115382  0.132643  0  1.001394  0
H  H7  1  0.41971459  0.98515726  0.89582174  1  0  0.121837  0  0.947939  0  0  0.134671  0  1.001342  0  0  0.137652  0  1.000415  0  0.113064  0  0.115473  0.132516  0  1.002131  0
H  H8  1  0.94513853  0.83687215  0.08068475  1  0  0.103886  0  0.950719  0  0  0.115641  0  1.008293  0  0  0.118805  0  1.007124  0  0.084455  0  0.109106  0.113314  0  1.009368  0
H  H9  1  0.10814827  0.16302556  0.91927176  1  0  0.104455  0  0.949816  0  0  0.116324  0  1.007231  0  0  0.119435  0  1.006136  0  0.067515  0  0.109108  0.114043  0  1.008252  0
H  H10  1  0.96111342  0.63144318  0.97152072  1  0  0.100391  0  0.954153  0  0  0.107075  0  1.018157  0  0  0.109769  0  1.015443  0  0.163176  0  0.120567  0.105026  0  1.020187  0
H  H11  1  0.32952660  0.36845359  0.02843977  1  0  0.100512  0  0.954228  0  0  0.107394  0  1.017944  0  0  0.110109  0  1.01524  0  0.162093  0  0.120599  0.105314  0  1.02002  0
H  H12  1  0.43569502  0.18228724  0.20939013  1  0  0.122929  0  0.980213  0  0  0.130252  0  1.044457  0  0  0.133712  0  1.042938  0  0.155367  0  0.108135  0.127708  0  1.045768  0
H  H13  1  0.25318020  0.81767459  0.79068058  1  0  0.123279  0  0.979635  0  0  0.130017  0  1.044472  0  0  0.133505  0  1.042936  0  0.133271  0  0.107998  0.127415  0  1.045824  0
H  H14  1  0.41807048  0.38651966  0.29474844  1  0  0.094181  0  0.963183  0  0  0.099697  0  1.031029  0  0  0.102273  0  1.02847  0  0.167006  0  0.117394  0.097698  0  1.033032  0
H  H15  1  0.03128661  0.61344028  0.70528315  1  0  0.094481  0  0.961633  0  0  0.099563  0  1.030113  0  0  0.102161  0  1.027513  0  0.141064  0  0.117349  0.097549  0  1.032123  0
H  H16  1  0.94161926  0.22055223  0.22004096  1  0  0.091721  0  0.957661  0  0  0.098204  0  1.021644  0  0  0.101098  0  1.018466  0  0.146351  0  0.115899  0.095983  0  1.024076  0
H  H17  1  0.72085009  0.77945108  0.77996359  1  0  0.091354  0  0.956639  0  0  0.098134  0  1.020539  0  0  0.101087  0  1.017272  0  0.143035  0  0.115521  0.095855  0  1.023042  0
H  H18  1  0.93641253  0.00573381  0.12266560  1  0  0.102691  0  0.947961  0  0  0.116566  0  1.00111  0  0  0.11959  0  1.000386  0  0.089479  0  0.108921  0.11439  0  1.001779  0
H  H19  1  0.93050287  0.99429308  0.87734322  1  0  0.102447  0  0.947967  0  0  0.115957  0  1.001653  0  0  0.11899  0  1.000932  0  0.078096  0  0.108482  0.113785  0  1.00231  0
H  H20  1  0.42267711  0.37904902  0.77871105  1  0  0.09927  0  0.962456  0  0  0.108448  0  1.023796  0  0  0.110423  0  1.022162  0  0.142438  0  0.119717  0.106932  0  1.025061  0
H  H21  1  0.04399965  0.62114382  0.22132806  1  0  0.09947  0  0.961172  0  0  0.108396  0  1.022972  0  0  0.110379  0  1.02131  0  0.131566  0  0.119775  0.106877  0  1.024247  0
H  H22  1  0.43590596  0.17575573  0.69521046  1  0  0.123496  0  0.959274  0  0  0.130118  0  1.02414  0  0  0.133679  0  1.022441  0  0.115218  0  0.111104  0.127531  0  1.025476  0
H  H23  1  0.26035441  0.82450217  0.30489327  1  0  0.123089  0  0.959868  0  0  0.12993  0  1.024628  0  0  0.133504  0  1.022895  0  0.148609  0  0.110917  0.127339  0  1.026005  0
H  H24  1  0.93613309  0.00459478  0.62106641  1  0  0.10977  0  0.944408  0  0  0.124757  0  0.994481  0  0  0.127771  0  0.993791  0  0.086175  0  0.113168  0.122571  0  0.995183  0
H  H25  1  0.93143066  0.99534442  0.37870773  1  0  0.108619  0  0.944788  0  0  0.123615  0  0.995129  0  0  0.12653  0  0.994548  0  0.098695  0  0.112687  0.12153  0  0.995691  0
H  H26  1  0.94422190  0.21875600  0.71076895  1  0  0.095309  0  0.970061  0  0  0.100248  0  1.036482  0  0  0.103435  0  1.032911  0  0.141428  0  0.114928  0.097859  0  1.039111  0
H  H27  1  0.72548946  0.78110211  0.28901922  1  0  0.096018  0  0.970988  0  0  0.101492  0  1.036549  0  0  0.104742  0  1.03293  0  0.149536  0  0.115545  0.099022  0  1.039237  0
H  H28  1  0.94615560  0.62871252  0.46726966  1  0  0.088146  0  0.96186  0  0  0.095142  0  1.029493  0  0  0.097414  0  1.027022  0  0.1567  0  0.117341  0.093322  0  1.031514  0
H  H29  1  0.31748439  0.37141808  0.53282309  1  0  0.08742  0  0.963426  0  0  0.09455  0  1.030855  0  0  0.096833  0  1.028385  0  0.108741  0  0.117415  0.092725  0  1.032873  0
H  H30  1  0.93543024  0.83542950  0.56155442  1  0  0.111291  0  0.948406  0  0  0.122984  0  1.005557  0  0  0.126215  0  1.004284  0  0.086025  0  0.110878  0.120608  0  1.006698  0
H  H31  1  0.09991047  0.16473128  0.43856478  1  0  0.110538  0  0.948917  0  0  0.122466  0  1.005767  0  0  0.125651  0  1.004522  0  0.073441  0  0.110955  0.120142  0  1.006834  0
H  H32  1  0.43373369  0.00336712  0.61664671  1  0  0.124058  0  0.938083  0  0  0.137504  0  0.989768  0  0  0.140681  0  0.988787  0  0.128412  0  0.117215  0.135169  0  0.990713  0
H  H33  1  0.43017635  0.99667297  0.38327847  1  0  0.12374  0  0.939764  0  0  0.1378  0  0.990579  0  0  0.140949  0  0.989637  0  0.118473  0  0.117361  0.135503  0  0.991484  0
H  H34  1  0.42121500  0.78609479  0.52107362  1  0  0.101594  0  0.930182  0  0  0.110896  0  0.986939  0  0  0.113739  0  0.983874  0  0.144421  0  0.125672  0.108746  0  0.989264  0
H  H35  1  0.63500081  0.21387835  0.47886624  1  0  0.101411  0  0.929895  0  0  0.110534  0  0.986922  0  0  0.113255  0  0.983998  0  0.142471  0  0.125724  0.10846  0  0.989156  0
H  H36  1  0.20129651  0.50918509  0.08368688  1  0  0.430647  0  0.872791  0  0  0.398445  0  0.938681  0  0  0.409708  0  0.922268  0  0.639469  0  0.282245  0.390447  0  0.950306  0
H  H37  1  0.69198050  0.49075788  0.91627068  1  0  0.431389  0  0.871903  0  0  0.399066  0  0.937698  0  0  0.41029  0  0.921338  0  0.649771  0  0.282569  0.391112  0  0.94926  0
H  H38  1  0.03634795  0.43877643  0.01126248  1  0  0.415213  0  0.884493  0  0  0.388177  0  0.942311  0  0  0.398415  0  0.927191  0  0.618043  0  0.284785  0.380861  0  0.953116  0
H  H39  1  0.59729431  0.56103453  0.98863852  1  0  0.414698  0  0.885484  0  0  0.387444  0  0.943458  0  0  0.397718  0  0.928311  0  0.629308  0  0.284525  0.380125  0  0.954234  0
H  H40  1  0.49309047  0.68124840  0.98927978  1  0  0.415205  0  0.833002  0  0  0.398834  0  0.882928  0  0  0.406994  0  0.873996  0  0.611786  0  0.322428  0.393009  0  0.889383  0
H  H41  1  0.81180137  0.31867477  0.01073630  1  0  0.416135  0  0.831517  0  0  0.399505  0  0.881995  0  0  0.407698  0  0.872975  0  0.600932  0  0.322388  0.393671  0  0.888468  0
H  H42  1  0.49595623  0.60010854  0.85633868  1  0  0.429793  0  0.873596  0  0  0.394857  0  0.943427  0  0  0.406542  0  0.926425  0  0.649311  0  0.290732  0.386608  0  0.955398  0
H  H43  1  0.89585413  0.39992306  0.14367967  1  0  0.429673  0  0.873824  0  0  0.394761  0  0.94367  0  0  0.406477  0  0.926631  0  0.650452  0  0.290545  0.386507  0  0.95564  0
H  H44  1  0.65988841  0.54654018  0.43417462  1  0  0.430072  0  0.868027  0  0  0.399156  0  0.932337  0  0  0.409504  0  0.917165  0  0.665323  0  0.287929  0.391781  0  0.943122  0
H  H45  1  0.11351316  0.45347068  0.56588857  1  0  0.430005  0  0.868238  0  0  0.399333  0  0.93211  0  0  0.409676  0  0.916933  0  0.673853  0  0.287997  0.391992  0  0.942857  0
H  H46  1  0.56365551  0.60428184  0.52482510  1  0  0.435988  0  0.859365  0  0  0.406795  0  0.919909  0  0  0.417091  0  0.90483  0  0.671162  0  0.289365  0.399487  0  0.93059  0
H  H47  1  0.95951041  0.39568565  0.47525705  1  0  0.436026  0  0.859231  0  0  0.406933  0  0.919588  0  0  0.417211  0  0.90455  0  0.63851  0  0.289459  0.39963  0  0.930257  0
C  C48  1  0.32264003  0.81335137  0.01156709  1  0  0.134132  0  3.738226  0  0  0.10368  0  3.99033  0  0  0.110319  0  4.009714  0  0.471274  0  0.047841  0.099348  0  3.97718  0
C  C49  1  0.50911951  0.18655106  0.98848942  1  0  0.132704  0  3.740628  0  0  0.101948  0  3.992874  0  0  0.108559  0  4.012314  0  0.463737  0  0.047645  0.097619  0  3.979697  0
C  C50  1  0.32594530  0.93315790  0.07635647  1  0  -0.151568  0  3.684003  0  0  -0.167809  0  3.927511  0  0  -0.174907  0  3.948479  0  -0.004629  0  -0.075842  -0.163154  0  3.913363  0
C  C51  1  0.39261466  0.06674546  0.92367547  1  0  -0.150048  0  3.686179  0  0  -0.16663  0  3.929601  0  0  -0.173748  0  3.950607  0  -0.034836  0  -0.076062  -0.161966  0  3.915438  0
C  C52  1  0.18860150  0.94665465  0.10025432  1  0  0.091647  0  3.75047  0  0  0.101972  0  3.985883  0  0  0.105997  0  4.006874  0  -0.021935  0  0.012857  0.099448  0  3.971469  0
C  C53  1  0.24179309  0.05326757  0.89977088  1  0  0.091192  0  3.752978  0  0  0.10175  0  3.987392  0  0  0.10578  0  4.008322  0  0.006171  0  0.013392  0.099228  0  3.973005  0
C  C54  1  0.05571789  0.83544930  0.06283603  1  0  -0.145745  0  3.693468  0  0  -0.167841  0  3.947591  0  0  -0.175078  0  3.969175  0  0.024472  0  -0.078576  -0.16316  0  3.9331  0
C  C55  1  0.22013647  0.16447858  0.93714765  1  0  -0.14659  0  3.694591  0  0  -0.168978  0  3.948807  0  0  -0.176185  0  3.970429  0  -0.003142  0  -0.07867  -0.164318  0  3.934282  0
C  C56  1  0.06301739  0.71888259  0.00167082  1  0  0.136609  0  3.688916  0  0  0.105752  0  3.941575  0  0  0.11273  0  3.960203  0  0.424097  0  0.050934  0.10124  0  3.928938  0
C  C57  1  0.34400619  0.28102737  0.99833622  1  0  0.136443  0  3.68869  0  0  0.105474  0  3.941349  0  0  0.112424  0  3.959956  0  0.467119  0  0.050395  0.100976  0  3.92872  0
C  C58  1  0.18571860  0.07271688  0.15765663  1  0  0.085912  0  3.763205  0  0  0.095669  0  4.000766  0  0  0.099359  0  4.022411  0  -0.024239  0  0.009952  0.093399  0  3.985861  0
C  C59  1  0.11279557  0.92725437  0.84236106  1  0  0.085964  0  3.765518  0  0  0.096508  0  4.000872  0  0  0.100234  0  4.022484  0  -0.013955  0  0.009867  0.094208  0  3.985996  0
C  C60  1  0.32194086  0.18300950  0.20731483  1  0  -0.146594  0  3.669123  0  0  -0.168348  0  3.921793  0  0  -0.175948  0  3.943902  0  -0.079891  0  -0.080638  -0.163394  0  3.90698  0
C  C61  1  0.13868063  0.81695421  0.79271923  1  0  -0.147968  0  3.670958  0  0  -0.169175  0  3.922407  0  0  -0.176819  0  3.944538  0  -0.032342  0  -0.080788  -0.164152  0  3.907594  0
C  C62  1  0.31403638  0.29953284  0.25730347  1  0  0.133152  0  3.688759  0  0  0.102257  0  3.942303  0  0  0.108942  0  3.961725  0  0.477162  0  0.047919  0.097931  0  3.929093  0
C  C63  1  0.01426707  0.70045916  0.74273189  1  0  0.134218  0  3.685989  0  0  0.103503  0  3.939021  0  0  0.110186  0  3.958472  0  0.48396  0  0.048375  0.099192  0  3.925774  0
C  C64  1  0.04812101  0.20701777  0.21485896  1  0  0.134909  0  3.701959  0  0  0.107554  0  3.946821  0  0  0.114489  0  3.96567  0  0.453404  0  0.048197  0.103035  0  3.933988  0
C  C65  1  0.84088532  0.79299592  0.78513640  1  0  0.135122  0  3.6973  0  0  0.107501  0  3.941731  0  0  0.114412  0  3.960606  0  0.474811  0  0.048299  0.103014  0  3.928902  0
C  C66  1  0.04668091  0.08710468  0.16137992  1  0  -0.162922  0  3.7172  0  0  -0.181632  0  3.966261  0  0  -0.189164  0  3.987762  0  -0.040486  0  -0.083725  -0.176677  0  3.951666  0
C  C67  1  0.95937797  0.91291089  0.83862660  1  0  -0.161901  0  3.713954  0  0  -0.180733  0  3.962726  0  0  -0.188336  0  3.984311  0  -0.063253  0  -0.083079  -0.175729  0  3.948075  0
C  C68  1  0.31638221  0.29453167  0.74447931  1  0  0.135754  0  3.687527  0  0  0.103396  0  3.941238  0  0  0.110388  0  3.960711  0  0.514988  0  0.047701  0.098847  0  3.928013  0
C  C69  1  0.02208318  0.70557348  0.25549945  1  0  0.135694  0  3.68562  0  0  0.103338  0  3.940074  0  0  0.110352  0  3.959503  0  0.461404  0  0.047306  0.098779  0  3.92687  0
C  C70  1  0.32257321  0.17749256  0.69642597  1  0  -0.148799  0  3.670549  0  0  -0.16908  0  3.923553  0  0  -0.176645  0  3.945056  0  -0.086017  0  -0.078241  -0.164135  0  3.90915  0
C  C71  1  0.14522921  0.82267293  0.30360273  1  0  -0.147845  0  3.672117  0  0  -0.16849  0  3.92477  0  0  -0.176056  0  3.946312  0  -0.01729  0  -0.07792  -0.163556  0  3.910347  0
C  C72  1  0.18536178  0.06810136  0.65081613  1  0  0.084529  0  3.765363  0  0  0.093545  0  4.002359  0  0  0.097372  0  4.023819  0  -0.014301  0  0.008882  0.09121  0  3.987575  0
C  C73  1  0.11724882  0.93198681  0.34915920  1  0  0.083343  0  3.766387  0  0  0.093636  0  4.002945  0  0  0.09743  0  4.024423  0  -0.053786  0  0.009663  0.091304  0  3.988162  0
C  C74  1  0.04757438  0.08457298  0.65610716  1  0  -0.162373  0  3.71298  0  0  -0.18124  0  3.961713  0  0  -0.188795  0  3.983145  0  -0.065186  0  -0.082584  -0.176253  0  3.947223  0
C  C75  1  0.96296055  0.91542656  0.34375222  1  0  -0.160674  0  3.71189  0  0  -0.179795  0  3.960601  0  0  -0.187256  0  3.982083  0  -0.061956  0  -0.082116  -0.174872  0  3.946025  0
C  C76  1  0.05062843  0.20483211  0.70611984  1  0  0.125971  0  3.702559  0  0  0.099896  0  3.946048  0  0  0.106628  0  3.96491  0  0.498457  0  0.047006  0.095536  0  3.933222  0
C  C77  1  0.84586303  0.79509954  0.29370819  1  0  0.124698  0  3.704977  0  0  0.098393  0  3.948184  0  0  0.105068  0  3.967048  0  0.479219  0  0.046345  0.094108  0  3.935376  0
C  C78  1  0.05150634  0.71427838  0.50199227  1  0  0.132235  0  3.711081  0  0  0.101005  0  3.964553  0  0  0.108204  0  3.984244  0  0.385847  0  0.046683  0.096351  0  3.951163  0
C  C79  1  0.33720574  0.28582771  0.49807739  1  0  0.134713  0  3.709727  0  0  0.103435  0  3.962623  0  0  0.110627  0  3.982318  0  0.453949  0  0.047439  0.098779  0  3.949235  0
C  C80  1  0.04736039  0.83201053  0.55519960  1  0  -0.152417  0  3.70427  0  0  -0.175447  0  3.957673  0  0  -0.183267  0  3.98004  0  0.035099  0  -0.081725  -0.17035  0  3.942678  0
C  C81  1  0.21524514  0.16811254  0.44488526  1  0  -0.153326  0  3.703183  0  0  -0.175726  0  3.957406  0  0  -0.183497  0  3.979768  0  0.033906  0  -0.082257  -0.170664  0  3.942352  0
C  C82  1  0.18490892  0.94094913  0.59781936  1  0  0.084813  0  3.759812  0  0  0.097388  0  3.993418  0  0  0.101508  0  4.014725  0  0.014511  0  0.010583  0.094762  0  3.978821  0
C  C83  1  0.24388242  0.05917204  0.40220284  1  0  0.087157  0  3.758612  0  0  0.09723  0  3.995036  0  0  0.10135  0  4.016317  0  -0.022643  0  0.010502  0.09465  0  3.98039  0
C  C84  1  0.32218835  0.92390140  0.58645083  1  0  -0.147228  0  3.660332  0  0  -0.164522  0  3.904611  0  0  -0.172201  0  3.925111  0  0.004891  0  -0.073142  -0.159478  0  3.890903  0
C  C85  1  0.39816846  0.07616509  0.41354171  1  0  -0.14906  0  3.661401  0  0  -0.166098  0  3.906184  0  0  -0.173767  0  3.926666  0  -0.022717  0  -0.073666  -0.161094  0  3.892443  0
C  C86  1  0.31726075  0.80283985  0.53296656  1  0  0.154278  0  3.674575  0  0  0.121358  0  3.925782  0  0  0.129563  0  3.943232  0  0.438154  0  0.057799  0.115914  0  3.91403  0
C  C87  1  0.51434493  0.19720306  0.46702391  1  0  0.155888  0  3.67307  0  0  0.123025  0  3.924238  0  0  0.131306  0  3.941728  0  0.481449  0  0.058258  0.117537  0  3.91245  0
S  S88  1  0.39634073  0.62555002  0.69872416  1  0  1.555002  0  5.834649  0  0  1.433571  0  6.376009  0  0  1.488963  0  6.341802  0  3.775897  0  0.547752  1.39514  0  6.398367  0
S  S89  1  0.77086615  0.37451647  0.30133089  1  0  1.554752  0  5.837099  0  0  1.433039  0  6.378776  0  0  1.488521  0  6.344577  0  3.773542  0  0.547661  1.394576  0  6.401101  0
S  S90  1  0.78472786  0.36601335  0.72854700  1  0  1.547666  0  5.883879  0  0  1.432352  0  6.421743  0  0  1.487911  0  6.386936  0  3.754086  0  0.531954  1.393735  0  6.444563  0
S  S91  1  0.41871482  0.63395036  0.27141793  1  0  1.549447  0  5.882615  0  0  1.43421  0  6.42028  0  0  1.489807  0  6.38546  0  3.753933  0  0.532462  1.39556  0  6.443074  0
N  N92  1  0.19402705  0.70739706  0.97401943  1  0  -0.345827  0  3.264787  0  0  -0.265876  0  3.528411  0  0  -0.286705  0  3.548689  0  -1.227244  0  -0.327576  -0.251656  0  3.514369  0
N  N93  1  0.48647562  0.29252234  0.02602359  1  0  -0.345005  0  3.264147  0  0  -0.265203  0  3.528163  0  0  -0.28603  0  3.548453  0  -1.235774  0  -0.327196  -0.250977  0  3.514113  0
N  N94  1  0.18007488  0.31181042  0.26206607  1  0  -0.326566  0  3.259679  0  0  -0.244245  0  3.518952  0  0  -0.265594  0  3.539582  0  -1.223202  0  -0.328515  -0.229614  0  3.504571  0
N  N95  1  0.86802962  0.68819667  0.73794978  1  0  -0.32748  0  3.258367  0  0  -0.245075  0  3.517547  0  0  -0.266454  0  3.53819  0  -1.210548  0  -0.328586  -0.230428  0  3.503162  0
N  N96  1  0.18350977  0.30882612  0.75021604  1  0  -0.334911  0  3.255283  0  0  -0.252863  0  3.517359  0  0  -0.274289  0  3.537896  0  -1.2184  0  -0.328478  -0.23817  0  3.503051  0
N  N97  1  0.87488016  0.69119134  0.24969133  1  0  -0.334718  0  3.256009  0  0  -0.252885  0  3.518461  0  0  -0.274339  0  3.539027  0  -1.212672  0  -0.328562  -0.238166  0  3.50411  0
N  N98  1  0.18393688  0.69958603  0.49023018  1  0  -0.340837  0  3.277715  0  0  -0.256762  0  3.543487  0  0  -0.279168  0  3.564084  0  -1.229173  0  -0.330515  -0.241432  0  3.529123  0
N  N99  1  0.48428701  0.30045595  0.50978560  1  0  -0.342449  0  3.276887  0  0  -0.258214  0  3.542749  0  0  -0.280652  0  3.56334  0  -1.211066  0  -0.331119  -0.242863  0  3.528395  0
O  O100  1  0.23686320  0.55072951  0.70508246  1  0  -0.775744  0  1.98646  0  0  -0.703535  0  2.256149  0  0  -0.727861  0  2.235615  0  -1.336878  0  -0.36768  -0.686198  0  2.269762  0
O  O101  1  0.68605857  0.44921534  0.29492230  1  0  -0.775415  0  1.987731  0  0  -0.703246  0  2.257815  0  0  -0.72748  0  2.237115  0  -1.327384  0  -0.367391  -0.685958  0  2.271543  0
O  O102  1  0.44653267  0.76086735  0.78115540  1  0  -0.716699  0  1.866021  0  0  -0.677075  0  2.106492  0  0  -0.696667  0  2.089299  0  -1.35609  0  -0.378517  -0.663014  0  2.117801  0
O  O103  1  0.68586115  0.23916708  0.21891941  1  0  -0.716732  0  1.865789  0  0  -0.677024  0  2.106195  0  0  -0.696633  0  2.088983  0  -1.364119  0  -0.3785  -0.662974  0  2.117541  0
O  O104  1  0.50484663  0.57897142  0.72877615  1  0  -0.783934  0  1.981911  0  0  -0.71297  0  2.246646  0  0  -0.737565  0  2.227297  0  -1.333024  0  -0.370939  -0.695401  0  2.259336  0
O  O105  1  0.92592399  0.42118087  0.27125675  1  0  -0.784323  0  1.982446  0  0  -0.713183  0  2.247189  0  0  -0.738003  0  2.227982  0  -1.331847  0  -0.371167  -0.695568  0  2.259898  0
O  O106  1  0.39327709  0.59693094  0.57884287  1  0  -0.747115  0  1.978569  0  0  -0.68214  0  2.234892  0  0  -0.705666  0  2.216808  0  -1.349024  0  -0.35726  -0.665397  0  2.246793  0
O  O107  1  0.79648425  0.40317137  0.42122064  1  0  -0.746724  0  1.978234  0  0  -0.681789  0  2.234694  0  0  -0.705187  0  2.216305  0  -1.346965  0  -0.357173  -0.665071  0  2.246688  0
O  O108  1  0.83934845  0.39989289  0.63983582  1  0  -0.763759  0  1.943381  0  0  -0.696906  0  2.204556  0  0  -0.721322  0  2.186071  0  -1.330971  0  -0.380664  -0.679506  0  2.216687  0
O  O109  1  0.43945061  0.60012457  0.36016202  1  0  -0.76371  0  1.943822  0  0  -0.696898  0  2.204982  0  0  -0.721283  0  2.186402  0  -1.327365  0  -0.380483  -0.679507  0  2.217179  0
O  O110  1  0.71269781  0.22868951  0.67958181  1  0  -0.718149  0  1.841123  0  0  -0.680299  0  2.072517  0  0  -0.699795  0  2.054881  0  -1.329565  0  -0.387136  -0.666262  0  2.084212  0
O  O111  1  0.48403087  0.77127326  0.32034737  1  0  -0.718722  0  1.840571  0  0  -0.680981  0  2.072079  0  0  -0.700534  0  2.054455  0  -1.326493  0  -0.387377  -0.666865  0  2.083735  0
O  O112  1  0.67362324  0.42484500  0.77613310  1  0  -0.769941  0  1.958508  0  0  -0.707244  0  2.208177  0  0  -0.73015  0  2.189818  0  -1.348268  0  -0.37353  -0.690805  0  2.220241  0
O  O113  1  0.24876976  0.57514605  0.22384004  1  0  -0.77024  0  1.957496  0  0  -0.707489  0  2.206953  0  0  -0.730514  0  2.188693  0  -1.347812  0  -0.373601  -0.690969  0  2.219013  0
O  O114  1  0.91838414  0.42471394  0.82506416  1  0  -0.778344  0  1.991007  0  0  -0.70512  0  2.263826  0  0  -0.730223  0  2.243099  0  -1.350058  0  -0.391192  -0.687169  0  2.27748  0
O  O115  1  0.49365987  0.57520640  0.17491016  1  0  -0.779216  0  1.991626  0  0  -0.705876  0  2.26423  0  0  -0.731017  0  2.243527  0  -1.34864  0  -0.391233  -0.687874  0  2.277855  0
O  O116  1  0.14345638  0.45700374  0.00195348  1  0  -0.850798  0  1.846435  0  0  -0.7933  0  2.034871  0  0  -0.815053  0  2.001834  0  -1.24882  0  -0.603418  -0.777718  0  2.057857  0
O  O117  1  0.68621264  0.54286662  0.99799114  1  0  -0.851158  0  1.846505  0  0  -0.793181  0  2.03628  0  0  -0.814929  0  2.003151  0  -1.27184  0  -0.603713  -0.777633  0  2.059274  0
O  O118  1  0.46113314  0.59554299  0.92550760  1  0  -0.810385  0  1.877427  0  0  -0.7454  0  2.061283  0  0  -0.766607  0  2.032236  0  -1.2372  0  -0.555807  -0.730379  0  2.081393  0
O  O119  1  0.86557301  0.40441224  0.07446517  1  0  -0.81126  0  1.876636  0  0  -0.746096  0  2.060051  0  0  -0.767317  0  2.030927  0  -1.226929  0  -0.555611  -0.731049  0  2.080201  0
O  O120  1  0.66242727  0.59542229  0.51697118  1  0  -0.846006  0  1.85917  0  0  -0.787162  0  2.0495  0  0  -0.809533  0  2.017831  0  -1.30188  0  -0.594464  -0.771141  0  2.071427  0
O  O121  1  0.06715552  0.40457347  0.48308505  1  0  -0.845844  0  1.859329  0  0  -0.787256  0  2.04962  0  0  -0.809598  0  2.017962  0  -1.276905  0  -0.594445  -0.77127  0  2.071466  0
