# generated using pymatgen
data_BaH10C12(N2O5)2
_symmetry_space_group_name_H-M   'P 1'
_cell_length_a   8.89469065
_cell_length_b   10.89369297
_cell_length_c   15.63573467
_cell_angle_alpha   89.99967565
_cell_angle_beta   89.99981738
_cell_angle_gamma   90.00017070
_symmetry_Int_Tables_number   1
_chemical_formula_structural   BaH10C12(N2O5)2
_chemical_formula_sum   'Ba4 H40 C48 N16 O40'
_cell_volume   1515.04060084
_cell_formula_units_Z   4
loop_
 _symmetry_equiv_pos_site_id
 _symmetry_equiv_pos_as_xyz
  1  'x, y, z'
loop_
 _atom_site_type_symbol
 _atom_site_label
 _atom_site_symmetry_multiplicity
 _atom_site_fract_x
 _atom_site_fract_y
 _atom_site_fract_z
 _atom_site_occupancy
 _atom_site_hle17_bader_spin_density
 _atom_site_hle17_ddec_charge
 _atom_site_hle17_ddec_spin_density
 _atom_site_hle17_ddec_sum_bond_order
 _atom_site_hle17_magmom
 _atom_site_hse06_10hf_bader_spin_density
 _atom_site_hse06_10hf_ddec_charge
 _atom_site_hse06_10hf_ddec_spin_density
 _atom_site_hse06_10hf_ddec_sum_bond_order
 _atom_site_hse06_10hf_magmom
 _atom_site_hse06_bader_spin_density
 _atom_site_hse06_ddec_charge
 _atom_site_hse06_ddec_spin_density
 _atom_site_hse06_ddec_sum_bond_order
 _atom_site_hse06_magmom
 _atom_site_pbe_bader_spin_density
 _atom_site_pbe_cm5_charge
 _atom_site_pbe_ddec_charge
 _atom_site_pbe_ddec_spin_density
 _atom_site_pbe_ddec_sum_bond_order
 _atom_site_pbe_magmom
Ba  Ba0  1  0.39879660  0.97873524  0.54148362  1  0  1.630107  0  1.130698  0  0  1.458865  0  1.544751  0  0  1.500991  0  1.500498  0  0  0.937556  1.427649  0  1.576591  0
Ba  Ba1  1  0.89879337  0.02126291  0.45851677  1  0  1.630145  0  1.1307  0  0  1.458903  0  1.544744  0  0  1.501024  0  1.500494  0  0  0.937557  1.427687  0  1.576584  0
Ba  Ba2  1  0.89879506  0.47873475  0.95851476  1  0  1.630137  0  1.130699  0  0  1.458894  0  1.544749  0  0  1.50102  0  1.500497  0  0  0.937552  1.427673  0  1.576587  0
Ba  Ba3  1  0.39879379  0.52126616  0.04148371  1  0  1.630137  0  1.130737  0  0  1.458895  0  1.544794  0  0  1.501017  0  1.500545  0  0  0.937549  1.427673  0  1.576633  0
H  H4  1  0.76260495  0.96106377  0.82304988  1  0  0.384378  0  0.920143  0  0  0.349073  0  1.006099  0  0  0.3624  0  0.993702  0  0  0.291058  0.339801  0  1.014601  0
H  H5  1  0.26260680  0.03892763  0.17695523  1  0  0.384652  0  0.919889  0  0  0.34931  0  1.005874  0  0  0.362638  0  0.993471  0  0  0.291137  0.340036  0  1.014384  0
H  H6  1  0.26260843  0.46106985  0.67695265  1  0  0.384643  0  0.919888  0  0  0.349297  0  1.005878  0  0  0.362624  0  0.993476  0  0  0.291123  0.340023  0  1.014388  0
H  H7  1  0.76260670  0.53892705  0.32304479  1  0  0.384616  0  0.919878  0  0  0.349271  0  1.005871  0  0  0.3626  0  0.99347  0  0  0.29115  0.339997  0  1.014379  0
H  H8  1  0.11584453  0.77836058  0.45833756  1  0  0.380706  0  0.89323  0  0  0.358678  0  0.963078  0  0  0.367965  0  0.952188  0  0  0.31709  0.352218  0  0.970582  0
H  H9  1  0.61584831  0.22163780  0.54166335  1  0  0.380711  0  0.893253  0  0  0.358687  0  0.963088  0  0  0.367971  0  0.952206  0  0  0.317097  0.352225  0  0.970592  0
H  H10  1  0.61584868  0.27836257  0.04166371  1  0  0.380738  0  0.893211  0  0  0.358706  0  0.963058  0  0  0.367992  0  0.952172  0  0  0.317094  0.352245  0  0.970561  0
H  H11  1  0.11584753  0.72163398  0.95833528  1  0  0.380761  0  0.893281  0  0  0.358742  0  0.963117  0  0  0.368031  0  0.952223  0  0  0.317123  0.352279  0  0.970622  0
H  H12  1  0.07716202  0.66190115  0.74507395  1  0  0.326335  0  0.89147  0  0  0.301476  0  0.960418  0  0  0.311735  0  0.951213  0  0  0.319736  0.294164  0  0.966991  0
H  H13  1  0.57716107  0.33809438  0.25492575  1  0  0.326333  0  0.891496  0  0  0.301439  0  0.960481  0  0  0.311697  0  0.951281  0  0  0.319735  0.294128  0  0.967051  0
H  H14  1  0.57716610  0.16190691  0.75492690  1  0  0.326281  0  0.891524  0  0  0.30143  0  0.960472  0  0  0.311689  0  0.951271  0  0  0.319732  0.294121  0  0.967038  0
H  H15  1  0.07716372  0.83809229  0.24507151  1  0  0.326342  0  0.891442  0  0  0.301459  0  0.96042  0  0  0.311717  0  0.951219  0  0  0.319734  0.294149  0  0.96699  0
H  H16  1  0.23563448  0.67231711  0.60764244  1  0  0.085119  0  0.928063  0  0  0.093936  0  0.993507  0  0  0.095181  0  0.992797  0  0  0.114993  0.093115  0  0.993882  0
H  H17  1  0.73563611  0.32768248  0.39235697  1  0  0.085145  0  0.928017  0  0  0.093967  0  0.993475  0  0  0.095208  0  0.992762  0  0  0.115002  0.093146  0  0.993851  0
H  H18  1  0.73564006  0.17231624  0.89235808  1  0  0.08515  0  0.928013  0  0  0.093961  0  0.993443  0  0  0.095199  0  0.992724  0  0  0.114991  0.093141  0  0.993819  0
H  H19  1  0.23563840  0.82768336  0.10763941  1  0  0.085187  0  0.928009  0  0  0.09398  0  0.99345  0  0  0.09522  0  0.992729  0  0  0.114989  0.093159  0  0.993827  0
H  H20  1  0.08944960  0.61533101  0.54130234  1  0  0.093669  0  0.957304  0  0  0.100561  0  1.021951  0  0  0.103517  0  1.01866  0  0  0.112176  0.098399  0  1.024337  0
H  H21  1  0.58944994  0.38466638  0.45869861  1  0  0.093713  0  0.957278  0  0  0.10061  0  1.021918  0  0  0.103565  0  1.018625  0  0  0.112196  0.098449  0  1.024304  0
H  H22  1  0.58945144  0.11533144  0.95869931  1  0  0.093729  0  0.957311  0  0  0.100604  0  1.021931  0  0  0.10355  0  1.018645  0  0  0.112194  0.098444  0  1.02432  0
H  H23  1  0.08945148  0.88466596  0.04129781  1  0  0.093702  0  0.957377  0  0  0.100626  0  1.021919  0  0  0.103562  0  1.018643  0  0  0.112217  0.098471  0  1.024301  0
H  H24  1  0.38813622  0.69486793  0.38988594  1  0  0.401689  0  0.905881  0  0  0.367419  0  0.987733  0  0  0.381529  0  0.970591  0  0  0.300276  0.35762  0  0.996968  0
H  H25  1  0.88814217  0.30513204  0.61011191  1  0  0.401647  0  0.905853  0  0  0.367385  0  0.987691  0  0  0.381494  0  0.970616  0  0  0.300262  0.357585  0  0.996924  0
H  H26  1  0.88814223  0.19487211  0.11011451  1  0  0.401744  0  0.905727  0  0  0.367451  0  0.987621  0  0  0.381561  0  0.970534  0  0  0.300271  0.357652  0  0.996856  0
H  H27  1  0.38814290  0.80513061  0.88988589  1  0  0.401574  0  0.905966  0  0  0.367371  0  0.9877  0  0  0.38148  0  0.970637  0  0  0.300257  0.357571  0  0.996932  0
H  H28  1  0.46068432  0.99548090  0.06319133  1  0  0.343433  0  0.922077  0  0  0.323447  0  0.991942  0  0  0.332164  0  0.981581  0  0  0.295765  0.317244  0  0.999321  0
H  H29  1  0.96068961  0.00452016  0.93680511  1  0  0.343434  0  0.922046  0  0  0.323446  0  0.991924  0  0  0.332165  0  0.981558  0  0  0.295785  0.317244  0  0.999303  0
H  H30  1  0.96068740  0.49548059  0.43680781  1  0  0.343468  0  0.922025  0  0  0.323482  0  0.991899  0  0  0.332199  0  0.981536  0  0  0.295785  0.317279  0  0.999276  0
H  H31  1  0.46068991  0.50452047  0.56319310  1  0  0.343478  0  0.922009  0  0  0.323497  0  0.991865  0  0  0.332214  0  0.981505  0  0  0.295812  0.317296  0  0.999243  0
H  H32  1  0.69853912  0.94883697  0.24106260  1  0  0.323085  0  0.925802  0  0  0.298149  0  0.994961  0  0  0.308816  0  0.986014  0  0  0.310796  0.290398  0  1.00152  0
H  H33  1  0.19854339  0.05116712  0.75893432  1  0  0.323119  0  0.925785  0  0  0.298188  0  0.99493  0  0  0.308852  0  0.985991  0  0  0.310812  0.290439  0  1.001488  0
H  H34  1  0.19854438  0.44883412  0.25893976  1  0  0.323116  0  0.925711  0  0  0.298181  0  0.994882  0  0  0.308853  0  0.985932  0  0  0.310786  0.290429  0  1.00144  0
H  H35  1  0.69854375  0.55116721  0.74106227  1  0  0.323129  0  0.92571  0  0  0.298212  0  0.994851  0  0  0.308881  0  0.985897  0  0  0.310799  0.290458  0  1.001417  0
H  H36  1  0.67781363  0.81293810  0.02154330  1  0  0.096059  0  0.919366  0  0  0.103268  0  0.987931  0  0  0.105043  0  0.986089  0  0  0.118785  0.102071  0  0.989119  0
H  H37  1  0.17781606  0.18706594  0.97845493  1  0  0.096063  0  0.91937  0  0  0.103252  0  0.987942  0  0  0.105028  0  0.986101  0  0  0.118793  0.102055  0  0.989129  0
H  H38  1  0.17781093  0.31293439  0.47845963  1  0  0.096099  0  0.919384  0  0  0.103279  0  0.987962  0  0  0.105058  0  0.986117  0  0  0.118786  0.102081  0  0.98915  0
H  H39  1  0.67781651  0.68706506  0.52154180  1  0  0.096041  0  0.919435  0  0  0.103233  0  0.987995  0  0  0.105009  0  0.986153  0  0  0.118772  0.102033  0  0.989183  0
H  H40  1  0.73702207  0.94724502  0.07771687  1  0  0.080548  0  0.940656  0  0  0.088509  0  1.00627  0  0  0.091071  0  1.00336  0  0  0.101934  0.086561  0  1.00848  0
H  H41  1  0.23702433  0.05275917  0.92228253  1  0  0.08054  0  0.940617  0  0  0.088496  0  1.006218  0  0  0.091061  0  1.003305  0  0  0.101952  0.086548  0  1.008427  0
H  H42  1  0.23702418  0.44723809  0.42228479  1  0  0.080552  0  0.940693  0  0  0.088511  0  1.006284  0  0  0.091075  0  1.003375  0  0  0.101936  0.086562  0  1.008494  0
H  H43  1  0.73702334  0.55275967  0.57771654  1  0  0.080593  0  0.9406  0  0  0.088545  0  1.006193  0  0  0.091109  0  1.003281  0  0  0.101967  0.086595  0  1.008401  0
C  C44  1  0.74398191  0.97980268  0.68235037  1  0  0.649408  0  3.917199  0  0  0.59435  0  4.227118  0  0  0.628294  0  4.217665  0  0  0.225573  0.571229  0  4.233038  0
C  C45  1  0.24398066  0.02019509  0.31765606  1  0  0.649633  0  3.917284  0  0  0.594493  0  4.227266  0  0  0.628439  0  4.217816  0  0  0.225693  0.571372  0  4.233185  0
C  C46  1  0.24398572  0.47980579  0.81765469  1  0  0.649609  0  3.917071  0  0  0.594489  0  4.227042  0  0  0.628434  0  4.21759  0  0  0.225707  0.571365  0  4.232957  0
C  C47  1  0.74398022  0.52019383  0.18234342  1  0  0.649563  0  3.917362  0  0  0.59452  0  4.227216  0  0  0.628467  0  4.217764  0  0  0.225695  0.571393  0  4.233132  0
C  C48  1  0.85973505  0.88151384  0.68368841  1  0  0.006012  0  3.771865  0  0  -0.001569  0  4.042213  0  0  -0.002165  0  4.062181  0  0  0.087795  -0.001504  0  4.029273  0
C  C49  1  0.35973529  0.11848147  0.31631460  1  0  0.005951  0  3.771917  0  0  -0.001659  0  4.042286  0  0  -0.002257  0  4.062257  0  0  0.087746  -0.001589  0  4.029341  0
C  C50  1  0.35973775  0.38151787  0.81631618  1  0  0.005972  0  3.771957  0  0  -0.00168  0  4.04235  0  0  -0.002277  0  4.062319  0  0  0.087749  -0.001601  0  4.02939  0
C  C51  1  0.85973371  0.61848294  0.18368300  1  0  0.005985  0  3.772034  0  0  -0.001693  0  4.042399  0  0  -0.002292  0  4.06237  0  0  0.087789  -0.001615  0  4.029441  0
C  C52  1  0.91500591  0.81091773  0.75185543  1  0  -0.019803  0  3.730531  0  0  -0.038092  0  4.0006  0  0  -0.0417  0  4.020479  0  0  0.078219  -0.035524  0  3.986945  0
C  C53  1  0.41500453  0.18907679  0.24814685  1  0  -0.019825  0  3.730503  0  0  -0.038049  0  4.000548  0  0  -0.041657  0  4.020426  0  0  0.078268  -0.035482  0  3.986897  0
C  C54  1  0.41500898  0.31092324  0.74814806  1  0  -0.019791  0  3.730619  0  0  -0.037943  0  4.000631  0  0  -0.04155  0  4.020509  0  0  0.078298  -0.03538  0  3.986975  0
C  C55  1  0.91500708  0.68907587  0.25185102  1  0  -0.019764  0  3.730683  0  0  -0.037917  0  4.000666  0  0  -0.041523  0  4.020545  0  0  0.078272  -0.035354  0  3.98701  0
C  C56  1  0.89133198  0.81359502  0.84429050  1  0  0.642224  0  3.88362  0  0  0.588938  0  4.191721  0  0  0.62351  0  4.18061  0  0  0.23373  0.565704  0  4.198224  0
C  C57  1  0.39133448  0.18640128  0.15571054  1  0  0.642362  0  3.883388  0  0  0.588963  0  4.191641  0  0  0.623538  0  4.180523  0  0  0.233741  0.565729  0  4.19815  0
C  C58  1  0.39133782  0.31360128  0.65571302  1  0  0.64225  0  3.883582  0  0  0.588801  0  4.191895  0  0  0.623374  0  4.180781  0  0  0.233669  0.565567  0  4.198402  0
C  C59  1  0.89133427  0.68639869  0.34428674  1  0  0.642146  0  3.883616  0  0  0.588728  0  4.191881  0  0  0.623301  0  4.180769  0  0  0.233688  0.565493  0  4.198388  0
C  C60  1  0.02406341  0.75667933  0.63050676  1  0  0.374925  0  3.652986  0  0  0.346352  0  3.927497  0  0  0.36076  0  3.940086  0  0  0.242059  0.336604  0  3.918953  0
C  C61  1  0.52406486  0.24331607  0.36949367  1  0  0.375082  0  3.65276  0  0  0.346449  0  3.927358  0  0  0.360852  0  3.939948  0  0  0.242106  0.336702  0  3.918816  0
C  C62  1  0.52406799  0.25668324  0.86949574  1  0  0.375057  0  3.652862  0  0  0.346434  0  3.927406  0  0  0.360836  0  3.939991  0  0  0.242141  0.336688  0  3.918865  0
C  C63  1  0.02406590  0.74331584  0.13050406  1  0  0.3751  0  3.652806  0  0  0.346487  0  3.927341  0  0  0.36089  0  3.939928  0  0  0.242163  0.336739  0  3.918798  0
C  C64  1  0.13535459  0.69916386  0.57112037  1  0  0.034252  0  3.660493  0  0  -0.016808  0  3.916562  0  0  -0.011632  0  3.918737  0  0  -0.055901  -0.020214  0  3.915022  0
C  C65  1  0.63535478  0.30083365  0.42887922  1  0  0.034174  0  3.660477  0  0  -0.016914  0  3.91663  0  0  -0.011723  0  3.918781  0  0  -0.055889  -0.020321  0  3.915089  0
C  C66  1  0.63535883  0.19916453  0.92888087  1  0  0.034005  0  3.660624  0  0  -0.01695  0  3.916535  0  0  -0.011743  0  3.918674  0  0  -0.055943  -0.020366  0  3.915009  0
C  C67  1  0.13535841  0.80083390  0.07111680  1  0  0.033962  0  3.66083  0  0  -0.016982  0  3.916705  0  0  -0.011772  0  3.918864  0  0  -0.055935  -0.020393  0  3.915161  0
C  C68  1  0.36954330  0.62239067  0.27116127  1  0  0.653813  0  3.865168  0  0  0.598486  0  4.171568  0  0  0.633362  0  4.160373  0  0  0.232462  0.574571  0  4.178843  0
C  C69  1  0.86953874  0.37760649  0.72883790  1  0  0.65398  0  3.865222  0  0  0.598586  0  4.17169  0  0  0.633473  0  4.160495  0  0  0.232503  0.574669  0  4.178965  0
C  C70  1  0.86953854  0.12239848  0.22884079  1  0  0.653626  0  3.865682  0  0  0.59833  0  4.172028  0  0  0.633201  0  4.160835  0  0  0.232362  0.574414  0  4.179305  0
C  C71  1  0.36953900  0.87760511  0.77115902  1  0  0.653832  0  3.865376  0  0  0.598491  0  4.171799  0  0  0.63336  0  4.160599  0  0  0.232442  0.574577  0  4.179074  0
C  C72  1  0.46925136  0.72063033  0.24038852  1  0  -0.014123  0  3.811069  0  0  -0.019667  0  4.079409  0  0  -0.021937  0  4.099199  0  0  0.080962  -0.017975  0  4.065729  0
C  C73  1  0.96925526  0.27936983  0.75961046  1  0  -0.014281  0  3.811117  0  0  -0.019735  0  4.079387  0  0  -0.022045  0  4.099229  0  0  0.080936  -0.018042  0  4.065704  0
C  C74  1  0.96924755  0.22063330  0.25961488  1  0  -0.014086  0  3.811058  0  0  -0.019663  0  4.079464  0  0  -0.021923  0  4.099247  0  0  0.081006  -0.01797  0  4.065783  0
C  C75  1  0.46925120  0.77937146  0.74038602  1  0  -0.014149  0  3.810963  0  0  -0.019692  0  4.079327  0  0  -0.021942  0  4.099094  0  0  0.080971  -0.018001  0  4.065647  0
C  C76  1  0.54723837  0.81058596  0.28623646  1  0  0.002088  0  3.716531  0  0  -0.01421  0  3.981266  0  0  -0.016025  0  4.000745  0  0  0.086035  -0.012959  0  3.96788  0
C  C77  1  0.04724227  0.18941501  0.71376074  1  0  0.002105  0  3.716644  0  0  -0.014247  0  3.981387  0  0  -0.016048  0  4.000873  0  0  0.08602  -0.012995  0  3.968  0
C  C78  1  0.04723939  0.31058808  0.21376481  1  0  0.002206  0  3.716406  0  0  -0.014159  0  3.981246  0  0  -0.015978  0  4.000725  0  0  0.086068  -0.012906  0  3.967858  0
C  C79  1  0.54724126  0.68941656  0.78623623  1  0  0.002126  0  3.716462  0  0  -0.014209  0  3.981272  0  0  -0.016029  0  4.000747  0  0  0.086019  -0.012955  0  3.967882  0
C  C80  1  0.55272009  0.83932516  0.37826661  1  0  0.633964  0  3.948133  0  0  0.58432  0  4.243199  0  0  0.618282  0  4.234529  0  0  0.22016  0.561273  0  4.248347  0
C  C81  1  0.05272328  0.16067582  0.62173185  1  0  0.633906  0  3.94832  0  0  0.58428  0  4.243364  0  0  0.618243  0  4.234691  0  0  0.220112  0.561231  0  4.248513  0
C  C82  1  0.05272274  0.33932986  0.12173581  1  0  0.633809  0  3.948342  0  0  0.584251  0  4.243316  0  0  0.618213  0  4.234645  0  0  0.220055  0.5612  0  4.248465  0
C  C83  1  0.55272175  0.66067571  0.87826457  1  0  0.633846  0  3.948187  0  0  0.584266  0  4.243193  0  0  0.618228  0  4.234523  0  0  0.220092  0.561215  0  4.248339  0
C  C84  1  0.58902214  0.83039162  0.14721381  1  0  0.347331  0  3.682734  0  0  0.319255  0  3.96587  0  0  0.332675  0  3.979151  0  0  0.225992  0.310371  0  3.957026  0
C  C85  1  0.08902521  0.16961129  0.85278650  1  0  0.347475  0  3.682627  0  0  0.319403  0  3.965716  0  0  0.332829  0  3.978993  0  0  0.226003  0.310515  0  3.956874  0
C  C86  1  0.08902351  0.33038801  0.35278858  1  0  0.347358  0  3.682674  0  0  0.319404  0  3.965655  0  0  0.33283  0  3.978934  0  0  0.225966  0.310517  0  3.956813  0
C  C87  1  0.58902384  0.66961398  0.64721302  1  0  0.347542  0  3.682544  0  0  0.319434  0  3.965712  0  0  0.332857  0  3.978995  0  0  0.226008  0.310546  0  3.956867  0
C  C88  1  0.64123002  0.88586723  0.06512285  1  0  0.030259  0  3.669098  0  0  -0.030112  0  3.946832  0  0  -0.02393  0  3.947297  0  0  -0.067464  -0.034335  0  3.946403  0
C  C89  1  0.14123467  0.11413763  0.93487481  1  0  0.030338  0  3.668989  0  0  -0.029964  0  3.946636  0  0  -0.023792  0  3.947111  0  0  -0.067415  -0.034181  0  3.946198  0
C  C90  1  0.14122981  0.38586296  0.43487730  1  0  0.030192  0  3.66924  0  0  -0.030132  0  3.946876  0  0  -0.023962  0  3.947348  0  0  -0.067439  -0.034346  0  3.946436  0
C  C91  1  0.64123151  0.61413732  0.56512356  1  0  0.030227  0  3.669093  0  0  -0.030042  0  3.946719  0  0  -0.023867  0  3.947188  0  0  -0.06742  -0.034253  0  3.946273  0
N  N92  1  0.92801975  0.84585873  0.60913164  1  0  -0.453936  0  3.051996  0  0  -0.417266  0  3.324852  0  0  -0.432526  0  3.339627  0  0  -0.346983  -0.407186  0  3.315256  0
N  N93  1  0.42801970  0.15413858  0.39087061  1  0  -0.453891  0  3.051869  0  0  -0.417209  0  3.324747  0  0  -0.43247  0  3.339523  0  0  -0.346964  -0.407132  0  3.315153  0
N  N94  1  0.42802428  0.34586124  0.89087168  1  0  -0.453897  0  3.05194  0  0  -0.417228  0  3.324842  0  0  -0.432488  0  3.33962  0  0  -0.346975  -0.407152  0  3.315241  0
N  N95  1  0.92801967  0.65414066  0.10912801  1  0  -0.453851  0  3.051907  0  0  -0.417184  0  3.324806  0  0  -0.432443  0  3.339584  0  0  -0.346974  -0.407109  0  3.315205  0
N  N96  1  0.01701286  0.73158648  0.71541808  1  0  -0.317709  0  3.376343  0  0  -0.261165  0  3.611756  0  0  -0.276839  0  3.6246  0  0  -0.357171  -0.250166  0  3.602931  0
N  N97  1  0.51701149  0.26840799  0.28458237  1  0  -0.317742  0  3.376273  0  0  -0.261136  0  3.611663  0  0  -0.276809  0  3.624512  0  0  -0.357178  -0.250137  0  3.602839  0
N  N98  1  0.51701791  0.23159107  0.78458389  1  0  -0.317713  0  3.376421  0  0  -0.261168  0  3.611791  0  0  -0.276843  0  3.624641  0  0  -0.357212  -0.25017  0  3.602964  0
N  N99  1  0.01701432  0.76840707  0.21541528  1  0  -0.317758  0  3.376404  0  0  -0.261226  0  3.611809  0  0  -0.276899  0  3.624659  0  0  -0.357221  -0.250229  0  3.602985  0
N  N100  1  0.49693443  0.73354277  0.15448653  1  0  -0.451418  0  3.043023  0  0  -0.414551  0  3.317423  0  0  -0.429089  0  3.33252  0  0  -0.350639  -0.405028  0  3.307363  0
N  N101  1  0.99694006  0.26646021  0.84551176  1  0  -0.451367  0  3.043034  0  0  -0.414525  0  3.317395  0  0  -0.429054  0  3.332504  0  0  -0.350598  -0.405002  0  3.307336  0
N  N102  1  0.99693464  0.23354228  0.34551613  1  0  -0.451372  0  3.043034  0  0  -0.414524  0  3.317405  0  0  -0.429068  0  3.332501  0  0  -0.350633  -0.405004  0  3.307348  0
N  N103  1  0.49693647  0.76645978  0.65448408  1  0  -0.451479  0  3.042951  0  0  -0.414593  0  3.317381  0  0  -0.429141  0  3.332475  0  0  -0.350662  -0.405071  0  3.307323  0
N  N104  1  0.62155603  0.87820249  0.22564684  1  0  -0.33127  0  3.38117  0  0  -0.275621  0  3.619609  0  0  -0.292827  0  3.635393  0  0  -0.357995  -0.263936  0  3.60918  0
N  N105  1  0.12156160  0.12180050  0.77435213  1  0  -0.33142  0  3.381128  0  0  -0.275743  0  3.619542  0  0  -0.29295  0  3.635317  0  0  -0.357992  -0.264061  0  3.609122  0
N  N106  1  0.12155671  0.37820135  0.27435466  1  0  -0.331376  0  3.380882  0  0  -0.275793  0  3.619368  0  0  -0.293005  0  3.635149  0  0  -0.358008  -0.264108  0  3.608945  0
N  N107  1  0.62155979  0.62180255  0.72564624  1  0  -0.331361  0  3.38097  0  0  -0.275738  0  3.619461  0  0  -0.292945  0  3.635245  0  0  -0.357959  -0.264055  0  3.609035  0
O  O108  1  0.69575271  0.01618112  0.61100548  1  0  -0.675012  0  1.995998  0  0  -0.619644  0  2.249968  0  0  -0.643682  0  2.239811  0  0  -0.345323  -0.602695  0  2.256471  0
O  O109  1  0.19574332  0.98381929  0.38899976  1  0  -0.675046  0  1.996009  0  0  -0.619695  0  2.250046  0  0  -0.643735  0  2.239891  0  0  -0.345324  -0.602745  0  2.256547  0
O  O110  1  0.19575232  0.51618153  0.88899893  1  0  -0.675041  0  1.995934  0  0  -0.619691  0  2.249965  0  0  -0.64373  0  2.239812  0  0  -0.34533  -0.602742  0  2.256465  0
O  O111  1  0.69574371  0.48381980  0.11099863  1  0  -0.675038  0  1.996058  0  0  -0.619721  0  2.250054  0  0  -0.643762  0  2.239898  0  0  -0.345317  -0.602771  0  2.256554  0
O  O112  1  0.69916335  0.02304414  0.75513876  1  0  -0.609547  0  2.017935  0  0  -0.553371  0  2.246132  0  0  -0.579368  0  2.237379  0  0  -0.304943  -0.535578  0  2.251945  0
O  O113  1  0.19916485  0.97694710  0.24486967  1  0  -0.609922  0  2.018157  0  0  -0.553531  0  2.246203  0  0  -0.579527  0  2.237447  0  0  -0.305086  -0.535737  0  2.252019  0
O  O114  1  0.19916713  0.52305032  0.74486689  1  0  -0.609901  0  2.018094  0  0  -0.553517  0  2.246122  0  0  -0.579515  0  2.237367  0  0  -0.305071  -0.535723  0  2.251939  0
O  O115  1  0.69916444  0.47694827  0.25513002  1  0  -0.609855  0  2.018228  0  0  -0.553483  0  2.246217  0  0  -0.57948  0  2.237463  0  0  -0.305079  -0.535688  0  2.252032  0
O  O116  1  0.81258059  0.90701216  0.87496052  1  0  -0.549401  0  2.094953  0  0  -0.488788  0  2.312699  0  0  -0.512126  0  2.299346  0  0  -0.309545  -0.472629  0  2.321245  0
O  O117  1  0.31258068  0.09298028  0.12504450  1  0  -0.549631  0  2.09473  0  0  -0.489006  0  2.312576  0  0  -0.512348  0  2.299221  0  0  -0.309609  -0.472846  0  2.321128  0
O  O118  1  0.31258323  0.40701867  0.62504278  1  0  -0.549607  0  2.094835  0  0  -0.488971  0  2.312698  0  0  -0.51231  0  2.299342  0  0  -0.309595  -0.472812  0  2.321248  0
O  O119  1  0.81258141  0.59297928  0.37495457  1  0  -0.549507  0  2.094778  0  0  -0.48888  0  2.312624  0  0  -0.512222  0  2.299275  0  0  -0.309571  -0.472721  0  2.321171  0
O  O120  1  0.94670182  0.73396350  0.89203956  1  0  -0.605894  0  1.986011  0  0  -0.558259  0  2.225984  0  0  -0.578574  0  2.213488  0  0  -0.301735  -0.544109  0  2.234122  0
O  O121  1  0.44669587  0.26603294  0.10795946  1  0  -0.605985  0  1.98599  0  0  -0.558306  0  2.226024  0  0  -0.57862  0  2.213528  0  0  -0.301764  -0.544157  0  2.234165  0
O  O122  1  0.44670342  0.23397015  0.60796225  1  0  -0.605915  0  1.98594  0  0  -0.558218  0  2.225978  0  0  -0.57853  0  2.213484  0  0  -0.301737  -0.54407  0  2.234118  0
O  O123  1  0.94669652  0.76603088  0.39203805  1  0  -0.605977  0  1.986033  0  0  -0.558291  0  2.226062  0  0  -0.578603  0  2.213566  0  0  -0.30182  -0.544143  0  2.234202  0
O  O124  1  0.18155439  0.78632470  0.50858776  1  0  -0.559174  0  2.131076  0  0  -0.504611  0  2.362802  0  0  -0.52128  0  2.352394  0  0  -0.410838  -0.492398  0  2.369554  0
O  O125  1  0.68155730  0.21367384  0.49141239  1  0  -0.559259  0  2.131166  0  0  -0.504665  0  2.362878  0  0  -0.521337  0  2.352465  0  0  -0.410898  -0.492453  0  2.369634  0
O  O126  1  0.68156278  0.28632394  0.99141497  1  0  -0.559135  0  2.131076  0  0  -0.50461  0  2.3628  0  0  -0.521285  0  2.352383  0  0  -0.410839  -0.492395  0  2.369557  0
O  O127  1  0.18156127  0.71367552  0.00858453  1  0  -0.559167  0  2.131335  0  0  -0.504691  0  2.363061  0  0  -0.521369  0  2.352652  0  0  -0.410909  -0.492476  0  2.369812  0
O  O128  1  0.32459626  0.54280900  0.21875842  1  0  -0.608115  0  2.020682  0  0  -0.556108  0  2.259404  0  0  -0.579368  0  2.249432  0  0  -0.319196  -0.539553  0  2.266378  0
O  O129  1  0.82458608  0.45718438  0.78124146  1  0  -0.608191  0  2.020837  0  0  -0.556184  0  2.2596  0  0  -0.579441  0  2.24962  0  0  -0.319232  -0.539629  0  2.266575  0
O  O130  1  0.82458222  0.04281913  0.28124402  1  0  -0.608013  0  2.020884  0  0  -0.556042  0  2.259605  0  0  -0.579297  0  2.249635  0  0  -0.319141  -0.539485  0  2.26658  0
O  O131  1  0.32458326  0.95718251  0.71875586  1  0  -0.6081  0  2.020873  0  0  -0.556127  0  2.259633  0  0  -0.579383  0  2.24966  0  0  -0.31919  -0.539573  0  2.266609  0
O  O132  1  0.32792162  0.62102345  0.35074119  1  0  -0.538993  0  2.061812  0  0  -0.485148  0  2.279579  0  0  -0.508171  0  2.263978  0  0  -0.306942  -0.469463  0  2.288676  0
O  O133  1  0.82792088  0.37897545  0.64925805  1  0  -0.538993  0  2.06183  0  0  -0.485144  0  2.279634  0  0  -0.508168  0  2.264067  0  0  -0.306938  -0.469459  0  2.288729  0
O  O134  1  0.82791730  0.12103099  0.14926094  1  0  -0.539008  0  2.061842  0  0  -0.485112  0  2.279556  0  0  -0.508136  0  2.26399  0  0  -0.306931  -0.469427  0  2.288652  0
O  O135  1  0.32791395  0.87897342  0.85073830  1  0  -0.538965  0  2.061755  0  0  -0.485124  0  2.279455  0  0  -0.508149  0  2.263904  0  0  -0.306945  -0.469439  0  2.288548  0
O  O136  1  0.46394553  0.77857226  0.42788648  1  0  -0.608223  0  2.13385  0  0  -0.547911  0  2.368123  0  0  -0.574265  0  2.357807  0  0  -0.324325  -0.529707  0  2.373641  0
O  O137  1  0.96395364  0.22143248  0.57211187  1  0  -0.608225  0  2.133753  0  0  -0.547917  0  2.368012  0  0  -0.574267  0  2.357719  0  0  -0.324329  -0.529713  0  2.373532  0
O  O138  1  0.96395626  0.27857033  0.07211351  1  0  -0.608252  0  2.13379  0  0  -0.547956  0  2.368048  0  0  -0.574306  0  2.357748  0  0  -0.324259  -0.529752  0  2.373569  0
O  O139  1  0.46395416  0.72143441  0.92788676  1  0  -0.608112  0  2.133861  0  0  -0.547854  0  2.368065  0  0  -0.574203  0  2.357779  0  0  -0.324262  -0.529649  0  2.373583  0
O  O140  1  0.63576408  0.92372168  0.40649657  1  0  -0.680467  0  2.01879  0  0  -0.622109  0  2.269484  0  0  -0.646567  0  2.260233  0  0  -0.375862  -0.604964  0  2.275582  0
O  O141  1  0.13576712  0.07627858  0.59350238  1  0  -0.680369  0  2.018848  0  0  -0.622045  0  2.269591  0  0  -0.646503  0  2.260339  0  0  -0.375818  -0.6049  0  2.275689  0
O  O142  1  0.13576240  0.42373121  0.09350728  1  0  -0.680343  0  2.018914  0  0  -0.622025  0  2.269589  0  0  -0.646482  0  2.260341  0  0  -0.375838  -0.604878  0  2.275684  0
O  O143  1  0.63576431  0.57627732  0.90649487  1  0  -0.680431  0  2.01881  0  0  -0.622081  0  2.269451  0  0  -0.646539  0  2.260201  0  0  -0.375858  -0.604935  0  2.275547  0
O  O144  1  0.52196585  0.94975469  0.02195633  1  0  -0.496279  0  2.043987  0  0  -0.450064  0  2.260405  0  0  -0.465219  0  2.249771  0  0  -0.398288  -0.439054  0  2.267438  0
O  O145  1  0.02196554  0.05025172  0.97804091  1  0  -0.496363  0  2.043915  0  0  -0.450205  0  2.260355  0  0  -0.46535  0  2.249703  0  0  -0.3984  -0.4392  0  2.26739  0
O  O146  1  0.02196877  0.44975373  0.47804315  1  0  -0.496315  0  2.043963  0  0  -0.45013  0  2.260381  0  0  -0.465285  0  2.249754  0  0  -0.398328  -0.439122  0  2.267411  0
O  O147  1  0.52196711  0.55024993  0.52195729  1  0  -0.496387  0  2.043974  0  0  -0.450212  0  2.260388  0  0  -0.46536  0  2.249742  0  0  -0.398403  -0.439207  0  2.267417  0
