# generated using pymatgen
data_Zn2H12C36N8ClF7
_symmetry_space_group_name_H-M   'P 1'
_cell_length_a   19.56924150
_cell_length_b   19.94137370
_cell_length_c   19.83243831
_cell_angle_alpha   68.29192976
_cell_angle_beta   69.09025688
_cell_angle_gamma   105.80821269
_symmetry_Int_Tables_number   1
_chemical_formula_structural   Zn2H12C36N8ClF7
_chemical_formula_sum   'Zn4 H24 C72 N16 Cl2 F14'
_cell_volume   5943.10804560
_cell_formula_units_Z   2
loop_
 _symmetry_equiv_pos_site_id
 _symmetry_equiv_pos_as_xyz
  1  'x, y, z'
loop_
 _atom_site_type_symbol
 _atom_site_label
 _atom_site_symmetry_multiplicity
 _atom_site_fract_x
 _atom_site_fract_y
 _atom_site_fract_z
 _atom_site_occupancy
 _atom_site_pbe_bader_charge
 _atom_site_pbe_bader_spin_density
 _atom_site_pbe_cm5_charge
 _atom_site_pbe_ddec_charge
 _atom_site_pbe_ddec_spin_density
 _atom_site_pbe_ddec_sum_bond_order
 _atom_site_pbe_magmom
Zn  Zn0  1  0.88726199  0.00063655  0.60486087  1  1.209377  0  0.75015  0.669558  0  2.423985  0
Zn  Zn1  1  0.10764821  0.00528469  0.39536875  1  1.214564  0  0.752242  0.689417  0  2.349518  0
Zn  Zn2  1  0.99807992  0.89730792  0.60246799  1  1.198507  0  0.754287  0.638554  0  2.460288  0
Zn  Zn3  1  0.99826938  0.10757864  0.39608507  1  1.20175  0  0.749063  0.650892  0  2.391838  0
H  H4  1  0.01929726  0.60952393  0.40804627  1  0.091207  0  0.11342  0.123107  0  0.969339  0
H  H5  1  0.58612562  0.98652781  0.43027512  1  0.096876  0  0.11222  0.121457  0  0.969547  0
H  H6  1  0.26688313  0.20113131  0.76338714  1  0.070226  0  0.113242  0.123199  0  0.97198  0
H  H7  1  0.97640652  0.04818044  0.99404178  1  0.068262  0  0.113017  0.12248  0  0.970894  0
H  H8  1  0.18128244  0.26403346  0.85075699  1  0.082142  0  0.113436  0.122787  0  0.971492  0
H  H9  1  0.06185220  0.98514240  0.90640530  1  0.085077  0  0.112621  0.122007  0  0.97007  0
H  H10  1  0.12355252  0.81912782  0.64120678  1  0.110015  0  0.128006  0.121352  0  0.976863  0
H  H11  1  0.87756058  0.00207593  0.35696375  1  0.078982  0  0.122616  0.113532  0  0.994504  0
H  H12  1  0.97420485  0.27278804  0.36438648  1  0.097414  0  0.125246  0.116853  0  0.982361  0
H  H13  1  0.86449141  0.73642955  0.62988050  1  0.094927  0  0.127286  0.121045  0  0.977636  0
H  H14  1  0.81976548  0.12852365  0.63702406  1  0.14462  0  0.125397  0.11666  0  0.984349  0
H  H15  1  0.73261356  0.39033949  0.57780396  1  0.095583  0  0.111535  0.120693  0  0.972714  0
H  H16  1  0.00950615  0.88210990  0.35616199  1  0.123779  0  0.122622  0.11554  0  0.991889  0
H  H17  1  0.14012044  0.00401869  0.61591671  1  0.094047  0  0.124673  0.11776  0  0.987232  0
H  H18  1  0.02159497  0.16501005  0.20260643  1  0.088345  0  0.126948  0.119018  0  0.976208  0
H  H19  1  0.95498861  0.45926011  0.55806467  1  0.094263  0  0.113669  0.123672  0  0.97084  0
H  H20  1  0.79697627  0.54027190  0.42756794  1  0.078906  0  0.110847  0.119744  0  0.975837  0
H  H21  1  0.62823513  0.53671711  0.16827685  1  0.101224  0  0.113278  0.122386  0  0.972491  0
H  H22  1  0.40463858  0.50647504  0.10426607  1  0.094898  0  0.114438  0.124217  0  0.967768  0
H  H23  1  0.49250672  0.64091443  0.11119185  1  0.07789  0  0.114355  0.124075  0  0.969719  0
H  H24  1  0.54085222  0.40231090  0.16120188  1  0.09543  0  0.11457  0.124619  0  0.969686  0
H  H25  1  0.54338434  0.78747933  0.41108023  1  0.082035  0  0.112769  0.122492  0  0.973305  0
H  H26  1  0.42845963  0.89901047  0.58077620  1  0.095382  0  0.112122  0.120874  0  0.970347  0
H  H27  1  0.38680312  0.70028191  0.56143485  1  0.098831  0  0.112592  0.121752  0  0.972401  0
C  C28  1  0.02419612  0.09473892  0.62000686  1  1.052164  0  0.212597  0.339037  0  4.057912  0
C  C29  1  0.79615966  0.43933766  0.53971192  1  -0.052167  0  -0.075833  -0.15045  0  3.633721  0
C  C30  1  0.92035676  0.47785522  0.52879135  1  -0.038531  0  -0.07466  -0.149254  0  3.631415  0
C  C31  1  0.83168436  0.52218156  0.45697636  1  -0.033192  0  -0.07538  -0.150405  0  3.636106  0
C  C32  1  0.88125053  0.29737331  0.50010598  1  -0.455711  0  -0.056483  -0.099437  0  4.199282  0
C  C33  1  0.89583064  0.70687875  0.48847525  1  -0.332017  0  -0.056238  -0.101186  0  4.193416  0
C  C34  1  0.91023081  0.51350238  0.41490765  1  0.604672  0  0.107895  0.269825  0  3.727246  0
C  C35  1  0.84175760  0.48623961  0.57089023  1  0.606862  0  0.109214  0.273604  0  3.722958  0
C  C36  1  0.87501467  0.42864798  0.49694132  1  0.096618  0  0.002623  0.086224  0  3.819685  0
C  C37  1  0.87701672  0.57120020  0.48882960  1  0.101629  0  0.002235  0.085121  0  3.814885  0
C  C38  1  0.87633254  0.35732955  0.49924382  1  0.114811  0  -0.063807  -0.128622  0  4.154996  0
C  C39  1  0.12529598  0.06280515  0.21757943  1  1.063005  0  0.209858  0.330139  0  4.09524  0
C  C40  1  0.88208399  0.64397743  0.48724691  1  0.05318  0  -0.064112  -0.128171  0  4.145184  0
C  C41  1  0.57877133  0.52972125  0.15379174  1  -0.043388  0  -0.074528  -0.149809  0  3.633536  0
C  C42  1  0.45468467  0.51393021  0.11785912  1  -0.05212  0  -0.072505  -0.145069  0  3.628407  0
C  C43  1  0.22769412  0.16068915  0.36977127  1  0.632939  0  0.117242  0.189847  0  4.101734  0
C  C44  1  0.78049579  0.85500052  0.79019494  1  0.630812  0  0.119669  0.192362  0  4.117455  0
C  C45  1  0.49526648  0.52718127  0.20469061  1  0.608183  0  0.108861  0.272715  0  3.713882  0
C  C46  1  0.53739618  0.51540757  0.06776597  1  0.615833  0  0.110401  0.271991  0  3.724665  0
C  C47  1  0.30732994  0.31278716  0.30927645  1  -0.076511  0  -0.059349  -0.06832  0  4.222778  0
C  C48  1  0.71556386  0.71911541  0.92571505  1  -0.310969  0  -0.06115  -0.070695  0  4.228967  0
C  C49  1  0.53069675  0.45565472  0.14983577  1  -0.04793  0  -0.073659  -0.146671  0  3.632998  0
C  C50  1  0.23559645  0.23932682  0.34995414  1  0.14756  0  -0.037425  -0.132182  0  4.211152  0
C  C51  1  0.50265683  0.58759473  0.12218612  1  -0.022516  0  -0.0733  -0.146415  0  3.632839  0
C  C52  1  0.44474238  0.45093959  0.20308350  1  0.124589  0  0.004524  0.082729  0  3.802  0
C  C53  1  0.58818228  0.59192913  0.06874419  1  0.088763  0  0.001664  0.081204  0  3.820631  0
C  C54  1  0.37098622  0.37727760  0.26610303  1  -0.234395  0  -0.055001  -0.115368  0  4.112293  0
C  C55  1  0.65905956  0.66235203  0.99557091  1  0.019945  0  -0.054072  -0.114717  0  4.12437  0
C  C56  1  0.43113484  0.76390788  0.53197766  1  -0.039299  0  -0.074996  -0.149135  0  3.629829  0
C  C57  1  0.54114957  0.92316171  0.45978452  1  -0.039771  0  -0.074897  -0.147442  0  3.633214  0
C  C58  1  0.51808325  0.81204332  0.44911349  1  -0.03971  0  -0.074624  -0.151499  0  3.632208  0
C  C59  1  0.45503149  0.87494616  0.54277372  1  -0.050113  0  -0.073911  -0.144539  0  3.633593  0
C  C60  1  0.70039011  0.88036434  0.48942089  1  0.058132  0  -0.056481  -0.075053  0  4.201559  0
C  C61  1  0.77782348  0.78233205  0.84342577  1  0.192803  0  -0.035653  -0.127698  0  4.209438  0
C  C62  1  0.28274311  0.85474016  0.50402913  1  -0.202437  0  -0.059375  -0.080265  0  4.218469  0
C  C63  1  0.47113786  0.80021510  0.57383855  1  0.611809  0  0.109974  0.271746  0  3.723768  0
C  C64  1  0.50156939  0.88668927  0.41799787  1  0.605803  0  0.109785  0.273905  0  3.725275  0
C  C65  1  0.56016146  0.84835777  0.49151000  1  0.08698  0  0.002435  0.084963  0  3.806396  0
C  C66  1  0.41274419  0.83903673  0.50029239  1  0.076163  0  0.001025  0.08075  0  3.818633  0
C  C67  1  0.14662002  0.85665728  0.57428676  1  0.44739  0  0.021538  -0.031868  0  3.969303  0
C  C68  1  0.85292717  0.97449318  0.42449391  1  0.486244  0  0.021909  -0.019939  0  3.935926  0
C  C69  1  0.63568518  0.85908318  0.48938915  1  -0.401274  0  -0.06117  -0.128284  0  4.125098  0
C  C70  1  0.34033740  0.84152495  0.50291189  1  -0.09175  0  -0.060001  -0.123505  0  4.141172  0
C  C71  1  0.15521045  0.20220142  0.86265665  1  -0.026688  0  -0.074153  -0.147543  0  3.63327  0
C  C72  1  0.21921811  0.87497493  0.50497015  1  0.152657  0  -0.037644  -0.074708  0  4.230271  0
C  C73  1  0.08789707  0.04684314  0.89483717  1  -0.034538  0  -0.074162  -0.146109  0  3.636522  0
C  C74  1  0.20234322  0.16745563  0.81435707  1  -0.022214  0  -0.075049  -0.150185  0  3.633092  0
C  C75  1  0.04076383  0.08165503  0.94266882  1  -0.030131  0  -0.074763  -0.148895  0  3.632667  0
C  C76  1  0.11182579  0.11084050  0.68564702  1  -0.373086  0  -0.057417  -0.078361  0  4.206416  0
C  C77  1  0.10567151  0.11089067  0.09148049  1  -0.389662  0  -0.060066  -0.084828  0  4.222528  0
C  C78  1  0.07908444  0.16140115  0.85699276  1  0.620927  0  0.109553  0.27162  0  3.720413  0
C  C79  1  0.16407277  0.08773575  0.90021890  1  0.61615  0  0.110828  0.271415  0  3.726384  0
C  C80  1  0.12591768  0.12690876  0.80628630  1  0.082582  0  0.002257  0.08364  0  3.811661  0
C  C81  1  0.11718793  0.12206783  0.95099175  1  0.110473  0  0.001587  0.082097  0  3.818389  0
C  C82  1  0.12430363  0.12431507  0.73648904  1  0.090614  0  -0.05926  -0.123363  0  4.131022  0
C  C83  1  0.77245742  0.91311643  0.49153441  1  0.179131  0  -0.03391  -0.07217  0  4.20738  0
C  C84  1  0.11217463  0.11746901  0.02557437  1  0.065279  0  -0.058068  -0.11885  0  4.14333  0
C  C85  1  0.93784149  0.22563121  0.43087801  1  0.448156  0  0.019279  -0.038702  0  3.961205  0
C  C86  1  0.90579857  0.78398427  0.56374253  1  0.453965  0  0.021899  -0.036513  0  3.915182  0
C  C87  1  0.21515180  0.92464484  0.43599735  1  1.059117  0  0.208097  0.333364  0  4.104741  0
C  C88  1  0.77850598  0.90304237  0.56290808  1  1.061407  0  0.212417  0.339044  0  4.059746  0
C  C89  1  0.85877279  0.15197243  0.57034279  1  0.395274  0  0.02155  -0.038016  0  3.957035  0
C  C90  1  0.98003298  0.85857976  0.42357681  1  0.455369  0  0.017541  -0.041264  0  3.919684  0
C  C91  1  0.15496898  0.22642899  0.36932051  1  1.094894  0  0.213797  0.345836  0  4.074926  0
C  C92  1  0.85145731  0.78770029  0.78879825  1  1.077842  0  0.212628  0.34155  0  4.097866  0
C  C93  1  0.09807186  0.02962377  0.61345303  1  0.458293  0  0.01963  -0.02507  0  3.939349  0
C  C94  1  0.89060421  0.22978982  0.50046431  1  0.127863  0  -0.02847  0.042988  0  4.199834  0
C  C95  1  0.05410457  0.13044084  0.21654299  1  0.454415  0  0.019409  -0.035584  0  3.977033  0
C  C96  1  0.08507845  0.08486544  0.63851143  1  0.140966  0  -0.034076  -0.069707  0  4.211862  0
C  C97  1  0.09631925  0.10252649  0.16814687  1  0.151958  0  -0.036094  -0.072393  0  4.233532  0
C  C98  1  0.92157198  0.77841549  0.49137917  1  0.004224  0  -0.025329  0.04782  0  4.18537  0
C  C99  1  0.95587837  0.56030619  0.44602214  1  -0.055926  0  -0.074568  -0.146869  0  3.631929  0
N  N100  1  0.00142126  0.04932394  0.58898180  1  -0.80257  0  -0.288357  -0.304109  0  3.576279  0
N  N101  1  0.85350376  0.95350190  0.54153393  1  -0.785766  0  -0.29014  -0.302265  0  3.606718  0
N  N102  1  0.88509357  0.10584923  0.54417561  1  -0.789251  0  -0.276288  -0.186252  0  3.578193  0
N  N103  1  0.99823500  0.90676838  0.45401748  1  -0.816436  0  -0.283121  -0.196306  0  3.631124  0
N  N104  1  0.10470591  0.14986542  0.39682450  1  -0.793939  0  -0.282511  -0.282548  0  3.570771  0
N  N105  1  0.89340754  0.85470195  0.71244776  1  -0.801013  0  -0.275825  -0.273776  0  3.521788  0
N  N106  1  0.04768292  0.00869495  0.58495024  1  -0.799284  0  -0.287313  -0.186291  0  3.630264  0
N  N107  1  0.05861403  0.10888717  0.28691397  1  -0.81212  0  -0.270162  -0.171821  0  3.545401  0
N  N108  1  0.10362516  0.06614041  0.28754654  1  -0.79316  0  -0.274684  -0.293877  0  3.5051  0
N  N109  1  0.15050828  0.10833652  0.39689064  1  -0.788605  0  -0.279283  -0.239226  0  3.579062  0
N  N110  1  0.84836031  0.89753087  0.71325006  1  -0.798313  0  -0.27372  -0.233788  0  3.532167  0
N  N111  1  0.10516709  0.89282370  0.54748704  1  -0.806669  0  -0.272016  -0.167994  0  3.55945  0
N  N112  1  0.89986764  0.99801544  0.45515934  1  -0.813327  0  -0.281681  -0.183806  0  3.631545  0
N  N113  1  0.93442061  0.15167063  0.45736323  1  -0.805302  0  -0.276276  -0.190624  0  3.571794  0
N  N114  1  0.95275822  0.86096930  0.53997165  1  -0.775215  0  -0.287025  -0.188749  0  3.643376  0
N  N115  1  0.14862193  0.93602154  0.46014089  1  -0.804491  0  -0.279078  -0.303621  0  3.536777  0
Cl  Cl116  1  0.30361923  0.13270101  0.35980518  1  -0.163668  0  0.022751  -0.041678  0  1.516496  0
Cl  Cl117  1  0.71020142  0.88967442  0.81329013  1  -0.173457  0  0.019248  -0.049203  0  1.465083  0
F  F118  1  0.98802665  0.14045007  0.63282996  1  -0.633763  0  -0.080104  -0.125798  0  1.355752  0
F  F119  1  0.03549303  0.19944974  0.83470911  1  -0.638138  0  -0.128862  -0.185401  0  1.272515  0
F  F120  1  0.26910579  0.96004937  0.35363532  1  -0.629376  0  -0.087315  -0.134397  0  1.351859  0
F  F121  1  0.71927974  0.85215361  0.64435946  1  -0.631889  0  -0.084179  -0.129088  0  1.350439  0
F  F122  1  0.12751623  0.28192781  0.36056542  1  -0.635434  0  -0.078399  -0.124735  0  1.358952  0
F  F123  1  0.88127028  0.73437589  0.80559062  1  -0.630915  0  -0.086777  -0.132731  0  1.326472  0
F  F124  1  0.16932004  0.02368088  0.20223635  1  -0.634198  0  -0.086276  -0.133329  0  1.331575  0
F  F125  1  0.80646264  0.47250993  0.65112282  1  -0.632244  0  -0.130663  -0.18793  0  1.27263  0
F  F126  1  0.94553834  0.52722153  0.33461051  1  -0.636768  0  -0.133824  -0.191254  0  1.271863  0
F  F127  1  0.47395194  0.53366278  0.27484824  1  -0.633484  0  -0.131389  -0.189274  0  1.270516  0
F  F128  1  0.55985465  0.51006254  0.99705127  1  -0.632346  0  -0.126192  -0.181519  0  1.277197  0
F  F129  1  0.51685291  0.93099046  0.33789278  1  -0.633955  0  -0.130102  -0.186897  0  1.273598  0
F  F130  1  0.45537144  0.75559572  0.65408320  1  -0.633325  0  -0.129857  -0.186017  0  1.273482  0
F  F131  1  0.20761283  0.04973175  0.92269579  1  -0.638541  0  -0.129526  -0.185842  0  1.273337  0
