# generated using pymatgen
data_CoH18C17(NO2)3
_symmetry_space_group_name_H-M   'P 1'
_cell_length_a   8.31973492
_cell_length_b   10.23976721
_cell_length_c   10.78985547
_cell_angle_alpha   80.51202137
_cell_angle_beta   78.45238070
_cell_angle_gamma   73.02654053
_symmetry_Int_Tables_number   1
_chemical_formula_structural   CoH18C17(NO2)3
_chemical_formula_sum   'Co2 H36 C34 N6 O12'
_cell_volume   855.80391457
_cell_formula_units_Z   2
loop_
 _symmetry_equiv_pos_site_id
 _symmetry_equiv_pos_as_xyz
  1  'x, y, z'
loop_
 _atom_site_type_symbol
 _atom_site_label
 _atom_site_symmetry_multiplicity
 _atom_site_fract_x
 _atom_site_fract_y
 _atom_site_fract_z
 _atom_site_occupancy
 _atom_site_hle17_ddec_charge
 _atom_site_hle17_ddec_spin_density
 _atom_site_hle17_ddec_sum_bond_order
 _atom_site_hle17_magmom
 _atom_site_hse06_10hf_ddec_charge
 _atom_site_hse06_10hf_ddec_spin_density
 _atom_site_hse06_10hf_ddec_sum_bond_order
 _atom_site_hse06_10hf_magmom
 _atom_site_hse06_ddec_charge
 _atom_site_hse06_ddec_spin_density
 _atom_site_hse06_ddec_sum_bond_order
 _atom_site_hse06_magmom
 _atom_site_pbe_cm5_charge
 _atom_site_pbe_ddec_charge
 _atom_site_pbe_ddec_spin_density
 _atom_site_pbe_ddec_sum_bond_order
 _atom_site_pbe_magmom
Co  Co0  1  0.21356377  0.33574982  0.85721939  1  0.96575  -2.851451  1.913329  -2.57  0.928559  -2.848516  2.319433  -2.64  1.010025  -2.886377  2.244547  -2.713  0.639377  0.863129  -2.818072  2.381556  -2.575
Co  Co1  1  0.78645641  0.66423739  0.14278127  1  0.965784  -2.851417  1.913367  -2.57  0.928586  -2.848489  2.319453  -2.64  1.010108  -2.886347  2.244471  -2.713  0.639421  0.863164  -2.818062  2.381568  -2.575
H  H2  1  0.35625301  0.49687411  0.61029335  1  0.080462  -0.000168  0.956629  -0.001  0.089873  -0.000165  1.018758  -0.001  0.092417  -7.3e-05  1.016503  -0.001  0.116964  0.087612  -0.000239  1.020893  -0.001
H  H3  1  0.64374896  0.50312074  0.38970249  1  0.080439  -0.000168  0.956654  -0.001  0.089915  -0.000165  1.018696  -0.001  0.09247  -7.3e-05  1.016429  -0.001  0.116975  0.087653  -0.000239  1.020829  -0.001
H  H4  1  0.90848022  0.35237406  0.98020656  1  0.413705  0.000559  0.892639  0.001  0.385791  -0.000105  0.956348  0.0  0.397208  0.000109  0.940263  0.0  0.289226  0.377585  -0.000371  0.967773  0.0
H  H5  1  0.09151898  0.64762595  0.01978987  1  0.413645  0.000559  0.892673  0.001  0.385737  -0.000104  0.956421  0.0  0.397155  0.00011  0.940334  0.0  0.28921  0.377532  -0.00037  0.967847  0.0
H  H6  1  0.98561349  0.22236211  0.89290196  1  0.415641  0.000477  0.888  0.0  0.386006  -0.000164  0.954971  -0.001  0.398203  7.5e-05  0.937544  0.0  0.286171  0.377353  -0.00039  0.96719  -0.001
H  H7  1  0.01437247  0.77764532  0.10710097  1  0.415715  0.000477  0.888062  0.0  0.386026  -0.000164  0.955016  -0.001  0.398227  7.5e-05  0.937582  0.0  0.286181  0.377372  -0.00039  0.967238  -0.001
H  H8  1  0.34902661  0.52192239  0.37514824  1  0.112473  -0.000274  0.954486  0.0  0.120885  -0.000351  1.016469  0.0  0.12533  -0.000233  1.014079  0.0  0.107369  0.117346  -0.00049  1.018675  0.0
H  H9  1  0.65098157  0.47808050  0.62484175  1  0.112433  -0.000275  0.954612  0.0  0.120817  -0.000351  1.0166  0.0  0.125253  -0.000234  1.014221  0.0  0.107365  0.11728  -0.00049  1.018801  0.0
H  H10  1  0.84126265  0.21208491  0.61303075  1  0.285747  -2.1e-05  0.888414  0.0  0.280847  -4.1e-05  0.933082  0.0  0.286712  -3.2e-05  0.929731  0.0  0.321853  0.276593  -4.2e-05  0.935647  0.0
H  H11  1  0.15875106  0.78791171  0.38696117  1  0.285659  -2.1e-05  0.888392  0.0  0.280772  -4e-05  0.933055  0.0  0.286637  -3.3e-05  0.929703  0.0  0.321827  0.276521  -4.2e-05  0.935617  0.0
H  H12  1  0.87572665  0.62054833  0.89709540  1  0.322938  0.001808  0.876137  0.002  0.312779  0.000868  0.933618  0.0  0.318494  0.000861  0.929794  0.0  0.307452  0.308595  0.000859  0.936415  0.0
H  H13  1  0.12427229  0.37945669  0.10291052  1  0.322942  0.001808  0.876086  0.002  0.312727  0.000868  0.933654  0.0  0.318441  0.000861  0.92983  0.0  0.307412  0.308543  0.000859  0.936451  0.0
H  H14  1  0.84555768  0.78567859  0.89802534  1  0.32751  0.001364  0.855123  0.001  0.324811  0.000575  0.89838  0.0  0.330495  0.000608  0.894757  0.0  0.317733  0.320665  0.000514  0.901044  0.0
H  H15  1  0.15443663  0.21432136  0.10199132  1  0.327453  0.001363  0.855137  0.001  0.324745  0.000574  0.898427  0.0  0.330431  0.000608  0.894797  0.0  0.31772  0.320598  0.000514  0.901094  0.0
H  H16  1  0.17017242  0.39934738  0.30050263  1  0.101933  3.1e-05  0.962236  0.0  0.111333  0.000205  1.026327  0.0  0.114586  0.000151  1.023092  0.0  0.110244  0.108385  0.000305  1.029583  0.0
H  H17  1  0.82983357  0.60065043  0.69949215  1  0.101967  3.1e-05  0.962199  0.0  0.111362  0.000205  1.026296  0.0  0.114616  0.000152  1.023061  0.0  0.110245  0.108414  0.000305  1.029555  0.0
H  H18  1  0.04894423  0.23215910  0.68952200  1  0.084725  -0.000132  0.971976  -0.001  0.09144  -0.000183  1.039597  -0.001  0.094953  -8.2e-05  1.035526  -0.001  0.120988  0.088333  -0.000253  1.043259  -0.001
H  H19  1  0.95105252  0.76784509  0.31047048  1  0.084642  -0.000132  0.971937  -0.001  0.091383  -0.000183  1.039586  -0.001  0.094898  -8.2e-05  1.035514  -0.001  0.120921  0.088274  -0.000253  1.043245  -0.001
H  H20  1  0.68757979  0.21263605  0.40565682  1  0.047023  -5.7e-05  0.932824  0.0  0.065486  -4.4e-05  0.996816  0.0  0.063976  -3.2e-05  0.998996  0.0  0.097606  0.066633  -4.3e-05  0.995186  0.0
H  H21  1  0.31242096  0.78736288  0.59434231  1  0.047011  -5.8e-05  0.932819  0.0  0.065478  -4.4e-05  0.996818  0.0  0.063966  -3.2e-05  0.998996  0.0  0.097602  0.066623  -4.3e-05  0.995188  0.0
H  H22  1  0.82771033  0.04727214  0.42210551  1  0.064653  -2.3e-05  0.922943  0.0  0.080768  -1.2e-05  0.9858  0.0  0.08065  -9e-06  0.986169  0.0  0.103726  0.080581  -1.2e-05  0.98606  0.0
H  H23  1  0.17228702  0.95272585  0.57789429  1  0.064672  -2.4e-05  0.92295  0.0  0.080801  -1.2e-05  0.985805  0.0  0.080681  -9e-06  0.986172  0.0  0.103748  0.080612  -1.2e-05  0.986061  0.0
H  H24  1  0.56635972  0.17608511  0.64455537  1  0.077566  0.000289  0.932147  0.0  0.094978  0.000289  0.992514  0.0  0.096089  0.000251  0.992179  0.0  0.091983  0.093962  0.000311  0.992926  0.0
H  H25  1  0.43364355  0.82392189  0.35544496  1  0.077619  0.000289  0.932173  0.0  0.095023  0.000289  0.992544  0.0  0.096134  0.000251  0.992213  0.0  0.091996  0.094008  0.000311  0.992954  0.0
H  H26  1  0.68328299  0.00190717  0.64422909  1  0.074708  -3.4e-05  0.939048  0.0  0.092991  -2.2e-05  0.999488  0.0  0.093807  -2.1e-05  1.000038  0.0  0.088353  0.092133  -3e-05  0.99939  0.0
H  H27  1  0.31671595  0.99809789  0.35577312  1  0.074711  -3.4e-05  0.939055  0.0  0.093008  -2.2e-05  0.999478  0.0  0.093835  -2.1e-05  1.000015  0.0  0.088341  0.092149  -3e-05  0.999378  0.0
H  H28  1  0.37378933  0.05791761  0.61493835  1  0.060495  0.000239  0.963454  0.0  0.07834  0.000156  1.027103  0.0  0.077995  0.000118  1.029111  0.0  0.085689  0.078207  0.000217  1.026167  0.0
H  H29  1  0.62621115  0.94208637  0.38506564  1  0.060551  0.000238  0.96348  0.0  0.078376  0.000156  1.027103  0.0  0.078031  0.000118  1.029111  0.0  0.085714  0.078243  0.000217  1.026165  0.0
H  H30  1  0.42221408  0.15402813  0.46802363  1  0.051663  3.4e-05  0.962899  0.0  0.071842  2.8e-05  1.023766  0.0  0.070952  1.9e-05  1.027258  0.0  0.0815  0.07255  4.9e-05  1.021272  0.0
H  H31  1  0.57778362  0.84597694  0.53198062  1  0.051684  3.3e-05  0.962941  0.0  0.071839  2.8e-05  1.023781  0.0  0.070948  1.9e-05  1.027276  0.0  0.081497  0.072549  4.9e-05  1.021289  0.0
H  H32  1  0.57401458  0.95476538  0.89859165  1  0.119746  0.000261  0.938088  0.0  0.129931  -8e-06  0.997892  0.0  0.133844  5.3e-05  0.994948  0.0  0.112611  0.126812  -8.7e-05  1.000316  0.0
H  H33  1  0.42598250  0.04523767  0.10141207  1  0.119806  0.000261  0.937965  0.0  0.12995  -8e-06  0.997828  0.0  0.133866  5.3e-05  0.994875  0.0  0.11261  0.126831  -8.7e-05  1.000255  0.0
H  H34  1  0.64493190  0.52179836  0.88538541  1  0.11774  0.000234  0.942347  0.0  0.128045  -0.00016  1.003399  0.0  0.131903  -6.7e-05  1.000869  0.0  0.108031  0.125152  -0.000235  1.005185  0.0
H  H35  1  0.35507165  0.47820354  0.11461470  1  0.11774  0.000233  0.942427  0.0  0.128055  -0.00016  1.00347  0.0  0.131912  -6.7e-05  1.00094  0.0  0.108041  0.125164  -0.000235  1.005257  0.0
H  H36  1  0.16144542  0.81220024  0.83896145  1  0.115347  0.000437  0.956451  0.001  0.118754  -3.4e-05  1.029671  0.0  0.123809  1.5e-05  1.024652  0.0  0.106474  0.115028  -0.000142  1.033811  0.0
H  H37  1  0.83855596  0.18780070  0.16103914  1  0.115352  0.000435  0.956453  0.001  0.11877  -3.4e-05  1.029644  0.0  0.12382  1.6e-05  1.024635  0.0  0.106464  0.115041  -0.000141  1.033782  0.0
C  C38  1  0.28338528  0.44467982  0.57217027  1  0.131569  0.014661  3.678576  0.01  0.100255  0.003704  3.936506  0.002  0.109983  0.002675  3.952293  0.002  0.046309  0.09311  0.006048  3.927088  0.003
C  C39  1  0.71660744  0.55531724  0.42783315  1  0.131555  0.014642  3.678563  0.01  0.100186  0.003702  3.936434  0.002  0.109906  0.002672  3.95222  0.002  0.046274  0.093043  0.006048  3.927012  0.003
C  C40  1  0.27812590  0.45871702  0.44243831  1  -0.127744  -0.006175  3.736339  -0.009  -0.138942  -0.001902  3.993246  -0.003  -0.147343  -0.001475  4.012376  -0.002  -0.083453  -0.133869  -0.002268  3.982303  -0.004
C  C41  1  0.72187302  0.54128809  0.55755834  1  -0.127687  -0.006168  3.73644  -0.009  -0.138851  -0.001902  3.993343  -0.003  -0.147245  -0.001475  4.012475  -0.002  -0.083482  -0.133779  -0.002268  3.982403  -0.004
C  C42  1  0.18048730  0.39062059  0.40042622  1  -0.005711  0.015652  3.692101  0.01  -0.036494  0.004605  3.939578  0.003  -0.028777  0.002405  3.954178  0.001  -0.061212  -0.043043  0.0093  3.931893  0.005
C  C43  1  0.81952239  0.60937715  0.59956615  1  -0.005744  0.015644  3.692137  0.01  -0.036529  0.004605  3.939612  0.003  -0.028813  0.002402  3.954208  0.001  -0.06119  -0.04308  0.009301  3.931933  0.005
C  C44  1  0.09335572  0.30851574  0.48853624  1  -0.109368  -0.005558  3.764508  -0.008  -0.082869  -0.001697  3.999721  -0.003  -0.094044  -0.001305  4.021894  -0.002  -0.00702  -0.075891  -0.002067  3.986191  -0.003
C  C45  1  0.90664470  0.69148432  0.51145166  1  -0.109354  -0.005552  3.764467  -0.008  -0.082862  -0.001697  3.999721  -0.003  -0.094037  -0.001304  4.021894  -0.002  -0.007033  -0.075877  -0.002066  3.986193  -0.003
C  C46  1  0.10782948  0.29887214  0.61668289  1  0.110074  0.015788  3.669059  0.01  0.07296  0.004227  3.924261  0.003  0.082893  0.002942  3.939542  0.002  0.053121  0.065594  0.006833  3.915556  0.004
C  C47  1  0.89217249  0.70112685  0.38330677  1  0.110219  0.015773  3.668693  0.01  0.072966  0.004227  3.924027  0.003  0.082897  0.00294  3.939308  0.002  0.053212  0.065606  0.006833  3.915319  0.004
C  C48  1  0.99316214  0.23379775  0.43883370  1  0.531461  0.000193  3.881639  0.0  0.481579  -0.000167  4.177195  0.0  0.510336  -0.000113  4.1781  0.0  0.235372  0.462661  -0.000222  4.175819  0.0
C  C49  1  0.00683736  0.76620128  0.56115819  1  0.531422  0.000194  3.881666  0.0  0.481612  -0.000167  4.177093  0.0  0.510367  -0.000113  4.177998  0.0  0.235379  0.462676  -0.000222  4.175761  0.0
C  C50  1  0.75241016  0.13379245  0.47549834  1  0.074377  -2.9e-05  3.654754  0.0  0.01541  -6.2e-05  3.92253  0.0  0.021691  -5e-05  3.934184  0.0  -0.062063  0.011163  -7.8e-05  3.914512  0.0
C  C51  1  0.24759090  0.86620545  0.52450090  1  0.074438  -2.6e-05  3.654661  0.0  0.015432  -6.2e-05  3.922498  0.0  0.021721  -5e-05  3.934142  0.0  -0.062037  0.011202  -7.8e-05  3.914465  0.0
C  C52  1  0.62125777  0.09247417  0.58333952  1  -0.141703  8e-05  3.672112  0.0  -0.181238  8.7e-05  3.934086  0.0  -0.182547  7.8e-05  3.946505  0.0  -0.167081  -0.180028  6.9e-05  3.925559  0.0
C  C53  1  0.37874207  0.90752783  0.41666115  1  -0.141753  7.6e-05  3.672233  0.0  -0.181324  8.7e-05  3.934206  0.0  -0.182647  7.8e-05  3.946628  0.0  -0.167094  -0.180118  6.9e-05  3.925675  0.0
C  C54  1  0.47551963  0.06457179  0.53380804  1  -0.10281  0.000204  3.680357  0.0  -0.138588  0.000153  3.933203  0.0  -0.139754  0.000101  3.949544  0.0  -0.171132  -0.137696  0.000239  3.921909  0.0
C  C55  1  0.52447868  0.93543123  0.46619550  1  -0.103054  0.000215  3.680594  0.0  -0.138674  0.000153  3.93332  0.0  -0.139844  9.9e-05  3.949666  0.0  -0.171168  -0.137783  0.000239  3.922028  0.0
C  C56  1  0.24604034  0.04251371  0.85995891  1  0.636141  0.009292  3.896739  0.006  0.592738  0.002576  4.192586  0.001  0.629485  0.001606  4.185578  0.0  0.209876  0.566497  0.004381  4.196291  0.002
C  C57  1  0.75396158  0.95746886  0.14004340  1  0.636042  0.009291  3.896957  0.006  0.592679  0.002575  4.192753  0.001  0.629423  0.001605  4.185747  0.0  0.209829  0.566441  0.004378  4.196453  0.002
C  C58  1  0.35711438  0.89751980  0.86801242  1  -0.040612  0.001182  3.757407  -0.001  -0.014496  -0.000898  3.989951  -0.002  -0.022041  0.000688  4.011259  0.0  -0.01464  -0.010029  -0.001864  3.977221  -0.003
C  C59  1  0.64288391  0.10247915  0.13199079  1  -0.040545  0.001165  3.757109  -0.001  -0.01444  -0.000898  3.989649  -0.002  -0.021984  0.000688  4.010958  0.0  -0.014616  -0.009978  -0.001865  3.976912  -0.003
C  C60  1  0.52520629  0.86990382  0.88863729  1  -0.13898  -0.005778  3.636417  -0.007  -0.174571  -0.003191  3.887123  -0.004  -0.173038  -0.003158  3.90231  -0.004  -0.078381  -0.173825  -0.003908  3.87634  -0.005
C  C61  1  0.47479018  0.13010128  0.11136715  1  -0.138977  -0.005769  3.636226  -0.007  -0.174524  -0.003191  3.886963  -0.004  -0.172989  -0.003158  3.902152  -0.004  -0.078348  -0.173779  -0.003909  3.876174  -0.005
C  C62  1  0.62859466  0.73477277  0.89817678  1  0.28473  0.010498  3.793758  0.008  0.284769  0.003693  4.054196  0.003  0.29033  0.004943  4.075816  0.004  0.090839  0.280184  0.002363  4.038647  0.002
C  C63  1  0.37139625  0.26523035  0.10183622  1  0.284753  0.010481  3.793583  0.008  0.284753  0.003693  4.05405  0.003  0.290312  0.004942  4.075673  0.004  0.090824  0.280168  0.002364  4.038498  0.002
C  C64  1  0.56564870  0.62763434  0.88097973  1  -0.164076  -0.006135  3.677856  -0.008  -0.196267  -0.003689  3.927268  -0.005  -0.198011  -0.003505  3.946782  -0.005  -0.087999  -0.193247  -0.004715  3.913167  -0.006
C  C65  1  0.43434868  0.37236767  0.11902503  1  -0.164177  -0.006128  3.67787  -0.008  -0.196353  -0.00369  3.927293  -0.005  -0.198098  -0.003505  3.946811  -0.005  -0.088028  -0.193335  -0.004717  3.913189  -0.006
C  C66  1  0.39719465  0.65532361  0.86144242  1  -0.063029  0.004529  3.815935  0.003  -0.037339  0.001387  4.053907  0.001  -0.04467  0.002713  4.075458  0.002  -0.02384  -0.033069  0.000868  4.040805  0.001
C  C67  1  0.60280735  0.34467937  0.13855499  1  -0.062964  0.004512  3.81572  0.003  -0.03729  0.001388  4.053714  0.001  -0.044619  0.002713  4.075268  0.002  -0.023894  -0.033025  0.000868  4.040603  0.001
C  C68  1  0.32802496  0.53967554  0.85313615  1  0.615567  0.015795  3.902807  0.011  0.567764  0.007227  4.202129  0.005  0.603546  0.005716  4.197328  0.004  0.197639  0.542059  0.009377  4.203934  0.007
C  C69  1  0.67197554  0.46033250  0.14686909  1  0.615488  0.015787  3.903279  0.011  0.567648  0.007224  4.202649  0.005  0.603426  0.005714  4.197864  0.004  0.197568  0.541948  0.009371  4.20444  0.007
C  C70  1  0.29178979  0.78986113  0.85619312  1  -0.090795  -0.008969  3.709846  -0.011  -0.131787  -0.005971  3.963866  -0.007  -0.129687  -0.004788  3.980984  -0.006  -0.08561  -0.135267  -0.006277  3.95518  -0.007
C  C71  1  0.70821160  0.21013979  0.14380933  1  -0.090875  -0.008959  3.709773  -0.011  -0.131859  -0.005972  3.963806  -0.007  -0.129761  -0.004788  3.980926  -0.006  -0.085621  -0.135335  -0.006278  3.955106  -0.007
N  N72  1  0.19992129  0.36607739  0.65858449  1  -0.306076  -0.032628  3.274552  -0.062  -0.258018  -0.024141  3.561914  -0.042  -0.281461  -0.019778  3.575379  -0.034  -0.319566  -0.242276  -0.027528  3.555432  -0.048
N  N73  1  0.80008035  0.63391440  0.34141279  1  -0.306121  -0.032628  3.27438  -0.062  -0.257968  -0.024144  3.561741  -0.042  -0.281419  -0.019781  3.575197  -0.034  -0.319566  -0.242226  -0.02753  3.555256  -0.048
N  N74  1  0.86942649  0.18954168  0.52169172  1  -0.431237  -0.000297  3.308231  0.0  -0.376572  -8e-05  3.560128  0.0  -0.398574  -5.3e-05  3.570138  0.0  -0.419651  -0.361338  -7.5e-05  3.552895  0.0
N  N75  1  0.13057671  0.81045315  0.47830301  1  -0.431166  -0.000297  3.308221  0.0  -0.376508  -8e-05  3.560091  0.0  -0.398509  -5.3e-05  3.570098  0.0  -0.4197  -0.361282  -7.5e-05  3.552872  0.0
N  N76  1  0.79220886  0.70610896  0.93239672  1  -0.658687  -0.031023  3.175373  -0.057  -0.639267  -0.021661  3.428557  -0.035  -0.663549  -0.017267  3.425638  -0.029  -0.596603  -0.620766  -0.025822  3.430459  -0.04
N  N77  1  0.20778542  0.29389108  0.06760973  1  -0.6587  -0.031024  3.175301  -0.057  -0.639218  -0.021662  3.428515  -0.035  -0.663493  -0.017268  3.425615  -0.029  -0.596579  -0.620722  -0.025825  3.430422  -0.04
O  O78  1  0.32387970  0.13632168  0.85084825  1  -0.628379  -0.04895  2.113301  -0.086  -0.595073  -0.036704  2.395377  -0.06  -0.635867  -0.02759  2.386699  -0.046  -0.32314  -0.562258  -0.045743  2.400269  -0.074
O  O79  1  0.67613090  0.86366472  0.14915586  1  -0.628433  -0.048939  2.113648  -0.086  -0.595172  -0.036701  2.395738  -0.06  -0.635972  -0.027591  2.387048  -0.046  -0.323194  -0.562364  -0.045736  2.400627  -0.074
O  O80  1  0.96172421  0.32554836  0.89365975  1  -0.826246  -0.034549  1.947288  -0.057  -0.788615  -0.030628  2.156834  -0.047  -0.819881  -0.023635  2.121667  -0.037  -0.581395  -0.762508  -0.037624  2.180819  -0.056
O  O81  1  0.03827813  0.67445764  0.10634087  1  -0.826256  -0.034559  1.947336  -0.057  -0.788575  -0.030634  2.156789  -0.047  -0.819856  -0.02364  2.121612  -0.037  -0.581405  -0.762462  -0.037631  2.180771  -0.056
O  O82  1  0.08770062  0.06437979  0.86185038  1  -0.609857  0.003198  1.924806  0.002  -0.564558  0.002062  2.13832  0.001  -0.588181  0.001972  2.126866  0.001  -0.323129  -0.54657  0.00128  2.145383  0.0
O  O83  1  0.91229301  0.93561829  0.13814997  1  -0.609848  0.003191  1.924945  0.002  -0.564525  0.002059  2.138426  0.001  -0.588148  0.001968  2.126969  0.001  -0.323089  -0.546536  0.001276  2.145487  0.0
O  O84  1  0.16792628  0.55098105  0.89140069  1  -0.635504  -0.026801  2.026814  -0.049  -0.584116  -0.022746  2.275408  -0.039  -0.618423  -0.017582  2.266514  -0.031  -0.310388  -0.557422  -0.0278  2.280471  -0.047
O  O85  1  0.83206431  0.44902318  0.10860478  1  -0.635464  -0.026806  2.02706  -0.049  -0.584017  -0.022748  2.275638  -0.039  -0.61831  -0.017584  2.266697  -0.031  -0.310357  -0.557326  -0.027803  2.280696  -0.047
O  O86  1  0.42372577  0.42792429  0.81275212  1  -0.596871  -0.036564  1.964188  -0.066  -0.56393  -0.027777  2.214239  -0.048  -0.598056  -0.020425  2.205631  -0.036  -0.308555  -0.535644  -0.035493  2.218144  -0.059
O  O87  1  0.57625891  0.57207505  0.18724757  1  -0.596815  -0.036551  1.964464  -0.066  -0.563869  -0.027771  2.214511  -0.048  -0.598008  -0.020422  2.205914  -0.036  -0.308493  -0.535594  -0.035485  2.218423  -0.059
O  O88  1  0.02215921  0.21633465  0.32418226  1  -0.545936  -0.001176  1.902677  -0.002  -0.50614  -0.000732  2.127672  -0.001  -0.525769  -0.000454  2.121837  -0.001  -0.301594  -0.493118  -0.001122  2.131542  -0.002
O  O89  1  0.97784366  0.78365715  0.67581112  1  -0.545928  -0.001176  1.902703  -0.002  -0.506143  -0.000732  2.127601  -0.001  -0.525767  -0.000453  2.121758  -0.001  -0.30154  -0.493111  -0.001122  2.131483  -0.002
