# generated using pymatgen
data_Zn2H27C41(NO4)2
_symmetry_space_group_name_H-M   'P 1'
_cell_length_a   11.05533932
_cell_length_b   13.86110140
_cell_length_c   26.34826131
_cell_angle_alpha   89.96167675
_cell_angle_beta   90.10714262
_cell_angle_gamma   89.83955271
_symmetry_Int_Tables_number   1
_chemical_formula_structural   Zn2H27C41(NO4)2
_chemical_formula_sum   'Zn4 H54 C82 N4 O16'
_cell_volume   4037.56213185
_cell_formula_units_Z   2
loop_
 _symmetry_equiv_pos_site_id
 _symmetry_equiv_pos_as_xyz
  1  'x, y, z'
loop_
 _atom_site_type_symbol
 _atom_site_label
 _atom_site_symmetry_multiplicity
 _atom_site_fract_x
 _atom_site_fract_y
 _atom_site_fract_z
 _atom_site_occupancy
 _atom_site_pbe_bader_charge
 _atom_site_pbe_bader_spin_density
 _atom_site_pbe_cm5_charge
 _atom_site_pbe_ddec_charge
 _atom_site_pbe_ddec_spin_density
 _atom_site_pbe_ddec_sum_bond_order
 _atom_site_pbe_magmom
Zn  Zn0  1  0.50037713  0.39954020  0.50268863  1  1.268343  0  0.662495  0.81269  0  2.436647  0
Zn  Zn1  1  0.49657533  0.60059024  0.50246895  1  1.282048  0  0.663882  0.811188  0  2.450292  0
Zn  Zn2  1  0.49848765  0.60086614  0.08405807  1  1.269252  0  0.661268  0.81304  0  2.43227  0
Zn  Zn3  1  0.50102433  0.40014112  0.08368204  1  1.285702  0  0.664379  0.808544  0  2.443073  0
H  H4  1  0.61415636  0.24693219  0.43964334  1  0.125947  0  0.125236  0.103486  0  0.996713  0
H  H5  1  0.38366567  0.24857961  0.56306911  1  0.129306  0  0.127094  0.108311  0  0.979961  0
H  H6  1  0.34470022  0.75362603  0.54809334  1  0.126284  0  0.125213  0.104311  0  0.994931  0
H  H7  1  0.64677119  0.75117100  0.45567916  1  0.103164  0  0.129175  0.111573  0  0.974544  0
H  H8  1  0.57019945  0.03092044  0.39320071  1  0.0494  0  0.103899  0.105789  0  0.956635  0
H  H9  1  0.70603232  0.09049041  0.40883681  1  0.056655  0  0.104293  0.105232  0  0.969338  0
H  H10  1  0.42237461  0.03181090  0.60959337  1  0.045074  0  0.101813  0.102461  0  0.960296  0
H  H11  1  0.28783853  0.09344242  0.59314264  1  0.060649  0  0.106571  0.109781  0  0.961814  0
H  H12  1  0.23687045  0.97059807  0.52897801  1  0.042847  0  0.10414  0.106118  0  0.95499  0
H  H13  1  0.26993920  0.90971668  0.58615885  1  0.081139  0  0.10455  0.106546  0  0.968011  0
H  H14  1  0.75698992  0.96666937  0.47288698  1  0.043021  0  0.103799  0.105612  0  0.956342  0
H  H15  1  0.72068116  0.90648909  0.41588399  1  0.050549  0  0.106888  0.109532  0  0.961516  0
H  H16  1  0.67406480  0.37414145  0.19981466  1  0.042178  0  0.098457  0.106902  0  1.03513  0
H  H17  1  0.81865376  0.27292264  0.24797879  1  0.040235  0  0.094574  0.089212  0  1.004209  0
H  H18  1  0.67636423  0.38207261  0.38896104  1  0.04763  0  0.098071  0.104965  0  1.040645  0
H  H19  1  0.82029305  0.27724920  0.34281707  1  0.022603  0  0.092866  0.08661  0  1.00752  0
H  H20  1  0.37931947  0.61593304  0.33975052  1  0.081789  0  0.10458  0.110074  0  0.989812  0
H  H21  1  0.38056774  0.61409300  0.24464310  1  0.064278  0  0.103256  0.107502  0  0.992229  0
H  H22  1  0.47582200  0.34965293  0.66393790  1  0.084879  0  0.098033  0.104688  0  1.016862  0
H  H23  1  0.52854987  0.65597873  0.66519311  1  0.086707  0  0.098324  0.105889  0  1.01539  0
H  H24  1  0.47323474  0.65204868  0.92280406  1  0.071013  0  0.097938  0.104321  0  1.01938  0
H  H25  1  0.53552047  0.34665090  0.92162695  1  0.087319  0  0.098407  0.105971  0  1.015481  0
H  H26  1  0.36573874  0.31967698  0.77867274  1  0.030474  0  0.093978  0.092303  0  0.968612  0
H  H27  1  0.48180955  0.25977906  0.74476148  1  0.019391  0  0.092487  0.090303  0  0.979063  0
H  H28  1  0.63393794  0.68436582  0.78006651  1  0.070265  0  0.09513  0.094678  0  0.967239  0
H  H29  1  0.51638301  0.74376855  0.74662337  1  0.060526  0  0.092407  0.090479  0  0.979861  0
H  H30  1  0.36477419  0.68310037  0.80823765  1  0.021853  0  0.094163  0.092321  0  0.968752  0
H  H31  1  0.48142071  0.74217737  0.84213659  1  0.016233  0  0.092534  0.090171  0  0.978437  0
H  H32  1  0.63519495  0.31682815  0.80668642  1  0.061856  0  0.095104  0.094705  0  0.966346  0
H  H33  1  0.51779130  0.25834270  0.84021569  1  0.040915  0  0.092368  0.089833  0  0.979768  0
H  H34  1  0.77213523  0.62647176  0.57409897  1  0.084695  0  0.100965  0.11646  0  1.0279  0
H  H35  1  0.88284433  0.72914453  0.63455030  1  0.035511  0  0.094647  0.089318  0  1.00285  0
H  H36  1  0.22228014  0.61667258  0.58027664  1  0.063774  0  0.099135  0.107172  0  1.030413  0
H  H37  1  0.10898877  0.72404997  0.63800517  1  0.043916  0  0.093142  0.086907  0  1.007268  0
H  H38  1  0.11457910  0.38275345  0.45495524  1  0.086908  0  0.104426  0.110507  0  0.989484  0
H  H39  1  0.88789380  0.38486200  0.45264524  1  0.089335  0  0.100417  0.103377  0  1.006041  0
H  H40  1  0.61395221  0.75214501  0.14631293  1  0.13243  0  0.127279  0.109554  0  0.979945  0
H  H41  1  0.38325080  0.75301816  0.02269522  1  0.110469  0  0.127838  0.109961  0  0.978939  0
H  H42  1  0.34533862  0.24850236  0.03926543  1  0.127495  0  0.12581  0.106201  0  0.997701  0
H  H43  1  0.65193708  0.24786218  0.12950586  1  0.138291  0  0.127196  0.109106  0  0.987848  0
H  H44  1  0.57272020  0.96903698  0.19273896  1  0.070679  0  0.104089  0.106282  0  0.955974  0
H  H45  1  0.70808990  0.90830278  0.17689487  1  0.062422  0  0.106046  0.108568  0  0.962804  0
H  H46  1  0.42218270  0.97048143  0.97681179  1  0.06207  0  0.102143  0.10304  0  0.960254  0
H  H47  1  0.28755840  0.90940698  0.99288784  1  0.058841  0  0.106244  0.109254  0  0.962371  0
H  H48  1  0.23781238  0.03172042  0.05777473  1  0.050738  0  0.104414  0.107113  0  0.95423  0
H  H49  1  0.26971788  0.09296200  0.00065239  1  0.048458  0  0.104748  0.107186  0  0.967544  0
H  H50  1  0.75923234  0.03186848  0.11312215  1  0.026765  0  0.103964  0.106279  0  0.957881  0
H  H51  1  0.72316390  0.09220745  0.17014605  1  0.063231  0  0.105882  0.109044  0  0.966468  0
H  H52  1  0.76800729  0.37210406  0.01452650  1  0.107371  0  0.100445  0.114259  0  1.02772  0
H  H53  1  0.87350880  0.26937582  0.95232140  1  0.052134  0  0.095038  0.090359  0  1.001715  0
H  H54  1  0.21740171  0.38032375  0.00220620  1  0.055581  0  0.098691  0.108433  0  1.032988  0
H  H55  1  0.09913638  0.27492121  0.94542064  1  0.043923  0  0.092658  0.085909  0  1.006667  0
H  H56  1  0.11751306  0.61154364  0.13100130  1  0.079655  0  0.103089  0.109071  0  0.99711  0
H  H57  1  0.89096826  0.61204653  0.13447266  1  0.072977  0  0.102345  0.105691  0  0.992357  0
C  C58  1  0.50274618  0.50383015  0.60241669  1  1.550814  0  0.211949  0.589631  0  4.166874  0
C  C59  1  0.26206353  0.49463833  0.50740053  1  1.571952  0  0.216578  0.601751  0  4.169339  0
C  C60  1  0.50051073  0.50469343  0.40340402  1  1.538463  0  0.215404  0.601624  0  4.169955  0
C  C61  1  0.73605599  0.49659406  0.50228203  1  1.559057  0  0.215652  0.598153  0  4.163366  0
C  C62  1  0.50617454  0.49920825  0.98436087  1  1.547724  0  0.211494  0.588859  0  4.166526  0
C  C63  1  0.26319425  0.50177022  0.07812211  1  1.547984  0  0.216563  0.600989  0  4.156903  0
C  C64  1  0.50219014  0.50012559  0.18298473  1  1.528622  0  0.216173  0.602268  0  4.169998  0
C  C65  1  0.73698345  0.49959681  0.08475629  1  1.567043  0  0.216349  0.599385  0  4.171658  0
C  C66  1  0.63280703  0.04656808  0.42483335  1  -0.030134  0  -0.146828  -0.180305  0  3.967891  0
C  C67  1  0.36088711  0.04841349  0.57764670  1  -0.023859  0  -0.148176  -0.184807  0  3.972413  0
C  C68  1  0.31038773  0.95390323  0.55603352  1  -0.049124  0  -0.147324  -0.181438  0  3.967552  0
C  C69  1  0.68223093  0.95125020  0.44627878  1  -0.005567  0  -0.147165  -0.18337  0  3.967614  0
C  C70  1  0.56371852  0.20314586  0.46671421  1  0.42353  0  0.056573  0.036614  0  3.899504  0
C  C71  1  0.56519080  0.10277484  0.46473186  1  0.042861  0  0.003463  0.042885  0  3.95145  0
C  C72  1  0.43414029  0.20390471  0.53633139  1  0.529183  0  0.055208  0.030393  0  3.906674  0
C  C73  1  0.43039468  0.10360149  0.53800880  1  -0.067327  0  0.002423  0.043817  0  3.954737  0
C  C74  1  0.41115097  0.79723510  0.52792325  1  0.423043  0  0.054764  0.031517  0  3.904589  0
C  C75  1  0.40703260  0.89757735  0.52865615  1  0.099075  0  0.002595  0.043049  0  3.956359  0
C  C76  1  0.58116565  0.79596564  0.47576471  1  0.550034  0  0.056492  0.033659  0  3.898467  0
C  C77  1  0.58557260  0.89630024  0.47425098  1  -0.060307  0  0.003504  0.044536  0  3.952425  0
C  C78  1  0.49735850  0.05278052  0.50134992  1  0.097126  0  0.007028  0.003064  0  3.95789  0
C  C79  1  0.49658960  0.94735165  0.50137460  1  -0.103799  0  0.007236  0.001676  0  3.957597  0
C  C80  1  0.51021163  0.49991614  0.23973981  1  -0.039672  0  -0.010205  -0.063169  0  3.936618  0
C  C81  1  0.58972754  0.43619287  0.26651151  1  -0.045189  0  -0.001858  0.059823  0  3.941448  0
C  C82  1  0.43806243  0.56450349  0.26600102  1  0.065584  0  -0.090297  -0.105493  0  4.024073  0
C  C83  1  0.67333814  0.37472989  0.24115488  1  0.035545  0  -0.094476  -0.130575  0  3.980459  0
C  C84  1  0.75376427  0.31826965  0.26813653  1  -0.066761  0  -0.104728  -0.098071  0  4.076601  0
C  C85  1  0.50961367  0.50257581  0.34671915  1  -0.001158  0  -0.01143  -0.064794  0  3.935387  0
C  C86  1  0.43752431  0.56567851  0.31930292  1  -0.076131  0  -0.089581  -0.104749  0  4.021386  0
C  C87  1  0.58988216  0.43796336  0.32112669  1  0.044945  0  -0.00077  0.064879  0  3.938482  0
C  C88  1  0.67454818  0.37898490  0.34765299  1  0.060022  0  -0.096575  -0.137414  0  3.990039  0
C  C89  1  0.75455734  0.32060254  0.32179692  1  -0.118775  0  -0.105711  -0.099653  0  4.083945  0
C  C90  1  0.46246142  0.32336584  0.76836009  1  -0.018745  0  -0.155824  -0.183089  0  3.987568  0
C  C91  1  0.53716396  0.67976772  0.76977051  1  -0.085592  0  -0.15634  -0.185753  0  3.987287  0
C  C92  1  0.46163544  0.67881536  0.81847205  1  0.011883  0  -0.156034  -0.182391  0  3.985844  0
C  C93  1  0.53855531  0.32215803  0.81702795  1  -0.04743  0  -0.156294  -0.184206  0  3.986035  0
C  C94  1  0.48655544  0.41603232  0.68567255  1  -0.137142  0  -0.092878  -0.166399  0  3.98368  0
C  C95  1  0.48412294  0.41452247  0.73849245  1  0.071141  0  -0.009882  0.079436  0  3.965744  0
C  C96  1  0.51657855  0.58906254  0.68637319  1  -0.108075  0  -0.093784  -0.168853  0  3.984589  0
C  C97  1  0.51680310  0.58921209  0.73922426  1  0.050689  0  -0.009632  0.080063  0  3.962856  0
C  C98  1  0.48586932  0.58587968  0.90104935  1  0.04661  0  -0.093038  -0.164441  0  3.983859  0
C  C99  1  0.48371752  0.58745909  0.84824959  1  -0.073711  0  -0.009457  0.078447  0  3.966854  0
C  C100  1  0.52071821  0.41327601  0.90043496  1  -0.084933  0  -0.094162  -0.166978  0  3.98327  0
C  C101  1  0.51875215  0.41290827  0.84757665  1  0.032442  0  -0.009559  0.077294  0  3.964323  0
C  C102  1  0.50213227  0.50288380  0.65926535  1  0.03497  0  -0.021706  -0.020072  0  4.004122  0
C  C103  1  0.50015313  0.50146563  0.76556472  1  -0.016158  0  -0.009132  -0.023985  0  3.947783  0
C  C104  1  0.50444376  0.49934062  0.92751737  1  0.002024  0  -0.022033  -0.022602  0  4.003661  0
C  C105  1  0.50052049  0.50053290  0.82120566  1  -0.145572  0  -0.009239  -0.022326  0  3.948637  0
C  C106  1  0.87125689  0.49808695  0.50708065  1  -0.072411  0  -0.012227  -0.069725  0  3.927361  0
C  C107  1  0.93268067  0.56200429  0.54114932  1  0.033775  0  -0.000779  0.061237  0  3.936111  0
C  C108  1  0.93684130  0.43400540  0.47753659  1  -0.050008  0  -0.089263  -0.098952  0  4.021428  0
C  C109  1  0.87042964  0.62465516  0.57507938  1  -0.092734  0  -0.095835  -0.131859  0  3.976829  0
C  C110  1  0.93279689  0.68221185  0.60873429  1  -0.011334  0  -0.104144  -0.096143  0  4.079366  0
C  C111  1  0.12661663  0.49542704  0.51000370  1  -0.068814  0  -0.008779  -0.057868  0  3.930701  0
C  C112  1  0.06385364  0.43260055  0.47887812  1  0.058746  0  -0.091009  -0.109368  0  4.020542  0
C  C113  1  0.06286773  0.56004866  0.54273394  1  0.027531  0  -0.002328  0.059338  0  3.943898  0
C  C114  1  0.12396983  0.61977964  0.57836031  1  -0.070031  0  -0.097831  -0.137299  0  3.992574  0
C  C115  1  0.06050719  0.67962451  0.61053817  1  -0.044438  0  -0.105621  -0.099823  0  4.086769  0
C  C116  1  0.63478522  0.95279595  0.16106043  1  -0.008914  0  -0.147529  -0.183212  0  3.968735  0
C  C117  1  0.36076144  0.95376970  0.00862472  1  -0.018344  0  -0.147838  -0.183809  0  3.972434  0
C  C118  1  0.31075327  0.04831478  0.03059245  1  -0.017274  0  -0.147318  -0.182944  0  3.966217  0
C  C119  1  0.68460358  0.04773753  0.13965645  1  -0.013289  0  -0.14749  -0.184885  0  3.970375  0
C  C120  1  0.56391676  0.79674357  0.11927667  1  0.421872  0  0.055234  0.029208  0  3.905037  0
C  C121  1  0.56622083  0.89710149  0.12123656  1  0.035726  0  0.003549  0.04377  0  3.954285  0
C  C122  1  0.43359374  0.79727288  0.04965856  1  0.441845  0  0.054338  0.026428  0  3.909846  0
C  C123  1  0.43032712  0.89765400  0.04811465  1  0.071527  0  0.002915  0.044131  0  3.956398  0
C  C124  1  0.41270045  0.20421206  0.05876107  1  0.521735  0  0.054245  0.029695  0  3.904228  0
C  C125  1  0.40815574  0.10387996  0.05785684  1  0.000203  0  0.002382  0.042594  0  3.955402  0
C  C126  1  0.58466380  0.20381285  0.11003213  1  0.51737  0  0.056829  0.032634  0  3.898807  0
C  C127  1  0.58804516  0.10345390  0.11169896  1  -0.046226  0  0.004187  0.045001  0  3.953661  0
C  C128  1  0.49808685  0.94777894  0.08476819  1  -0.115608  0  0.006755  0.002994  0  3.958487  0
C  C129  1  0.49805390  0.05323242  0.08482470  1  -0.003558  0  0.007337  0.003064  0  3.958481  0
C  C130  1  0.87218508  0.49878501  0.08000848  1  -0.060956  0  -0.007933  -0.056315  0  3.931143  0
C  C131  1  0.93193049  0.43496381  0.04553218  1  0.012856  0  -0.002242  0.057037  0  3.941262  0
C  C132  1  0.93849610  0.56252870  0.10923795  1  -0.019543  0  -0.09185  -0.108419  0  4.024484  0
C  C133  1  0.86636147  0.37304887  0.01242662  1  -0.069654  0  -0.095055  -0.130032  0  3.972653  0
C  C134  1  0.92558391  0.31577357  0.97762472  1  -0.08454  0  -0.103992  -0.096677  0  4.077106  0
C  C135  1  0.12758791  0.50020113  0.07537352  1  0.032486  0  -0.012998  -0.071823  0  3.927414  0
C  C136  1  0.06544854  0.56262757  0.10714360  1  -0.025865  0  -0.088707  -0.099971  0  4.019398  0
C  C137  1  0.06204585  0.43647853  0.04259965  1  -0.045671  0  -0.001576  0.062816  0  3.941075  0
C  C138  1  0.11945826  0.37747402  0.00555379  1  0.016145  0  -0.09849  -0.139203  0  3.997039  0
C  C139  1  0.05298644  0.31857696  0.97394604  1  -0.047505  0  -0.10573  -0.098836  0  4.086861  0
N  N140  1  0.49972468  0.25188268  0.50167530  1  -1.228077  0  -0.318026  -0.17593  0  3.562951  0
N  N141  1  0.49623985  0.74824904  0.50213611  1  -1.221824  0  -0.318908  -0.177881  0  3.562097  0
N  N142  1  0.49905416  0.74863144  0.08432680  1  -1.213413  0  -0.317034  -0.173081  0  3.56044  0
N  N143  1  0.49916993  0.25241919  0.08412017  1  -1.241835  0  -0.317597  -0.174485  0  3.559301  0
O  O144  1  0.51269030  0.42280971  0.57985306  1  -1.175298  0  -0.320498  -0.549292  0  2.318071  0
O  O145  1  0.49311203  0.58584031  0.58071107  1  -1.172716  0  -0.323103  -0.555914  0  2.319108  0
O  O146  1  0.31379195  0.57599846  0.50183649  1  -1.167876  0  -0.317067  -0.550212  0  2.336809  0
O  O147  1  0.31425295  0.41290428  0.50983647  1  -1.155757  0  -0.318796  -0.549298  0  2.303554  0
O  O148  1  0.50266321  0.58721084  0.42443535  1  -1.153441  0  -0.319363  -0.547164  0  2.305627  0
O  O149  1  0.48922867  0.42384197  0.42596632  1  -1.167401  0  -0.319057  -0.552928  0  2.33393  0
O  O150  1  0.68667301  0.41440085  0.49635319  1  -1.167355  0  -0.320975  -0.553437  0  2.307264  0
O  O151  1  0.68044604  0.57724497  0.50390625  1  -1.175051  0  -0.31398  -0.549956  0  2.355988  0
O  O152  1  0.48744581  0.57951138  0.00665175  1  -1.174343  0  -0.319437  -0.549667  0  2.328524  0
O  O153  1  0.52584182  0.41867812  0.00649407  1  -1.177613  0  -0.322019  -0.553958  0  2.319382  0
O  O154  1  0.31903645  0.42159987  0.07311805  1  -1.170047  0  -0.315476  -0.550579  0  2.351878  0
O  O155  1  0.31272357  0.58299904  0.08662032  1  -1.161683  0  -0.321069  -0.551364  0  2.306829  0
O  O156  1  0.48537681  0.41960108  0.16101226  1  -1.163743  0  -0.317409  -0.544473  0  2.313833  0
O  O157  1  0.51066730  0.58211490  0.16135537  1  -1.157946  0  -0.320235  -0.554631  0  2.317959  0
O  O158  1  0.68468150  0.58084723  0.07979763  1  -1.155935  0  -0.317402  -0.544609  0  2.2929  0
O  O159  1  0.68541872  0.41913263  0.09363776  1  -1.168159  0  -0.317101  -0.556995  0  2.335064  0
