# generated using pymatgen
data_BaH8C2(N2O)4
_symmetry_space_group_name_H-M   'P 1'
_cell_length_a   7.57226928
_cell_length_b   7.25424945
_cell_length_c   9.40813929
_cell_angle_alpha   83.90542687
_cell_angle_beta   73.78931111
_cell_angle_gamma   85.69143983
_symmetry_Int_Tables_number   1
_chemical_formula_structural   BaH8C2(N2O)4
_chemical_formula_sum   'Ba2 H16 C4 N16 O8'
_cell_volume   492.88749092
_cell_formula_units_Z   2
loop_
 _symmetry_equiv_pos_site_id
 _symmetry_equiv_pos_as_xyz
  1  'x, y, z'
loop_
 _atom_site_type_symbol
 _atom_site_label
 _atom_site_symmetry_multiplicity
 _atom_site_fract_x
 _atom_site_fract_y
 _atom_site_fract_z
 _atom_site_occupancy
 _atom_site_hle17_bader_spin_density
 _atom_site_hle17_ddec_charge
 _atom_site_hle17_ddec_spin_density
 _atom_site_hle17_ddec_sum_bond_order
 _atom_site_hle17_magmom
 _atom_site_hse06_10hf_bader_spin_density
 _atom_site_hse06_10hf_ddec_charge
 _atom_site_hse06_10hf_ddec_spin_density
 _atom_site_hse06_10hf_ddec_sum_bond_order
 _atom_site_hse06_10hf_magmom
 _atom_site_hse06_bader_spin_density
 _atom_site_hse06_ddec_charge
 _atom_site_hse06_ddec_spin_density
 _atom_site_hse06_ddec_sum_bond_order
 _atom_site_hse06_magmom
 _atom_site_pbe_bader_spin_density
 _atom_site_pbe_cm5_charge
 _atom_site_pbe_ddec_charge
 _atom_site_pbe_ddec_spin_density
 _atom_site_pbe_ddec_sum_bond_order
 _atom_site_pbe_magmom
Ba  Ba0  1  0.71977621  0.93437336  0.62890408  1  0  1.571325  0  1.180651  0  0  1.402288  0  1.596775  0  0  1.441144  0  1.552519  0  0  0.926883  1.373875  0  1.62888  0
Ba  Ba1  1  0.28022289  0.06562878  0.37109709  1  0  1.571331  0  1.180629  0  0  1.402264  0  1.59679  0  0  1.441123  0  1.55254  0  0  0.926887  1.373851  0  1.628894  0
H  H2  1  0.55849750  0.52405002  0.78514220  1  0  0.375986  0  0.948515  0  0  0.333958  0  1.031677  0  0  0.34475  0  1.015919  0  0  0.284546  0.326377  0  1.042712  0
H  H3  1  0.44150018  0.47595358  0.21485815  1  0  0.375984  0  0.948515  0  0  0.333956  0  1.031672  0  0  0.344749  0  1.015912  0  0  0.284563  0.326375  0  1.042709  0
H  H4  1  0.72578539  0.57917067  0.83472727  1  0  0.387881  0  0.930384  0  0  0.347629  0  1.010513  0  0  0.358793  0  0.994401  0  0  0.284078  0.339574  0  1.022049  0
H  H5  1  0.27421371  0.42083163  0.16527070  1  0  0.38786  0  0.930425  0  0  0.347615  0  1.010543  0  0  0.358779  0  0.99443  0  0  0.284079  0.339559  0  1.02208  0
H  H6  1  0.53448122  0.22435918  0.87300769  1  0  0.396081  0  0.907618  0  0  0.366411  0  0.974003  0  0  0.374904  0  0.961583  0  0  0.301303  0.360341  0  0.982827  0
H  H7  1  0.46551926  0.77564288  0.12699425  1  0  0.396078  0  0.907602  0  0  0.366404  0  0.974016  0  0  0.374897  0  0.961598  0  0  0.301295  0.360335  0  0.982842  0
H  H8  1  0.68377591  0.13874425  0.95129931  1  0  0.399546  0  0.917707  0  0  0.357329  0  1.000228  0  0  0.368801  0  0.983709  0  0  0.286946  0.348979  0  1.012236  0
H  H9  1  0.31622586  0.86126062  0.04870112  1  0  0.399615  0  0.917616  0  0  0.357408  0  1.000124  0  0  0.368878  0  0.983605  0  0  0.286979  0.349057  0  1.012132  0
H  H10  1  0.57037242  0.32419592  0.45854232  1  0  0.420987  0  0.839796  0  0  0.396658  0  0.906739  0  0  0.4054  0  0.896725  0  0  0.325989  0.390132  0  0.914495  0
H  H11  1  0.42962714  0.67579224  0.54146162  1  0  0.420902  0  0.839842  0  0  0.396581  0  0.906758  0  0  0.405324  0  0.89674  0  0  0.325946  0.390056  0  0.914514  0
H  H12  1  0.39927900  0.30914619  0.60535686  1  0  0.383914  0  0.942765  0  0  0.341114  0  1.026228  0  0  0.352546  0  1.009904  0  0  0.29661  0.332771  0  1.038322  0
H  H13  1  0.60071895  0.69084903  0.39464494  1  0  0.383935  0  0.942721  0  0  0.341143  0  1.026199  0  0  0.352575  0  1.009876  0  0  0.296623  0.332799  0  1.038295  0
H  H14  1  0.88336356  0.35729969  0.58780555  1  0  0.430624  0  0.82953  0  0  0.411335  0  0.886917  0  0  0.420796  0  0.872802  0  0  0.320386  0.404178  0  0.897141  0
H  H15  1  0.11663682  0.64270531  0.41219306  1  0  0.430629  0  0.829351  0  0  0.411331  0  0.886894  0  0  0.420794  0  0.872776  0  0  0.320382  0.404175  0  0.897008  0
H  H16  1  0.99476362  0.24719938  0.68501495  1  0  0.398925  0  0.91866  0  0  0.354779  0  1.005482  0  0  0.36651  0  0.988548  0  0  0.294936  0.346462  0  1.017505  0
H  H17  1  0.00523809  0.75280698  0.31498328  1  0  0.398926  0  0.918694  0  0  0.35478  0  1.005512  0  0  0.366512  0  0.988578  0  0  0.294944  0.346464  0  1.017536  0
C  C18  1  0.05427863  0.79956573  0.90241108  1  0  0.232037  0  3.807139  0  0  0.202652  0  4.093968  0  0  0.211007  0  4.109069  0  0  0.22397  0.196936  0  4.083911  0
C  C19  1  0.94572326  0.20043514  0.09758634  1  0  0.231968  0  3.807233  0  0  0.202635  0  4.093957  0  0  0.210986  0  4.109061  0  0  0.223934  0.196919  0  4.083894  0
C  C20  1  0.91428040  0.71444148  0.02533004  1  0  0.232455  0  3.789459  0  0  0.207505  0  4.072661  0  0  0.215635  0  4.087859  0  0  0.229286  0.201998  0  4.062315  0
C  C21  1  0.08571612  0.28555521  0.97467095  1  0  0.232376  0  3.789483  0  0  0.207485  0  4.072582  0  0  0.215619  0  4.087778  0  0  0.22928  0.201979  0  4.062229  0
N  N22  1  0.76771285  0.63705783  0.00462841  1  0  -0.286479  0  3.01373  0  0  -0.249256  0  3.27504  0  0  -0.260261  0  3.287541  0  0  -0.189436  -0.241184  0  3.266377  0
N  N23  1  0.23228634  0.36294154  0.99537289  1  0  -0.286475  0  3.013639  0  0  -0.249282  0  3.274937  0  0  -0.260288  0  3.287438  0  0  -0.189447  -0.241211  0  3.266273  0
N  N24  1  0.75106533  0.61676026  0.23988728  1  0  -0.124594  0  3.080881  0  0  -0.094141  0  3.357039  0  0  -0.097998  0  3.369783  0  0  -0.092228  -0.090887  0  3.348519  0
N  N25  1  0.24893385  0.38323921  0.76011189  1  0  -0.12464  0  3.080856  0  0  -0.094195  0  3.357018  0  0  -0.098052  0  3.369764  0  0  -0.092235  -0.090942  0  3.348501  0
N  N26  1  0.90713486  0.70191837  0.17088324  1  0  -0.263908  0  2.983774  0  0  -0.233711  0  3.256143  0  0  -0.244223  0  3.269794  0  0  -0.188927  -0.226365  0  3.246647  0
N  N27  1  0.09286565  0.29808256  0.82911342  1  0  -0.263828  0  2.983746  0  0  -0.233659  0  3.256097  0  0  -0.244174  0  3.26975  0  0  -0.188928  -0.226315  0  3.2466  0
N  N28  1  0.66760133  0.57878839  0.14079568  1  0  -0.115104  0  3.10704  0  0  -0.079369  0  3.375651  0  0  -0.082547  0  3.388169  0  0  -0.086346  -0.076985  0  3.366938  0
N  N29  1  0.33239648  0.42121109  0.85920379  1  0  -0.115087  0  3.107001  0  0  -0.07936  0  3.375639  0  0  -0.082539  0  3.388161  0  0  -0.086355  -0.076977  0  3.366926  0
N  N30  1  0.03134759  0.84059013  0.76516738  1  0  -0.333421  0  3.016485  0  0  -0.295421  0  3.291107  0  0  -0.307585  0  3.30788  0  0  -0.24113  -0.286872  0  3.27924  0
N  N31  1  0.96865573  0.15940912  0.23483406  1  0  -0.333337  0  3.016352  0  0  -0.295367  0  3.290979  0  0  -0.307529  0  3.30775  0  0  -0.2411  -0.286817  0  3.279107  0
N  N32  1  0.19211533  0.90657097  0.68288979  1  0  -0.164801  0  3.121178  0  0  -0.127474  0  3.409238  0  0  -0.13289  0  3.427146  0  0  -0.137055  -0.122926  0  3.396232  0
N  N33  1  0.80788377  0.09343122  0.31711031  1  0  -0.164861  0  3.121277  0  0  -0.127543  0  3.409364  0  0  -0.132958  0  3.427271  0  0  -0.137059  -0.122996  0  3.396356  0
N  N34  1  0.30750454  0.90628314  0.76640440  1  0  -0.139848  0  3.045789  0  0  -0.117445  0  3.339336  0  0  -0.120828  0  3.354896  0  0  -0.120741  -0.114737  0  3.328377  0
N  N35  1  0.69249731  0.09371896  0.23359616  1  0  -0.139757  0  3.045825  0  0  -0.117348  0  3.339369  0  0  -0.120731  0  3.354932  0  0  -0.120716  -0.114643  0  3.328412  0
N  N36  1  0.22351816  0.84078996  0.90532390  1  0  -0.273584  0  3.047825  0  0  -0.236611  0  3.322766  0  0  -0.246987  0  3.335278  0  0  -0.190002  -0.229528  0  3.314516  0
N  N37  1  0.77648388  0.15920654  0.09467798  1  0  -0.273564  0  3.047854  0  0  -0.236614  0  3.32279  0  0  -0.24699  0  3.335303  0  0  -0.189984  -0.229533  0  3.314538  0
O  O38  1  0.68440606  0.57060411  0.74363512  1  0  -0.876893  0  1.871658  0  0  -0.816653  0  2.064958  0  0  -0.83573  0  2.031145  0  0  -0.642991  -0.802743  0  2.089543  0
O  O39  1  0.31559166  0.42939820  0.25636316  1  0  -0.876874  0  1.871667  0  0  -0.816637  0  2.064986  0  0  -0.835711  0  2.031183  0  0  -0.643014  -0.802725  0  2.089569  0
O  O40  1  0.63042296  0.12565537  0.86645630  1  0  -0.880668  0  1.876655  0  0  -0.822594  0  2.075891  0  0  -0.841246  0  2.045053  0  0  -0.662417  -0.808942  0  2.098032  0
O  O41  1  0.36958014  0.87435092  0.13354269  1  0  -0.880752  0  1.876589  0  0  -0.822649  0  2.075763  0  0  -0.841313  0  2.044948  0  0  -0.662424  -0.808997  0  2.097905  0
O  O42  1  0.49065638  0.23706112  0.52892159  1  0  -0.88317  0  1.9041  0  0  -0.819954  0  2.108776  0  0  -0.841231  0  2.082849  0  0  -0.614816  -0.805264  0  2.127807  0
O  O43  1  0.50934303  0.76293142  0.47107790  1  0  -0.883075  0  1.904139  0  0  -0.819898  0  2.108794  0  0  -0.84117  0  2.08286  0  0  -0.614782  -0.805209  0  2.127823  0
O  O44  1  0.96312461  0.24472696  0.58847211  1  0  -0.887323  0  1.836284  0  0  -0.829027  0  2.029847  0  0  -0.848759  0  1.99846  0  0  -0.60885  -0.815184  0  2.052015  0
O  O45  1  0.03687568  0.75528086  0.41152530  1  0  -0.887322  0  1.836167  0  0  -0.829052  0  2.029892  0  0  -0.848784  0  1.998504  0  0  -0.608859  -0.815209  0  2.051951  0
