# generated using pymatgen
data_CdH5C3SNO2
_symmetry_space_group_name_H-M   'P 1'
_cell_length_a   5.62436054
_cell_length_b   9.55268578
_cell_length_c   9.57104087
_cell_angle_alpha   90.00015453
_cell_angle_beta   89.99956945
_cell_angle_gamma   89.99950202
_symmetry_Int_Tables_number   1
_chemical_formula_structural   CdH5C3SNO2
_chemical_formula_sum   'Cd4 H20 C12 S4 N4 O8'
_cell_volume   514.23048067
_cell_formula_units_Z   4
loop_
 _symmetry_equiv_pos_site_id
 _symmetry_equiv_pos_as_xyz
  1  'x, y, z'
loop_
 _atom_site_type_symbol
 _atom_site_label
 _atom_site_symmetry_multiplicity
 _atom_site_fract_x
 _atom_site_fract_y
 _atom_site_fract_z
 _atom_site_occupancy
 _atom_site_hle17_bader_spin_density
 _atom_site_hle17_ddec_charge
 _atom_site_hle17_ddec_spin_density
 _atom_site_hle17_ddec_sum_bond_order
 _atom_site_hle17_magmom
 _atom_site_hse06_10hf_bader_spin_density
 _atom_site_hse06_10hf_ddec_charge
 _atom_site_hse06_10hf_ddec_spin_density
 _atom_site_hse06_10hf_ddec_sum_bond_order
 _atom_site_hse06_10hf_magmom
 _atom_site_hse06_bader_spin_density
 _atom_site_hse06_ddec_charge
 _atom_site_hse06_ddec_spin_density
 _atom_site_hse06_ddec_sum_bond_order
 _atom_site_hse06_magmom
 _atom_site_pbe_bader_spin_density
 _atom_site_pbe_cm5_charge
 _atom_site_pbe_ddec_charge
 _atom_site_pbe_ddec_spin_density
 _atom_site_pbe_ddec_sum_bond_order
 _atom_site_pbe_magmom
Cd  Cd0  1  0.85935831  0.33526735  0.41147323  1  0  0.909777  0  1.870581  0  0  0.742347  0  2.307767  0  0  0.791183  0  2.270293  0  0  0.61124  0.706755  0  2.33464  0
Cd  Cd1  1  0.64063439  0.66473300  0.91147410  1  0  0.909763  0  1.870555  0  0  0.742319  0  2.307746  0  0  0.791158  0  2.270274  0  0  0.61124  0.706723  0  2.334619  0
Cd  Cd2  1  0.35936196  0.16474617  0.58852480  1  0  0.909928  0  1.870583  0  0  0.74246  0  2.307776  0  0  0.79129  0  2.270308  0  0  0.611246  0.706857  0  2.334644  0
Cd  Cd3  1  0.14063871  0.83525699  0.08853146  1  0  0.909826  0  1.870623  0  0  0.74236  0  2.307781  0  0  0.791196  0  2.27031  0  0  0.611261  0.706761  0  2.334643  0
H  H4  1  0.44474683  0.51039641  0.60574266  1  0  0.097636  0  0.984439  0  0  0.111022  0  1.051896  0  0  0.112613  0  1.051762  0  0  0.092316  0.109458  0  1.052781  0
H  H5  1  0.05525004  0.48958796  0.10573827  1  0  0.097643  0  0.984465  0  0  0.111005  0  1.052023  0  0  0.112595  0  1.051888  0  0  0.09232  0.109442  0  1.052905  0
H  H6  1  0.94475363  0.98961293  0.39424698  1  0  0.097581  0  0.984423  0  0  0.11098  0  1.051926  0  0  0.112566  0  1.051796  0  0  0.092311  0.109417  0  1.052804  0
H  H7  1  0.55525530  0.01038947  0.89425372  1  0  0.097674  0  0.984488  0  0  0.111126  0  1.051864  0  0  0.112716  0  1.05173  0  0  0.092362  0.109559  0  1.052751  0
H  H8  1  0.50365351  0.60005250  0.44602858  1  0  0.095361  0  0.955152  0  0  0.109472  0  1.02269  0  0  0.110753  0  1.022338  0  0  0.093794  0.107384  0  1.02495  0
H  H9  1  0.99634762  0.39994271  0.94602722  1  0  0.095437  0  0.955177  0  0  0.109612  0  1.022638  0  0  0.110893  0  1.022286  0  0  0.093879  0.10752  0  1.024902  0
H  H10  1  0.00364534  0.89996228  0.55396084  1  0  0.095299  0  0.955351  0  0  0.109492  0  1.022831  0  0  0.110768  0  1.022479  0  0  0.093802  0.107398  0  1.025099  0
H  H11  1  0.49634690  0.10004393  0.05396605  1  0  0.095368  0  0.955156  0  0  0.109468  0  1.022733  0  0  0.110745  0  1.022381  0  0  0.093816  0.107377  0  1.024994  0
H  H12  1  0.16151353  0.69740629  0.56960011  1  0  0.067851  0  0.926406  0  0  0.079292  0  0.98959  0  0  0.080546  0  0.989062  0  0  0.10798  0.077644  0  0.992041  0
H  H13  1  0.33849272  0.30259159  0.06959715  1  0  0.067834  0  0.926402  0  0  0.07928  0  0.989571  0  0  0.080537  0  0.98904  0  0  0.107985  0.077632  0  0.992019  0
H  H14  1  0.66150476  0.80260662  0.43039491  1  0  0.06766  0  0.926522  0  0  0.079173  0  0.989616  0  0  0.080388  0  0.989135  0  0  0.107967  0.077528  0  0.992066  0
H  H15  1  0.83849302  0.19739273  0.93039156  1  0  0.067644  0  0.926459  0  0  0.079215  0  0.989655  0  0  0.080456  0  0.989143  0  0  0.107982  0.077568  0  0.992101  0
H  H16  1  0.81759415  0.56899465  0.60293453  1  0  0.305844  0  0.918956  0  0  0.291101  0  0.984068  0  0  0.297745  0  0.9794  0  0  0.288339  0.286735  0  0.987099  0
H  H17  1  0.68240801  0.43099965  0.10293467  1  0  0.305902  0  0.918767  0  0  0.291174  0  0.983877  0  0  0.297818  0  0.97921  0  0  0.288352  0.286808  0  0.986906  0
H  H18  1  0.31759296  0.93101325  0.39706923  1  0  0.305938  0  0.918894  0  0  0.291206  0  0.983983  0  0  0.297851  0  0.979312  0  0  0.28837  0.286838  0  0.987016  0
H  H19  1  0.18241425  0.06898968  0.89707769  1  0  0.305869  0  0.918994  0  0  0.29117  0  0.984056  0  0  0.297816  0  0.979386  0  0  0.288339  0.286802  0  0.987092  0
H  H20  1  0.02822472  0.46932117  0.66398689  1  0  0.300771  0  0.887797  0  0  0.293438  0  0.940229  0  0  0.298964  0  0.937317  0  0  0.289279  0.290507  0  0.940863  0
H  H21  1  0.47177493  0.53067277  0.16397877  1  0  0.300743  0  0.887901  0  0  0.293331  0  0.940441  0  0  0.298854  0  0.937531  0  0  0.289238  0.290399  0  0.941073  0
H  H22  1  0.52821047  0.03069619  0.33601358  1  0  0.300749  0  0.887868  0  0  0.293439  0  0.940245  0  0  0.298964  0  0.937338  0  0  0.28931  0.290509  0  0.940871  0
H  H23  1  0.97179924  0.96930606  0.83602539  1  0  0.300994  0  0.887572  0  0  0.293672  0  0.939992  0  0  0.299198  0  0.937085  0  0  0.28938  0.290741  0  0.940624  0
C  C24  1  0.37943331  0.52978994  0.49960808  1  0  -0.136782  0  3.646782  0  0  -0.181748  0  3.902519  0  0  -0.18008  0  3.915153  0  0  -0.168683  -0.182203  0  3.894533  0
C  C25  1  0.12057431  0.47019966  0.99960850  1  0  -0.136989  0  3.646748  0  0  -0.182068  0  3.902549  0  0  -0.180393  0  3.915172  0  0  -0.168903  -0.182522  0  3.894566  0
C  C26  1  0.87943008  0.97022916  0.50039020  1  0  -0.136582  0  3.646641  0  0  -0.181791  0  3.902703  0  0  -0.1801  0  3.915294  0  0  -0.168718  -0.18224  0  3.894712  0
C  C27  1  0.62057522  0.02978058  0.00038636  1  0  -0.136875  0  3.646586  0  0  -0.181826  0  3.902553  0  0  -0.18014  0  3.915156  0  0  -0.16876  -0.182282  0  3.894569  0
C  C28  1  0.13687717  0.60128671  0.50757543  1  0  0.061695  0  3.657429  0  0  0.044785  0  3.899969  0  0  0.044165  0  3.913671  0  0  -0.011957  0.045261  0  3.89148  0
C  C29  1  0.36312991  0.39871206  0.00757263  1  0  0.061623  0  3.657626  0  0  0.044774  0  3.900129  0  0  0.044151  0  3.913826  0  0  -0.011883  0.04525  0  3.891634  0
C  C30  1  0.63686085  0.89872529  0.49242387  1  0  0.061735  0  3.657242  0  0  0.044929  0  3.899803  0  0  0.044325  0  3.913505  0  0  -0.011915  0.045393  0  3.891335  0
C  C31  1  0.86313076  0.10127737  0.99242120  1  0  0.061835  0  3.656844  0  0  0.044548  0  3.900104  0  0  0.043926  0  3.913817  0  0  -0.012116  0.045022  0  3.891622  0
C  C32  1  0.05688475  0.64475198  0.36008386  1  0  0.639736  0  3.842672  0  0  0.585329  0  4.147691  0  0  0.618694  0  4.141563  0  0  0.202787  0.562469  0  4.15103  0
C  C33  1  0.44311763  0.35524562  0.86008260  1  0  0.640134  0  3.842175  0  0  0.585654  0  4.14735  0  0  0.619022  0  4.141219  0  0  0.202946  0.562797  0  4.150704  0
C  C34  1  0.55689909  0.85525415  0.63992727  1  0  0.64026  0  3.841959  0  0  0.585506  0  4.147597  0  0  0.618856  0  4.141467  0  0  0.202845  0.562649  0  4.150937  0
C  C35  1  0.94310790  0.14474863  0.13993597  1  0  0.640321  0  3.841851  0  0  0.58575  0  4.147409  0  0  0.619098  0  4.141283  0  0  0.202969  0.56289  0  4.150745  0
S  S36  1  0.37721801  0.36483097  0.40245855  1  0  -0.472609  0  2.192703  0  0  -0.400333  0  2.583311  0  0  -0.423917  0  2.572936  0  0  -0.225718  -0.382664  0  2.59066  0
S  S37  1  0.12277135  0.63516465  0.90246255  1  0  -0.472545  0  2.1926  0  0  -0.400275  0  2.583294  0  0  -0.423861  0  2.572912  0  0  -0.225664  -0.382612  0  2.590645  0
S  S38  1  0.87722720  0.13518142  0.59753209  1  0  -0.472768  0  2.192906  0  0  -0.400463  0  2.583633  0  0  -0.424048  0  2.573245  0  0  -0.225747  -0.382792  0  2.590956  0
S  S39  1  0.62277325  0.86481916  0.09753681  1  0  -0.472724  0  2.192737  0  0  -0.400421  0  2.583371  0  0  -0.424012  0  2.572985  0  0  -0.225742  -0.38275  0  2.590703  0
N  N40  1  0.96090529  0.50963816  0.57311920  1  0  -0.635371  0  3.124418  0  0  -0.583057  0  3.363158  0  0  -0.603255  0  3.364802  0  0  -0.632502  -0.568471  0  3.361323  0
N  N41  1  0.53908304  0.49036130  0.07312220  1  0  -0.635278  0  3.124413  0  0  -0.582902  0  3.363123  0  0  -0.603101  0  3.364777  0  0  -0.632453  -0.568319  0  3.361281  0
N  N42  1  0.46090107  0.99037005  0.42688186  1  0  -0.635446  0  3.124633  0  0  -0.583147  0  3.363323  0  0  -0.60335  0  3.364968  0  0  -0.632557  -0.568559  0  3.361483  0
N  N43  1  0.03911108  0.00963820  0.92689598  1  0  -0.635541  0  3.124561  0  0  -0.58318  0  3.363408  0  0  -0.603389  0  3.365062  0  0  -0.632531  -0.568597  0  3.361571  0
O  O44  1  0.17027855  0.74970221  0.30993875  1  0  -0.629372  0  2.052596  0  0  -0.553388  0  2.311992  0  0  -0.583216  0  2.302838  0  0  -0.329411  -0.533825  0  2.318262  0
O  O45  1  0.32972983  0.25027432  0.80993559  1  0  -0.629625  0  2.052215  0  0  -0.553669  0  2.311747  0  0  -0.583504  0  2.302601  0  0  -0.329559  -0.534082  0  2.317957  0
O  O46  1  0.67027596  0.75030752  0.69005727  1  0  -0.629339  0  2.052308  0  0  -0.553372  0  2.312026  0  0  -0.583193  0  2.302874  0  0  -0.329379  -0.533844  0  2.318369  0
O  O47  1  0.82970192  0.24970482  0.19005420  1  0  -0.629467  0  2.052319  0  0  -0.553529  0  2.311978  0  0  -0.583355  0  2.302826  0  0  -0.329455  -0.534  0  2.318325  0
O  O48  1  0.89842133  0.57541108  0.29758200  1  0  -0.60462  0  1.983672  0  0  -0.53823  0  2.222796  0  0  -0.56416  0  2.214356  0  0  -0.317465  -0.519001  0  2.228129  0
O  O49  1  0.60156933  0.42458897  0.79758028  1  0  -0.604649  0  1.983584  0  0  -0.538279  0  2.222778  0  0  -0.564213  0  2.214346  0  0  -0.317469  -0.519039  0  2.22808  0
O  O50  1  0.39846061  0.92460163  0.70242247  1  0  -0.604991  0  1.983632  0  0  -0.538425  0  2.222896  0  0  -0.564337  0  2.214456  0  0  -0.31756  -0.519184  0  2.228206  0
O  O51  1  0.10153320  0.07541753  0.20243033  1  0  -0.604856  0  1.983757  0  0  -0.538329  0  2.223003  0  0  -0.564229  0  2.214557  0  0  -0.317504  -0.519104  0  2.228342  0
