# generated using pymatgen
data_H12RhC16NO4
_symmetry_space_group_name_H-M   'P 1'
_cell_length_a   9.55492317
_cell_length_b   10.17535627
_cell_length_c   10.71765226
_cell_angle_alpha   72.80259953
_cell_angle_beta   63.49717999
_cell_angle_gamma   61.96885133
_symmetry_Int_Tables_number   1
_chemical_formula_structural   H12RhC16NO4
_chemical_formula_sum   'H24 Rh2 C32 N2 O8'
_cell_volume   818.23872147
_cell_formula_units_Z   2
loop_
 _symmetry_equiv_pos_site_id
 _symmetry_equiv_pos_as_xyz
  1  'x, y, z'
loop_
 _atom_site_type_symbol
 _atom_site_label
 _atom_site_symmetry_multiplicity
 _atom_site_fract_x
 _atom_site_fract_y
 _atom_site_fract_z
 _atom_site_occupancy
 _atom_site_pbe_bader_spin_density
 _atom_site_pbe_cm5_charge
 _atom_site_pbe_ddec_charge
 _atom_site_pbe_ddec_spin_density
 _atom_site_pbe_ddec_sum_bond_order
 _atom_site_pbe_magmom
H  H0  1  0.99395844  0.44339643  0.11934147  1  0  0.104673  0.104026  0  1.026671  0
H  H1  1  0.55682407  0.55714872  0.88064897  1  0  0.103673  0.102049  0  1.028625  0
H  H2  1  0.00605221  0.55661216  0.88064471  1  0  0.104669  0.103974  0  1.02672  0
H  H3  1  0.44318993  0.44283997  0.11935444  1  0  0.103662  0.102056  0  1.028624  0
H  H4  1  0.82200390  0.69374228  0.21121988  1  0  0.101036  0.106769  0  1.030726  0
H  H5  1  0.72685246  0.30685657  0.78859624  1  0  0.10113  0.106037  0  1.030626  0
H  H6  1  0.17801426  0.30626626  0.78876347  1  0  0.101035  0.1067  0  1.030724  0
H  H7  1  0.27316269  0.69313323  0.21140656  1  0  0.101133  0.106009  0  1.030691  0
H  H8  1  0.96079447  0.81226036  0.26607213  1  0  0.099091  0.091968  0  1.01072  0
H  H9  1  0.03922564  0.18773713  0.73392134  1  0  0.099125  0.091999  0  1.01065  0
H  H10  1  0.16435201  0.79715496  0.42376818  1  0  0.105821  0.108575  0  1.010733  0
H  H11  1  0.38532433  0.20295474  0.57662392  1  0  0.106114  0.10814  0  1.009114  0
H  H12  1  0.83566180  0.20282019  0.57623128  1  0  0.105781  0.108619  0  1.010672  0
H  H13  1  0.61466979  0.79705961  0.42337101  1  0  0.106121  0.108175  0  1.009057  0
H  H14  1  0.12074719  0.64870315  0.65808212  1  0  0.098003  0.095299  0  1.030751  0
H  H15  1  0.42731512  0.35142504  0.34232007  1  0  0.09944  0.098167  0  1.03208  0
H  H16  1  0.87926422  0.35128670  0.34192442  1  0  0.097937  0.095174  0  1.030784  0
H  H17  1  0.57267988  0.64860515  0.65768271  1  0  0.099479  0.098236  0  1.032007  0
H  H18  1  0.32602695  0.57254202  0.77551817  1  0  0.100515  0.096078  0  0.997837  0
H  H19  1  0.67397750  0.42747706  0.22449189  1  0  0.100478  0.096042  0  0.997866  0
H  H20  1  0.98289418  0.13498498  0.16296065  1  0  0.12173  0.099684  0  1.012631  0
H  H21  1  0.28127259  0.86484064  0.83730219  1  0  0.121713  0.099284  0  1.012146  0
H  H22  1  0.01706934  0.86501393  0.83705033  1  0  0.121753  0.099703  0  1.012651  0
H  H23  1  0.71869822  0.13514707  0.16271007  1  0  0.1218  0.099359  0  1.012203  0
Rh  Rh24  1  0.37320860  0.99999098  0.00002492  1  0  0.647603  0.540008  0  3.779986  0
Rh  Rh25  1  0.62677696  0.00000776  0.99997567  1  0  0.647617  0.540092  0  3.780021  0
C  C26  1  0.32628848  0.27326433  0.07363149  1  0  0.210895  0.531838  0  4.13509  0
C  C27  1  0.67371051  0.72673210  0.92636508  1  0  0.21088  0.53177  0  4.134993  0
C  C28  1  0.22710131  0.42619686  0.11921135  1  0  -0.023811  -0.046729  0  4.007539  0
C  C29  1  0.77290905  0.57380511  0.88078121  1  0  -0.023715  -0.046585  0  4.007477  0
C  C30  1  0.05252657  0.49815460  0.14263799  1  0  -0.089266  -0.103778  0  3.980174  0
C  C31  1  0.69348608  0.50217883  0.85731456  1  0  -0.086353  -0.099402  0  3.977853  0
C  C32  1  0.94748434  0.50185405  0.85735144  1  0  -0.089308  -0.10376  0  3.980275  0
C  C33  1  0.30652760  0.49781318  0.14268613  1  0  -0.086348  -0.099416  0  3.977841  0
C  C34  1  0.95713024  0.63700018  0.19471420  1  0  -0.093807  -0.088119  0  3.996242  0
C  C35  1  0.78884135  0.36336124  0.80515238  1  0  -0.093162  -0.085564  0  3.995105  0
C  C36  1  0.04288374  0.36300733  0.80527394  1  0  -0.093754  -0.088061  0  3.996386  0
C  C37  1  0.21117551  0.63663520  0.19484496  1  0  -0.093131  -0.08544  0  3.995168  0
C  C38  1  0.03594968  0.70447572  0.22358123  1  0  -0.086087  -0.068622  0  3.990478  0
C  C39  1  0.96406821  0.29552627  0.77641312  1  0  -0.086175  -0.068642  0  3.990372  0
C  C40  1  0.42563209  0.88429494  0.26409585  1  0  0.212421  0.529119  0  4.130245  0
C  C41  1  0.57436124  0.11570265  0.73590342  1  0  0.212455  0.529253  0  4.130286  0
C  C42  1  0.39311425  0.80494463  0.40853893  1  0  -0.020447  -0.038447  0  3.999599  0
C  C43  1  0.60689090  0.19504959  0.59145971  1  0  -0.020458  -0.038495  0  3.999564  0
C  C44  1  0.25286527  0.76427033  0.47593463  1  0  -0.083765  -0.095056  0  3.968534  0
C  C45  1  0.49318248  0.23578659  0.52426250  1  0  -0.082482  -0.091659  0  3.963667  0
C  C46  1  0.74714526  0.23571494  0.52406597  1  0  -0.083708  -0.095172  0  3.968641  0
C  C47  1  0.50682034  0.76421773  0.47573634  1  0  -0.082503  -0.091679  0  3.963599  0
C  C48  1  0.22890795  0.68125783  0.60737631  1  0  -0.088848  -0.080824  0  4.006461  0
C  C49  1  0.51751465  0.31880169  0.39284786  1  0  -0.09402  -0.08934  0  4.015681  0
C  C50  1  0.77110580  0.31873317  0.39263192  1  0  -0.08873  -0.080492  0  4.006302  0
C  C51  1  0.48248313  0.68121950  0.60715365  1  0  -0.09407  -0.08944  0  4.015635  0
C  C52  1  0.34424053  0.63860394  0.67289860  1  0  -0.084263  -0.072457  0  3.990647  0
C  C53  1  0.65576523  0.36140836  0.32710808  1  0  -0.084294  -0.072578  0  3.990518  0
C  C54  1  0.99008876  0.07449736  0.09019770  1  0  0.049897  0.030355  0  3.927891  0
C  C55  1  0.15502603  0.92542432  0.90994292  1  0  0.050094  0.031036  0  3.927925  0
C  C56  1  0.00988586  0.92549695  0.90980584  1  0  0.049891  0.030456  0  3.927672  0
C  C57  1  0.84492808  0.07457460  0.09006814  1  0  0.049983  0.030865  0  3.928086  0
N  N58  1  0.14618108  0.99995484  0.00011369  1  0  -0.32305  -0.14614  0  3.570038  0
N  N59  1  0.85379106  0.00004744  0.99989728  1  0  -0.323092  -0.146127  0  3.570036  0
O  O60  1  0.24557818  0.21255104  0.05671786  1  0  -0.297665  -0.444217  0  2.450377  0
O  O61  1  0.51527692  0.78752767  0.94330357  1  0  -0.294704  -0.442149  0  2.451105  0
O  O62  1  0.75441199  0.78744457  0.94329746  1  0  -0.297753  -0.444284  0  2.45008  0
O  O63  1  0.48472942  0.21247301  0.05667850  1  0  -0.294774  -0.442219  0  2.451009  0
O  O64  1  0.32038627  0.91388543  0.20622893  1  0  -0.295042  -0.441717  0  2.445113  0
O  O65  1  0.44082102  0.08607557  0.79380306  1  0  -0.297047  -0.444303  0  2.444932  0
O  O66  1  0.67961904  0.08608964  0.79376504  1  0  -0.295051  -0.441777  0  2.445084  0
O  O67  1  0.55916399  0.91393776  0.20619810  1  0  -0.296962  -0.444227  0  2.444739  0
