# generated using pymatgen
data_ZnH12C19(NO2)2
_symmetry_space_group_name_H-M   'P 1'
_cell_length_a   10.86610357
_cell_length_b   12.43193401
_cell_length_c   13.52286096
_cell_angle_alpha   76.04672232
_cell_angle_beta   86.94915251
_cell_angle_gamma   71.53916354
_symmetry_Int_Tables_number   1
_chemical_formula_structural   ZnH12C19(NO2)2
_chemical_formula_sum   'Zn2 H24 C38 N4 O8'
_cell_volume   1681.09403165
_cell_formula_units_Z   2
loop_
 _symmetry_equiv_pos_site_id
 _symmetry_equiv_pos_as_xyz
  1  'x, y, z'
loop_
 _atom_site_type_symbol
 _atom_site_label
 _atom_site_symmetry_multiplicity
 _atom_site_fract_x
 _atom_site_fract_y
 _atom_site_fract_z
 _atom_site_occupancy
 _atom_site_pbe_bader_charge
 _atom_site_pbe_bader_spin_density
 _atom_site_pbe_cm5_charge
 _atom_site_pbe_ddec_charge
 _atom_site_pbe_ddec_spin_density
 _atom_site_pbe_ddec_sum_bond_order
 _atom_site_pbe_magmom
Zn  Zn0  1  0.45929680  0.61789952  0.50376167  1  1.282664  0  0.665026  0.816404  0  2.438217  0
Zn  Zn1  1  0.53870902  0.38247479  0.49643119  1  1.281673  0  0.665089  0.821118  0  2.399451  0
H  H2  1  0.10407273  0.48395796  0.33450653  1  0.05248  0  0.09319  0.079714  0  1.000565  0
H  H3  1  0.87000615  0.66003988  0.35925605  1  0.034235  0  0.090497  0.074273  0  1.004057  0
H  H4  1  0.63084665  0.94550148  0.35621475  1  0.051249  0  0.11658  0.112632  0  0.987747  0
H  H5  1  0.73352564  0.09702868  0.27592030  1  0.098572  0  0.119704  0.125013  0  0.969877  0
H  H6  1  0.41562227  0.24385073  0.61214536  1  0.166953  0  0.115679  0.136691  0  1.044444  0
H  H7  1  0.98910250  0.69163138  0.52896715  1  0.062686  0  0.091888  0.077874  0  1.004292  0
H  H8  1  0.89165889  0.52094422  0.65894826  1  0.063918  0  0.097494  0.083523  0  0.991692  0
H  H9  1  0.12575996  0.34581874  0.63417339  1  0.036516  0  0.091856  0.075344  0  1.005917  0
H  H10  1  0.00642464  0.31330248  0.46571065  1  0.062637  0  0.09091  0.076595  0  1.004659  0
H  H11  1  0.44177434  0.24392649  0.81719892  1  0.085306  0  0.098576  0.102776  0  1.011043  0
H  H12  1  0.39393212  0.21113730  0.00099252  1  0.056464  0  0.094846  0.089454  0  1.026038  0
H  H13  1  0.50105644  0.56632598  0.82090618  1  0.088956  0  0.100624  0.104322  0  1.035579  0
H  H14  1  0.49626270  0.68466171  0.89423596  1  0.035406  0  0.096448  0.106265  0  1.02717  0
H  H15  1  0.55512635  0.88291840  0.02768986  1  0.426183  0  0.300831  0.291673  0  0.953318  0
H  H16  1  0.55621391  0.84996032  0.91410052  1  0.419675  0  0.30129  0.293086  0  0.951949  0
H  H17  1  0.31623636  0.26296925  0.24493417  1  0.427022  0  0.301258  0.295415  0  0.944575  0
H  H18  1  0.29362817  0.23694381  0.13263379  1  0.412868  0  0.295429  0.283327  0  0.968014  0
H  H19  1  0.50108509  0.76739473  0.18489198  1  0.059059  0  0.100199  0.112043  0  1.002424  0
H  H20  1  0.39207815  0.41366451  0.26146441  1  0.096757  0  0.100701  0.12354  0  1.026571  0
H  H21  1  0.29437227  0.73303502  0.65202678  1  0.149256  0  0.129289  0.108547  0  0.974142  0
H  H22  1  0.30043388  0.10502736  0.69661789  1  0.074444  0  0.111631  0.112626  0  0.98404  0
H  H23  1  0.25616589  0.91606500  0.71439572  1  0.086165  0  0.116938  0.126436  0  0.977618  0
H  H24  1  0.54446505  0.82450692  0.43238320  1  0.099395  0  0.126378  0.098883  0  0.995831  0
H  H25  1  0.69081609  0.27425151  0.34676712  1  0.135148  0  0.131764  0.108908  0  0.971695  0
C  C26  1  0.47714097  0.57448450  0.30265919  1  1.535788  0  0.213203  0.601973  0  4.161541  0
C  C27  1  0.46222081  0.55716107  0.02459397  1  0.02833  0  -0.010431  0.039535  0  4.000772  0
C  C28  1  0.44884978  0.52881900  0.13257593  1  0.055981  0  -0.014044  0.055779  0  4.016175  0
C  C29  1  0.73986689  0.49380093  0.49249542  1  1.553307  0  0.21259  0.599266  0  4.170302  0
C  C30  1  0.45176193  0.47436938  0.96806494  1  0.046451  0  -0.008062  0.034273  0  3.970854  0
C  C31  1  0.41909339  0.37220366  0.01884904  1  -0.02906  0  -0.010467  -0.004966  0  3.965753  0
C  C32  1  0.39153431  0.35464127  0.12604892  1  0.34319  0  0.074959  0.223726  0  4.123872  0
C  C33  1  0.40999238  0.42936138  0.17991360  1  -0.044317  0  -0.113757  -0.264481  0  3.987512  0
C  C34  1  0.47616904  0.49004184  0.86322720  1  -0.076018  0  -0.082742  -0.128927  0  3.941262  0
C  C35  1  0.44267165  0.30773781  0.85986698  1  -0.009121  0  -0.095088  -0.103105  0  4.023778  0
C  C36  1  0.46839396  0.60611971  0.18855272  1  0.019558  0  -0.017733  -0.056347  0  3.954744  0
C  C37  1  0.06739465  0.41511318  0.57278740  1  -0.01736  0  -0.075078  -0.060258  0  3.637942  0
C  C38  1  0.31964606  0.89977149  0.65078888  1  -0.08209  0  -0.078748  -0.178301  0  3.969583  0
C  C39  1  0.64898249  0.20520144  0.38073087  1  0.51463  0  0.071406  0.121646  0  3.903641  0
C  C40  1  0.67156948  0.10632436  0.34132471  1  -0.004081  0  -0.07621  -0.124476  0  3.988979  0
C  C41  1  0.49915733  0.43290493  0.69770279  1  1.55539  0  0.210945  0.590748  0  4.178257  0
C  C42  1  0.61354215  0.02288422  0.38601120  1  0.030044  0  -0.057116  -0.070791  0  3.955111  0
C  C43  1  0.53174034  0.03879449  0.46941733  1  -0.038855  0  0.004616  -0.001621  0  3.969308  0
C  C44  1  0.51268838  0.14199809  0.50457015  1  0.475842  0  0.124855  0.20818  0  3.948352  0
C  C45  1  0.46567780  0.95687336  0.52028327  1  0.012495  0  0.000106  -0.015469  0  3.96999  0
C  C46  1  0.38230615  0.98159669  0.60253264  1  -0.016215  0  0.008156  0.102307  0  4.026841  0
C  C47  1  0.36524201  0.08702194  0.63398229  1  -0.07027  0  -0.078907  -0.1198  0  3.977119  0
C  C48  1  0.00386334  0.39730782  0.47921564  1  -0.038076  0  -0.083684  -0.075672  0  3.663544  0
C  C49  1  0.42809250  0.16414447  0.58731928  1  0.013829  0  -0.070191  -0.127927  0  3.923941  0
C  C50  1  0.48002475  0.85153674  0.49260857  1  0.532868  0  0.068333  0.066561  0  3.887431  0
C  C51  1  0.33952525  0.79944664  0.61736443  1  0.503604  0  0.050499  0.089016  0  3.940261  0
C  C52  1  0.25548444  0.51131350  0.50202657  1  1.568544  0  0.211434  0.591745  0  4.183082  0
C  C53  1  0.92804725  0.59046376  0.42056493  1  -0.009069  0  -0.079845  -0.066049  0  3.650962  0
C  C54  1  0.05518540  0.49189998  0.40654159  1  -0.033857  0  -0.077597  -0.06414  0  3.637233  0
C  C55  1  0.11906514  0.51084624  0.50000746  1  -0.001457  0  -0.009606  -0.024785  0  3.647202  0
C  C56  1  0.99163787  0.60812909  0.51438242  1  -0.042458  0  -0.083158  -0.074212  0  3.657224  0
C  C57  1  0.94047827  0.51343262  0.58686169  1  -0.036341  0  -0.072524  -0.061375  0  3.624805  0
C  C58  1  0.87620573  0.49544421  0.49219444  1  0.034728  0  -0.008868  -0.026124  0  3.642896  0
C  C59  1  0.41550184  0.29069688  0.96246473  1  -0.091705  0  -0.103033  -0.139144  0  4.028345  0
C  C60  1  0.47266370  0.40916530  0.80911610  1  -0.047059  0  -0.026664  -0.040392  0  4.003019  0
C  C61  1  0.48933072  0.70989830  0.13898693  1  -0.047082  0  -0.100716  -0.212866  0  3.964006  0
C  C62  1  0.49845800  0.73981451  0.03201638  1  0.367177  0  0.077405  0.288993  0  4.149436  0
C  C63  1  0.48684331  0.66209697  0.97676785  1  -0.036263  0  -0.113428  -0.264387  0  3.968086  0
N  N64  1  0.41870947  0.77658598  0.53880625  1  -1.245919  0  -0.320836  -0.189756  0  3.541136  0
N  N65  1  0.57304738  0.22220525  0.46000149  1  -1.235463  0  -0.310931  -0.24002  0  3.458644  0
N  N66  1  0.51473302  0.84712295  0.98334039  1  -1.202887  0  -0.608816  -0.636928  0  3.286756  0
N  N67  1  0.35343128  0.25757025  0.17506144  1  -1.202475  0  -0.607691  -0.630073  0  3.310594  0
O  O68  1  0.42707819  0.65542341  0.34918372  1  -1.163479  0  -0.325703  -0.549253  0  2.281815  0
O  O69  1  0.53872566  0.46865692  0.34430705  1  -1.176332  0  -0.315428  -0.56176  0  2.374394  0
O  O70  1  0.65312382  0.59366222  0.47735017  1  -1.179782  0  -0.32523  -0.561595  0  2.322321  0
O  O71  1  0.72024711  0.39502937  0.50995254  1  -1.162109  0  -0.326452  -0.550564  0  2.279596  0
O  O72  1  0.50796355  0.53320611  0.65555458  1  -1.176701  0  -0.32059  -0.559968  0  2.35146  0
O  O73  1  0.50966183  0.35176571  0.65184259  1  -1.176803  0  -0.319193  -0.551339  0  2.330079  0
O  O74  1  0.27942531  0.59385884  0.52958199  1  -1.163544  0  -0.320602  -0.548463  0  2.292945  0
O  O75  1  0.33947516  0.42572703  0.47532709  1  -1.181195  0  -0.323453  -0.564897  0  2.337581  0
