# generated using pymatgen
data_ZnH28C30(SN5)2
_symmetry_space_group_name_H-M   'P 1'
_cell_length_a   9.57164605
_cell_length_b   13.28742524
_cell_length_c   13.84565560
_cell_angle_alpha   72.12013985
_cell_angle_beta   69.77863654
_cell_angle_gamma   68.88643533
_symmetry_Int_Tables_number   1
_chemical_formula_structural   ZnH28C30(SN5)2
_chemical_formula_sum   'Zn2 H56 C60 S4 N20'
_cell_volume   1507.58448553
_cell_formula_units_Z   2
loop_
 _symmetry_equiv_pos_site_id
 _symmetry_equiv_pos_as_xyz
  1  'x, y, z'
loop_
 _atom_site_type_symbol
 _atom_site_label
 _atom_site_symmetry_multiplicity
 _atom_site_fract_x
 _atom_site_fract_y
 _atom_site_fract_z
 _atom_site_occupancy
 _atom_site_pbe_bader_spin_density
 _atom_site_pbe_cm5_charge
 _atom_site_pbe_ddec_charge
 _atom_site_pbe_ddec_spin_density
 _atom_site_pbe_ddec_sum_bond_order
 _atom_site_pbe_magmom
Zn  Zn0  1  0.48054082  0.75003815  0.24994420  1  0  0.70758  0.65891  0  2.588277  0
Zn  Zn1  1  0.51946046  0.24996101  0.75005559  1  0  0.707582  0.658902  0  2.58832  0
H  H2  1  0.84556506  0.66691365  0.15370338  1  0  0.111087  0.083271  0  0.996356  0
H  H3  1  0.66610371  0.83316049  0.34607107  1  0  0.110963  0.083947  0  0.99533  0
H  H4  1  0.15443432  0.33308633  0.84629670  1  0  0.111064  0.083232  0  0.996404  0
H  H5  1  0.33389940  0.16684112  0.65393100  1  0  0.110962  0.083954  0  0.99537  0
H  H6  1  0.06735229  0.50931710  0.19882136  1  0  0.094838  0.103073  0  1.054452  0
H  H7  1  0.77543082  0.99074843  0.30086115  1  0  0.094898  0.102988  0  1.054589  0
H  H8  1  0.93264684  0.49068042  0.80117598  1  0  0.094915  0.103163  0  1.054438  0
H  H9  1  0.22457222  0.00925238  0.69913811  1  0  0.094915  0.103018  0  1.054566  0
H  H10  1  0.73872091  0.38872686  0.47598466  1  0  0.101624  0.107633  0  1.069351  0
H  H11  1  0.60305345  0.11133409  0.02380419  1  0  0.101057  0.106647  0  1.071756  0
H  H12  1  0.26127894  0.61127229  0.52401657  1  0  0.10161  0.107581  0  1.069407  0
H  H13  1  0.39694750  0.88866589  0.97619543  1  0  0.101054  0.106645  0  1.071814  0
H  H14  1  0.53311297  0.55312971  0.42018257  1  0  0.11212  0.083256  0  1.024947  0
H  H15  1  0.50609241  0.94690063  0.07970725  1  0  0.112443  0.084026  0  1.025589  0
H  H16  1  0.46688852  0.44687024  0.57982100  1  0  0.112083  0.083209  0  1.024907  0
H  H17  1  0.49390948  0.05309768  0.92029467  1  0  0.112407  0.083955  0  1.025617  0
H  H18  1  0.37091035  0.07581689  0.42852451  1  0  0.105727  0.086467  0  0.987137  0
H  H19  1  0.87516267  0.42427809  0.07107832  1  0  0.106045  0.086665  0  0.986565  0
H  H20  1  0.62909150  0.92418474  0.57147434  1  0  0.105723  0.08646  0  0.98713  0
H  H21  1  0.12483716  0.57572190  0.92891907  1  0  0.106052  0.086663  0  0.98659  0
H  H22  1  0.27688956  0.12342450  0.32525268  1  0  0.096591  0.072433  0  1.017076  0
H  H23  1  0.72548888  0.37677103  0.17442002  1  0  0.096594  0.07257  0  1.017146  0
H  H24  1  0.72311334  0.87657631  0.67474560  1  0  0.096595  0.072423  0  1.01705  0
H  H25  1  0.27451337  0.62322896  0.82557717  1  0  0.096606  0.072642  0  1.017068  0
H  H26  1  0.08253112  0.07763110  0.49436130  1  0  0.104871  0.084416  0  0.989564  0
H  H27  1  0.65411279  0.42253734  0.00544210  1  0  0.105142  0.084714  0  0.988485  0
H  H28  1  0.91747107  0.92236970  0.50563770  1  0  0.104868  0.084394  0  0.989548  0
H  H29  1  0.34588679  0.57746181  0.99455716  1  0  0.105133  0.084729  0  0.988446  0
H  H30  1  0.12755671  0.16138450  0.55080041  1  0  0.099634  0.078431  0  0.971413  0
H  H31  1  0.83929991  0.33878070  0.94890899  1  0  0.099632  0.078245  0  0.971894  0
H  H32  1  0.87244449  0.83861631  0.44919734  1  0  0.099679  0.07848  0  0.971346  0
H  H33  1  0.16069797  0.66121846  0.05108974  1  0  0.099638  0.078252  0  0.971887  0
H  H34  1  0.46816846  0.37267747  0.21984126  1  0  0.099989  0.102022  0  1.056824  0
H  H35  1  0.06027985  0.12757003  0.27991783  1  0  0.099627  0.102518  0  1.056871  0
H  H36  1  0.53183012  0.62732416  0.78015751  1  0  0.09997  0.101976  0  1.056855  0
H  H37  1  0.93971782  0.87243241  0.72008250  1  0  0.099625  0.102522  0  1.056829  0
H  H38  1  0.55990692  0.54056632  0.17348777  1  0  0.112991  0.082467  0  1.025366  0
H  H39  1  0.27385796  0.95983229  0.32619265  1  0  0.112851  0.082454  0  1.026126  0
H  H40  1  0.44009188  0.45943365  0.82651402  1  0  0.112978  0.082458  0  1.025358  0
H  H41  1  0.72613755  0.04017014  0.67380985  1  0  0.112836  0.08242  0  1.026088  0
H  H42  1  0.16256994  0.69950091  0.37267639  1  0  0.112526  0.082974  0  1.02514  0
H  H43  1  0.23447851  0.80056605  0.12736525  1  0  0.112608  0.083034  0  1.024849  0
H  H44  1  0.83743029  0.30049907  0.62732396  1  0  0.112535  0.082999  0  1.025078  0
H  H45  1  0.76551970  0.19943391  0.87263825  1  0  0.112587  0.082997  0  1.024907  0
H  H46  1  0.05032223  0.54297455  0.42330296  1  0  0.103079  0.108501  0  1.03083  0
H  H47  1  0.01624675  0.95697662  0.07672447  1  0  0.10309  0.109335  0  1.030175  0
H  H48  1  0.94967551  0.45702709  0.57669556  1  0  0.103111  0.10853  0  1.030797  0
H  H49  1  0.98375475  0.04302086  0.92327833  1  0  0.1031  0.109369  0  1.03015  0
H  H50  1  0.92595554  0.23035662  0.41298215  1  0  0.283662  0.229706  0  1.020655  0
H  H51  1  0.56893417  0.26978613  0.08685596  1  0  0.284794  0.230524  0  1.019626  0
H  H52  1  0.07404417  0.76964253  0.58701810  1  0  0.283675  0.229731  0  1.020608  0
H  H53  1  0.43106606  0.73021385  0.91314439  1  0  0.284782  0.230487  0  1.019656  0
H  H54  1  0.41424347  0.24443576  0.38460349  1  0  0.279089  0.227318  0  1.039645  0
H  H55  1  0.04303969  0.25559684  0.11521796  1  0  0.279502  0.228776  0  1.038225  0
H  H56  1  0.58575525  0.75556587  0.61539628  1  0  0.279067  0.227307  0  1.039682  0
H  H57  1  0.95696164  0.74440397  0.88478078  1  0  0.279499  0.228751  0  1.03823  0
C  C58  1  0.82831145  0.60461758  0.22612311  1  0  0.034504  0.082192  0  3.97649  0
C  C59  1  0.65894915  0.89545625  0.27363962  1  0  0.036052  0.0833  0  3.977287  0
C  C60  1  0.17168912  0.39538157  0.77387740  1  0  0.034518  0.082248  0  3.976447  0
C  C61  1  0.34105212  0.10454538  0.72636093  1  0  0.036016  0.083245  0  3.977305  0
C  C62  1  0.95147930  0.51695676  0.25205534  1  0  -0.095388  -0.187255  0  3.973931  0
C  C63  1  0.72036994  0.98311146  0.24765346  1  0  -0.096975  -0.188967  0  3.976967  0
C  C64  1  0.04851891  0.48304157  0.74794355  1  0  -0.095445  -0.187368  0  3.973976  0
C  C65  1  0.27963343  0.01688851  0.75234596  1  0  -0.096957  -0.188908  0  3.976924  0
C  C66  1  0.92507571  0.43664312  0.34565689  1  0  0.005035  0.096042  0  4.012957  0
C  C67  1  0.70716126  0.06343836  0.15406320  1  0  0.00503  0.095953  0  4.015583  0
C  C68  1  0.07492458  0.56335604  0.65434164  1  0  0.005048  0.096089  0  4.012952  0
C  C69  1  0.29284041  0.93656162  0.84593570  1  0  0.005078  0.095986  0  4.015621  0
C  C70  1  0.76898821  0.44887751  0.40472565  1  0  -0.096459  -0.187505  0  3.95677  0
C  C71  1  0.62233539  0.05116945  0.09503910  1  0  -0.09415  -0.184156  0  3.957989  0
C  C72  1  0.23101117  0.55112246  0.59527444  1  0  -0.096448  -0.187445  0  3.956692  0
C  C73  1  0.37766688  0.94882969  0.90496194  1  0  -0.094154  -0.184165  0  3.957964  0
C  C74  1  0.65363721  0.53986005  0.37363465  1  0  0.03634  0.0915  0  3.967098  0
C  C75  1  0.56689718  0.96019041  0.12618170  1  0  0.034179  0.088592  0  3.968317  0
C  C76  1  0.34636349  0.46013910  0.62636684  1  0  0.036376  0.091526  0  3.966996  0
C  C77  1  0.43310423  0.03981121  0.87381984  1  0  0.034198  0.088676  0  3.968235  0
C  C78  1  0.04744133  0.34257644  0.37946586  1  0  0.064826  0.040049  0  4.026131  0
C  C79  1  0.76919096  0.15754312  0.12026415  1  0  0.064385  0.038473  0  4.028041  0
C  C80  1  0.95255811  0.65742272  0.62053241  1  0  0.064779  0.039929  0  4.026188  0
C  C81  1  0.23081024  0.84245769  0.87973360  1  0  0.06436  0.038387  0  4.028099  0
C  C82  1  0.28000913  0.14214190  0.39651190  1  0  -0.063713  -0.049109  0  3.942056  0
C  C83  1  0.81849672  0.35798601  0.10314618  1  0  -0.064979  -0.049614  0  3.94256  0
C  C84  1  0.71999240  0.85785809  0.60348601  1  0  -0.063695  -0.049051  0  3.942061  0
C  C85  1  0.18150462  0.64201233  0.89685179  1  0  -0.064998  -0.049719  0  3.942645  0
C  C86  1  0.11905991  0.15212944  0.47669243  1  0  -0.062553  -0.041249  0  3.944714  0
C  C87  1  0.74752321  0.34802453  0.02305576  1  0  -0.061973  -0.040782  0  3.943496  0
C  C88  1  0.88094214  0.84787137  0.52330558  1  0  -0.062568  -0.041242  0  3.944562  0
C  C89  1  0.25247604  0.65197545  0.97694334  1  0  -0.061976  -0.040806  0  3.943558  0
C  C90  1  0.20046632  0.34317999  0.35833473  1  0  0.075756  0.062705  0  4.04093  0
C  C91  1  0.90166019  0.15691927  0.14143106  1  0  0.076897  0.064988  0  4.039502  0
C  C92  1  0.79953318  0.65682082  0.64166250  1  0  0.075834  0.062873  0  4.040972  0
C  C93  1  0.09833978  0.84308071  0.85856731  1  0  0.076878  0.064983  0  4.039595  0
C  C94  1  0.25056787  0.44301795  0.32562880  1  0  0.007911  0.095112  0  4.011263  0
C  C95  1  0.01884641  0.05709785  0.17423121  1  0  0.009761  0.097778  0  4.009601  0
C  C96  1  0.74943011  0.55698452  0.67436784  1  0  0.007826  0.095022  0  4.011262  0
C  C97  1  0.98115239  0.94290212  0.82577058  1  0  0.009757  0.097757  0  4.009811  0
C  C98  1  0.39699099  0.44399934  0.25476238  1  0  -0.093372  -0.185026  0  3.970673  0
C  C99  1  0.09541008  0.05620980  0.24505527  1  0  -0.093488  -0.187303  0  3.972352  0
C  C100  1  0.60300441  0.55599817  0.74523759  1  0  -0.093358  -0.184974  0  3.970689  0
C  C101  1  0.90458564  0.94379182  0.75494640  1  0  -0.093504  -0.187334  0  3.972439  0
C  C102  1  0.44810639  0.53640532  0.22909704  1  0  0.038527  0.08588  0  3.973795  0
C  C103  1  0.21346515  0.96391297  0.27063550  1  0  0.037821  0.086774  0  3.976595  0
C  C104  1  0.55189351  0.46359548  0.77090315  1  0  0.038524  0.085845  0  3.973928  0
C  C105  1  0.78653383  0.03608864  0.72936624  1  0  0.037851  0.086799  0  3.976637  0
C  C106  1  0.22490556  0.62651831  0.33832533  1  0  0.036765  0.082256  0  3.965511  0
C  C107  1  0.18953184  0.87361482  0.16160619  1  0  0.037928  0.083667  0  3.968382  0
C  C108  1  0.77509296  0.37348414  0.66167526  1  0  0.036682  0.082148  0  3.965614  0
C  C109  1  0.81046742  0.12638432  0.83839675  1  0  0.037985  0.083731  0  3.968573  0
C  C110  1  0.16347200  0.53850722  0.36685325  1  0  -0.08772  -0.172718  0  3.953962  0
C  C111  1  0.06850045  0.96152771  0.13311899  1  0  -0.088256  -0.174598  0  3.956179  0
C  C112  1  0.83652482  0.46149276  0.63314604  1  0  -0.087709  -0.172738  0  3.954075  0
C  C113  1  0.93149868  0.03847143  0.86688297  1  0  -0.088278  -0.174691  0  3.956342  0
C  C114  1  0.36301057  0.78543836  0.49274946  1  0  0.13091  0.240453  0  4.362553  0
C  C115  1  0.64131572  0.71454958  0.00718023  1  0  0.132507  0.240961  0  4.359058  0
C  C116  1  0.63698889  0.21455996  0.50725266  1  0  0.130919  0.240499  0  4.362574  0
C  C117  1  0.35868298  0.28545289  0.99281568  1  0  0.132559  0.24104  0  4.359167  0
S  S118  1  0.30810432  0.82151093  0.60521822  1  0  -0.171796  -0.349157  0  2.342899  0
S  S119  1  0.73503224  0.67849078  0.89471899  1  0  -0.171264  -0.348699  0  2.341824  0
S  S120  1  0.69189864  0.17848325  0.39478622  1  0  -0.171804  -0.349177  0  2.342822  0
S  S121  1  0.26496721  0.32150838  0.10527928  1  0  -0.171307  -0.348759  0  2.341905  0
N  N122  1  0.68064658  0.61789427  0.28630455  1  0  -0.334502  -0.242067  0  3.548856  0
N  N123  1  0.58466224  0.88216851  0.21351597  1  0  -0.334398  -0.241914  0  3.55098  0
N  N124  1  0.31935365  0.38210570  0.71369579  1  0  -0.334512  -0.24207  0  3.548898  0
N  N125  1  0.41533845  0.11783310  0.78648630  1  0  -0.334416  -0.241979  0  3.551009  0
N  N126  1  0.00411487  0.24679922  0.43652899  1  0  -0.443003  -0.314999  0  3.564665  0
N  N127  1  0.68708710  0.25335289  0.06324855  1  0  -0.444628  -0.315469  0  3.564371  0
N  N128  1  0.99588666  0.75320077  0.56346893  1  0  -0.443012  -0.315019  0  3.564627  0
N  N129  1  0.31291215  0.74664709  0.93675054  1  0  -0.444603  -0.315378  0  3.564345  0
N  N130  1  0.31632443  0.24527253  0.36981967  1  0  -0.436863  -0.297322  0  3.616893  0
N  N131  1  0.93120442  0.25481985  0.12980413  1  0  -0.437399  -0.300519  0  3.617024  0
N  N132  1  0.68367834  0.75472829  0.63017762  1  0  -0.436859  -0.297375  0  3.617076  0
N  N133  1  0.06879868  0.74518014  0.87019332  1  0  -0.437408  -0.300463  0  3.617073  0
N  N134  1  0.36578562  0.62594577  0.27112344  1  0  -0.328177  -0.233667  0  3.539295  0
N  N135  1  0.26279422  0.87433167  0.22865936  1  0  -0.329632  -0.236557  0  3.542325  0
N  N136  1  0.63421409  0.37405338  0.72887681  1  0  -0.328133  -0.233551  0  3.539189  0
N  N137  1  0.73720366  0.12566911  0.77134399  1  0  -0.329657  -0.236487  0  3.542422  0
N  N138  1  0.39967502  0.75697573  0.41208230  1  0  -0.388548  -0.477014  0  3.25729  0
N  N139  1  0.56883101  0.74298069  0.08785462  1  0  -0.39051  -0.478278  0  3.257199  0
N  N140  1  0.60032568  0.24302341  0.58791920  1  0  -0.388572  -0.477075  0  3.25739  0
N  N141  1  0.43116854  0.25702178  0.91214156  1  0  -0.390507  -0.478307  0  3.257347  0
