# generated using pymatgen
data_Zn4H6C25S4N2O19
_symmetry_space_group_name_H-M   'P 1'
_cell_length_a   19.62000283
_cell_length_b   19.62567581
_cell_length_c   33.29022732
_cell_angle_alpha   79.17352414
_cell_angle_beta   79.23115109
_cell_angle_gamma   63.86721377
_symmetry_Int_Tables_number   1
_chemical_formula_structural   Zn4H6C25S4N2O19
_chemical_formula_sum   'Zn16 H24 C100 S16 N8 O76'
_cell_volume   11224.31785479
_cell_formula_units_Z   4
loop_
 _symmetry_equiv_pos_site_id
 _symmetry_equiv_pos_as_xyz
  1  'x, y, z'
loop_
 _atom_site_type_symbol
 _atom_site_label
 _atom_site_symmetry_multiplicity
 _atom_site_fract_x
 _atom_site_fract_y
 _atom_site_fract_z
 _atom_site_occupancy
 _atom_site_pbe_bader_charge
 _atom_site_pbe_bader_spin_density
 _atom_site_pbe_cm5_charge
 _atom_site_pbe_ddec_charge
 _atom_site_pbe_ddec_spin_density
 _atom_site_pbe_ddec_sum_bond_order
 _atom_site_pbe_magmom
Zn  Zn0  1  0.05790528  0.40198393  0.47773164  1  1.317481  0  0.672639  0.972252  0  2.331133  0
Zn  Zn1  1  0.98381332  0.48162301  0.56050150  1  1.330514  0  0.691518  0.990357  0  2.324362  0
Zn  Zn2  1  0.05937351  0.56411860  0.48519699  1  1.329946  0  0.689012  0.988303  0  2.33483  0
Zn  Zn3  1  0.90341954  0.55695307  0.47729666  1  1.321081  0  0.681123  0.975726  0  2.34993  0
Zn  Zn4  1  0.69601133  0.35107267  0.27048299  1  1.317399  0  0.673525  0.970444  0  2.349799  0
Zn  Zn5  1  0.68776036  0.19207496  0.26725490  1  1.320119  0  0.673137  0.966914  0  2.352061  0
Zn  Zn6  1  0.76847111  0.26135638  0.18912407  1  1.320277  0  0.687034  0.986576  0  2.327146  0
Zn  Zn7  1  0.84849998  0.19783839  0.27217615  1  1.321994  0  0.679873  0.971998  0  2.360959  0
Zn  Zn8  1  0.26759320  0.76409571  0.68819191  1  1.32255  0  0.673018  0.96197  0  2.372774  0
Zn  Zn9  1  0.35274878  0.69436451  0.76873973  1  1.324913  0  0.683165  0.97961  0  2.348436  0
Zn  Zn10  1  0.19518227  0.84752590  0.77052771  1  1.321201  0  0.678463  0.976467  0  2.346354  0
Zn  Zn11  1  0.19198245  0.68778905  0.76606621  1  1.321496  0  0.680556  0.976045  0  2.345278  0
Zn  Zn12  1  0.56093200  0.06063393  0.98244989  1  1.312555  0  0.67333  0.967066  0  2.357466  0
Zn  Zn13  1  0.40136998  0.05584088  0.97636613  1  1.317625  0  0.673295  0.964806  0  2.357163  0
Zn  Zn14  1  0.55570624  0.90113665  0.97656057  1  1.318582  0  0.674414  0.967084  0  2.375307  0
Zn  Zn15  1  0.48437549  0.98101518  0.05890939  1  1.312629  0  0.672438  0.964916  0  2.370631  0
H  H16  1  0.95710024  0.25726699  0.34507114  1  0.106979  0  0.114377  0.12141  0  0.98373  0
H  H17  1  0.73427715  0.43999964  0.36617804  1  0.113973  0  0.116287  0.127971  0  0.980193  0
H  H18  1  0.00635271  0.30646324  0.39252266  1  0.142773  0  0.11395  0.120589  0  0.985228  0
H  H19  1  0.08539364  0.60585132  0.70361627  1  0.134891  0  0.116954  0.124218  0  0.979012  0
H  H20  1  0.20682352  0.68729086  0.59935737  1  0.11842  0  0.11514  0.128763  0  0.980947  0
H  H21  1  0.02803435  0.56588610  0.65578628  1  0.122705  0  0.120279  0.130641  0  0.973294  0
H  H22  1  0.47456254  0.23805400  0.35249090  1  0.133434  0  0.123146  0.148846  0  0.96843  0
H  H23  1  0.48073093  0.67909764  0.59711184  1  0.095394  0  0.124718  0.150651  0  0.966319  0
H  H24  1  0.21679010  0.97749491  0.60106840  1  0.145055  0  0.122908  0.14868  0  0.969351  0
H  H25  1  0.96216196  0.96056326  0.33394275  1  0.153348  0  0.127765  0.156194  0  0.960243  0
H  H26  1  0.55377606  0.04083469  0.15243204  1  0.123712  0  0.11397  0.120863  0  0.985931  0
H  H27  1  0.64311247  0.15995348  0.05059978  1  0.14226  0  0.115837  0.127834  0  0.983549  0
H  H28  1  0.59892360  0.09063858  0.20159123  1  0.133491  0  0.114687  0.121144  0  0.982283  0
H  H29  1  0.53793047  0.76582977  0.14583864  1  0.148433  0  0.123531  0.149977  0  0.967459  0
H  H30  1  0.16272077  0.15781502  0.04068416  1  0.146313  0  0.124802  0.151128  0  0.965405  0
H  H31  1  0.49093697  0.78572622  0.90892605  1  0.125992  0  0.116502  0.123725  0  0.980797  0
H  H32  1  0.30630545  0.00787367  0.88908049  1  0.130425  0  0.114986  0.129573  0  0.980296  0
H  H33  1  0.44408864  0.73766523  0.85981825  1  0.155645  0  0.119049  0.13031  0  0.976477  0
H  H34  1  0.30115733  0.28248647  0.90110154  1  0.130151  0  0.124565  0.150582  0  0.964953  0
H  H35  1  0.78169499  0.01588027  0.90068772  1  0.114394  0  0.124969  0.151825  0  0.9661  0
H  H36  1  0.78118724  0.57323847  0.37757621  1  0.621214  0  0.340391  0.372831  0  0.865915  0
H  H37  1  0.08284641  0.74527983  0.53423166  1  0.625765  0  0.338463  0.370816  0  0.870946  0
H  H38  1  0.78780059  0.14611555  0.08095104  1  0.592581  0  0.339079  0.370226  0  0.871009  0
H  H39  1  0.17734075  0.94707438  0.87532726  1  0.605263  0  0.337452  0.369695  0  0.873058  0
C  C40  1  0.07001583  0.31559890  0.55945172  1  1.617701  0  0.222304  0.618144  0  4.213566  0
C  C41  1  0.05233185  0.57880598  0.57325540  1  1.55653  0  0.232494  0.605431  0  4.171396  0
C  C42  1  0.18675964  0.44242997  0.44330454  1  1.595385  0  0.223943  0.617693  0  4.208057  0
C  C43  1  0.94756818  0.67939474  0.43285786  1  1.634621  0  0.221621  0.616645  0  4.221304  0
C  C44  1  0.93014526  0.42872722  0.43288008  1  1.566668  0  0.231258  0.60614  0  4.169969  0
C  C45  1  0.81899615  0.55760971  0.55810554  1  1.624573  0  0.225956  0.620449  0  4.205026  0
C  C46  1  0.56761289  0.31543228  0.31257537  1  1.589989  0  0.220324  0.614127  0  4.211572  0
C  C47  1  0.67679450  0.17785923  0.18324066  1  1.551533  0  0.230462  0.60477  0  4.166088  0
C  C48  1  0.69256119  0.42863012  0.18572723  1  1.611696  0  0.224271  0.618974  0  4.211567  0
C  C49  1  0.93419250  0.19459844  0.18957110  1  1.590457  0  0.222345  0.615833  0  4.215722  0
C  C50  1  0.81469175  0.31896804  0.32312885  1  1.597688  0  0.231787  0.606022  0  4.160921  0
C  C51  1  0.81758389  0.06316502  0.30521160  1  1.587291  0  0.220783  0.612587  0  4.211818  0
C  C52  1  0.43428400  0.68517401  0.68441241  1  1.597034  0  0.220476  0.614334  0  4.21048  0
C  C53  1  0.32320334  0.81561725  0.81778962  1  1.566607  0  0.230284  0.601671  0  4.174592  0
C  C54  1  0.19012419  0.93192617  0.68738268  1  1.576275  0  0.222143  0.615256  0  4.207399  0
C  C55  1  0.06772786  0.81062258  0.80882466  1  1.605754  0  0.221235  0.615462  0  4.216076  0
C  C56  1  0.18176996  0.67537758  0.68177374  1  1.55774  0  0.23326  0.609286  0  4.159001  0
C  C57  1  0.30935069  0.57259694  0.81420666  1  1.606626  0  0.22294  0.616594  0  4.215145  0
C  C58  1  0.43659248  0.18745202  0.94004782  1  1.598141  0  0.219495  0.613179  0  4.214871  0
C  C59  1  0.42898641  0.92916766  0.93056755  1  1.571521  0  0.231902  0.607207  0  4.16355  0
C  C60  1  0.68251194  0.94154784  0.93516733  1  1.578524  0  0.221018  0.61373  0  4.211805  0
C  C61  1  0.56189236  0.81390756  0.05949029  1  1.566043  0  0.218746  0.609795  0  4.217423  0
C  C62  1  0.57132298  0.06615263  0.06923728  1  1.551499  0  0.230125  0.603726  0  4.165206  0
C  C63  1  0.31636285  0.06414012  0.05998374  1  1.590502  0  0.219939  0.613104  0  4.214844  0
C  C64  1  0.89814032  0.39991940  0.40592560  1  -0.028368  0  -0.008322  -0.054964  0  3.94801  0
C  C65  1  0.84321063  0.34670178  0.35247689  1  -0.078707  0  -0.008541  -0.018403  0  3.96423  0
C  C66  1  0.82054080  0.43796373  0.39913088  1  -0.049377  0  -0.004389  -0.062829  0  3.969748  0
C  C67  1  0.91975111  0.30787555  0.36018519  1  0.035355  0  -0.074706  -0.087868  0  3.959105  0
C  C68  1  0.79393420  0.41132051  0.37200281  1  -0.031456  0  -0.072777  -0.116101  0  3.930229  0
C  C69  1  0.94684034  0.33489623  0.38651124  1  -0.014556  0  -0.0738  -0.078224  0  3.965865  0
C  C70  1  0.08566576  0.60403361  0.60116477  1  0.003736  0  -0.007337  -0.053065  0  3.951874  0
C  C71  1  0.14853078  0.64962746  0.65397446  1  -0.053268  0  -0.008606  -0.020435  0  3.969242  0
C  C72  1  0.13667822  0.63788040  0.58466083  1  -0.021892  0  -0.00675  -0.06809  0  3.985225  0
C  C73  1  0.09882616  0.61479631  0.67034400  1  0.036115  0  -0.071388  -0.083994  0  3.943283  0
C  C74  1  0.16719788  0.66110768  0.61134029  1  -0.015789  0  -0.075223  -0.120313  0  3.942345  0
C  C75  1  0.06729961  0.59256141  0.64391753  1  -0.071632  0  -0.067847  -0.073294  0  3.938744  0
C  C76  1  0.30290022  0.46374254  0.39907184  1  0.353037  0  0.081404  0.03361  0  3.923921  0
C  C77  1  0.45400401  0.29787334  0.35652789  1  0.064303  0  -0.086256  -0.129947  0  3.962027  0
C  C78  1  0.26087398  0.42170663  0.41675738  1  -0.125563  0  -0.004481  -0.14499  0  3.897398  0
C  C79  1  0.49398212  0.34128241  0.33894072  1  -0.194866  0  -0.022835  -0.122048  0  3.973244  0
C  C80  1  0.38500129  0.34254995  0.37916187  1  -0.210331  0  -0.018995  -0.004255  0  4.072995  0
C  C81  1  0.37431034  0.41869776  0.37823167  1  -0.115308  0  -0.015046  -0.06731  0  4.078151  0
C  C82  1  0.72659790  0.58351666  0.62650684  1  0.3584  0  0.07873  0.026378  0  3.942866  0
C  C83  1  0.52504957  0.65867610  0.61735410  1  0.122534  0  -0.084829  -0.127872  0  3.958012  0
C  C84  1  0.74419521  0.58408108  0.58395870  1  -0.114886  0  -0.002525  -0.145556  0  3.903839  0
C  C85  1  0.50949044  0.65838746  0.65965863  1  -0.203066  0  -0.023852  -0.124704  0  3.976812  0
C  C86  1  0.60473847  0.62992031  0.60543803  1  -0.165689  0  -0.017349  -0.010064  0  4.064595  0
C  C87  1  0.64730994  0.60845511  0.63904903  1  -0.181104  0  -0.015338  -0.066698  0  4.091039  0
C  C88  1  0.07439096  0.22428002  0.62792761  1  0.331314  0  0.080222  0.032359  0  3.934578  0
C  C89  1  0.18338531  0.02234147  0.62073483  1  0.053548  0  -0.08773  -0.133086  0  3.964272  0
C  C90  1  0.08976903  0.24130892  0.58559328  1  -0.109242  0  -0.007679  -0.150089  0  3.909599  0
C  C91  1  0.16688561  0.00752112  0.66283594  1  -0.162039  0  -0.020286  -0.119685  0  3.970461  0
C  C92  1  0.15058852  0.10179728  0.60825586  1  -0.240694  0  -0.018209  -0.00275  0  4.069215  0
C  C93  1  0.11007350  0.14514225  0.64123348  1  -0.082335  0  -0.015366  -0.070126  0  4.079502  0
C  C94  1  0.85068540  0.79969744  0.39392762  1  0.314241  0  0.075416  0.026952  0  3.96029  0
C  C95  1  0.91589306  0.94233220  0.34129720  1  -0.011187  0  -0.081793  -0.125688  0  3.944814  0
C  C96  1  0.92155770  0.75470431  0.40769432  1  -0.152581  0  -0.012231  -0.162168  0  3.934463  0
C  C97  1  0.84429735  0.98649907  0.32864240  1  -0.157442  0  -0.02127  -0.118225  0  3.973479  0
C  C98  1  0.91837415  0.87329803  0.36446813  1  -0.110761  0  -0.01615  -0.004452  0  4.060357  0
C  C99  1  0.84841564  0.86685863  0.36870227  1  -0.146836  0  -0.01797  -0.069607  0  4.078081  0
C  C100  1  0.64665907  0.15231195  0.15366873  1  0.031125  0  -0.005953  -0.047184  0  3.941802  0
C  C101  1  0.59717066  0.09648372  0.09871297  1  -0.069259  0  -0.009159  -0.019098  0  3.960934  0
C  C102  1  0.65890367  0.17300794  0.11090190  1  -0.042598  0  -0.005904  -0.066412  0  3.977488  0
C  C103  1  0.58351178  0.07752723  0.14125065  1  -0.026285  0  -0.074177  -0.085909  0  3.95323  0
C  C104  1  0.63443333  0.14444938  0.08373252  1  -0.014625  0  -0.074366  -0.11985  0  3.935926  0
C  C105  1  0.60826635  0.10531210  0.16842752  1  -0.044644  0  -0.073636  -0.081254  0  3.95725  0
C  C106  1  0.68454919  0.52077009  0.11686186  1  0.265057  0  0.081696  0.034366  0  3.924507  0
C  C107  1  0.57156699  0.72179463  0.12571759  1  0.032086  0  -0.086736  -0.13217  0  3.962937  0
C  C108  1  0.67078841  0.50272678  0.15922416  1  -0.090432  0  -0.005744  -0.147867  0  3.903646  0
C  C109  1  0.58669732  0.73791834  0.08362232  1  -0.20654  0  -0.02287  -0.12059  0  3.974774  0
C  C110  1  0.60603544  0.64216739  0.13754780  1  -0.103503  0  -0.018292  -0.004415  0  4.071112  0
C  C111  1  0.64655957  0.59994943  0.10416105  1  -0.133647  0  -0.015749  -0.068147  0  4.077382  0
C  C112  1  0.08313880  0.11982007  0.17757903  1  0.346484  0  0.077164  0.025693  0  3.940333  0
C  C113  1  0.17078907  0.13583970  0.07275971  1  0.031741  0  -0.08617  -0.130514  0  3.9581  0
C  C114  1  0.01068024  0.16522545  0.16539692  1  -0.125425  0  -0.006246  -0.151003  0  3.907243  0
C  C115  1  0.24189546  0.09050586  0.08572608  1  -0.183538  0  -0.021644  -0.11774  0  3.9689  0
C  C116  1  0.11311277  0.14780044  0.10663037  1  -0.211951  0  -0.017909  -0.00733  0  4.067023  0
C  C117  1  0.14195944  0.11096695  0.14441119  1  -0.083263  0  -0.016958  -0.068679  0  4.082919  0
C  C118  1  0.34934708  0.84560400  0.84713605  1  0.015383  0  -0.007693  -0.05412  0  3.947822  0
C  C119  1  0.40078305  0.89949720  0.90199944  1  -0.065525  0  -0.009321  -0.022104  0  3.967862  0
C  C120  1  0.30948782  0.92234679  0.85527794  1  -0.027886  0  -0.005329  -0.064957  0  3.978903  0
C  C121  1  0.44023334  0.82322413  0.89385535  1  0.019877  0  -0.072101  -0.082602  0  3.946738  0
C  C122  1  0.33566495  0.94855646  0.88278450  1  -0.028786  0  -0.07438  -0.119302  0  3.938527  0
C  C123  1  0.41442723  0.79669204  0.86661158  1  -0.106031  0  -0.069603  -0.076392  0  3.944975  0
C  C124  1  0.39886771  0.46066319  0.86273363  1  0.314126  0  0.077716  0.026332  0  3.940054  0
C  C125  1  0.34351648  0.30484769  0.89940000  1  0.024808  0  -0.084894  -0.126627  0  3.957544  0
C  C126  1  0.33289790  0.50142639  0.84324758  1  -0.123409  0  -0.004728  -0.148778  0  3.906585  0
C  C127  1  0.41072477  0.26460575  0.91721895  1  -0.190726  0  -0.023049  -0.122952  0  3.975299  0
C  C128  1  0.33986870  0.37617287  0.87923660  1  -0.134956  0  -0.017975  -0.009396  0  4.070158  0
C  C129  1  0.40416090  0.38843346  0.88250633  1  -0.117572  0  -0.014919  -0.063967  0  4.079499  0
C  C130  1  0.94965228  0.79153560  0.85141182  1  0.290936  0  0.078491  0.028636  0  3.937633  0
C  C131  1  0.80069782  0.95691796  0.89539260  1  0.005653  0  -0.086457  -0.131928  0  3.960146  0
C  C132  1  0.99408484  0.83189064  0.83575802  1  -0.085941  0  -0.006346  -0.148284  0  3.906339  0
C  C133  1  0.75771879  0.91549249  0.91019787  1  -0.130927  0  -0.022302  -0.120431  0  3.970108  0
C  C134  1  0.87019516  0.91170171  0.87326502  1  -0.149319  0  -0.018443  -0.005684  0  4.066481  0
C  C135  1  0.87828951  0.83705289  0.87204876  1  -0.110393  0  -0.015897  -0.068082  0  4.082689  0
C  C136  1  0.76207713  0.50315452  0.42213614  1  1.570047  0  0.229743  0.585373  0  4.139494  0
C  C137  1  0.16569427  0.64527982  0.53944045  1  1.549937  0  0.229161  0.584225  0  4.136792  0
C  C138  1  0.69141509  0.23063501  0.09296654  1  1.538513  0  0.230418  0.58304  0  4.135524  0
C  C139  1  0.24205150  0.98085520  0.83389272  1  1.565816  0  0.228115  0.583466  0  4.138034  0
S  S140  1  0.30827950  0.32753710  0.40669824  1  0.329938  0  0.119953  0.174835  0  2.746148  0
S  S141  1  0.44920868  0.43550579  0.35023369  1  0.357752  0  0.113352  0.175827  0  2.794131  0
S  S142  1  0.66341367  0.61708050  0.55933086  1  0.354883  0  0.148073  0.216138  0  2.719081  0
S  S143  1  0.59055341  0.62224442  0.68519793  1  0.361431  0  0.114214  0.178324  0  2.811864  0
S  S144  1  0.14615762  0.15958122  0.56201178  1  0.299131  0  0.116634  0.170253  0  2.738735  0
S  S145  1  0.11331390  0.08902399  0.68760772  1  0.351294  0  0.123852  0.192246  0  2.782727  0
S  S146  1  0.98587146  0.79537748  0.39023958  1  0.346216  0  0.130627  0.193316  0  2.716666  0
S  S147  1  0.78010822  0.94467534  0.34392182  1  0.306327  0  0.101317  0.159987  0  2.760822  0
S  S148  1  0.61314628  0.58334249  0.18348016  1  0.316484  0  0.122123  0.178232  0  2.746665  0
S  S149  1  0.64125148  0.65735813  0.05813838  1  0.349859  0  0.11516  0.178177  0  2.793419  0
S  S150  1  0.01479199  0.19490607  0.11303355  1  0.360812  0  0.137332  0.201956  0  2.733182  0
S  S151  1  0.23962824  0.06313336  0.13872454  1  0.327951  0  0.108145  0.169596  0  2.798269  0
S  S152  1  0.27573589  0.45258179  0.85093458  1  0.344316  0  0.136614  0.199449  0  2.731719  0
S  S153  1  0.46966405  0.31243662  0.90967741  1  0.354868  0  0.112594  0.17435  0  2.798426  0
S  S154  1  0.94920329  0.92490473  0.84773086  1  0.318059  0  0.128203  0.186771  0  2.735733  0
S  S155  1  0.80037701  0.82246628  0.89710951  1  0.365596  0  0.115167  0.178684  0  2.796381  0
N  N156  1  0.27821040  0.54598256  0.39714076  1  0.399953  0  0.062429  0.534503  0  4.208855  0
N  N157  1  0.77885824  0.56773376  0.65625140  1  0.359716  0  0.058717  0.531419  0  4.218023  0
N  N158  1  0.02331310  0.27732248  0.65716940  1  0.365662  0  0.060747  0.528203  0  4.218851  0
N  N159  1  0.78225331  0.78480571  0.40528586  1  0.380219  0  0.061754  0.535163  0  4.223936  0
N  N160  1  0.73647718  0.46932234  0.08712639  1  0.40595  0  0.060998  0.532021  0  4.211553  0
N  N161  1  0.10111617  0.07865062  0.21815207  1  0.373155  0  0.058802  0.532729  0  4.21772  0
N  N162  1  0.45588758  0.48714279  0.86619068  1  0.3837  0  0.059484  0.531854  0  4.218333  0
N  N163  1  0.97190788  0.71040051  0.85098159  1  0.359612  0  0.057843  0.527805  0  4.217577  0
O  O164  1  0.00186165  0.50059276  0.49976092  1  -1.233201  0  -0.571182  -1.042959  0  2.517145  0
O  O165  1  0.07706951  0.31308799  0.52061194  1  -1.164059  0  -0.31587  -0.542779  0  2.303788  0
O  O166  1  0.01804334  0.53653767  0.58946793  1  -1.145959  0  -0.299162  -0.518049  0  2.331443  0
O  O167  1  0.16332408  0.50024447  0.46237459  1  -1.147938  0  -0.298608  -0.511389  0  2.361919  0
O  O168  1  0.05028233  0.37429534  0.57727318  1  -1.15972  0  -0.30772  -0.527496  0  2.358018  0
O  O169  1  0.15467131  0.39725800  0.44503193  1  -1.149552  0  -0.316748  -0.547443  0  2.315934  0
O  O170  1  0.06116460  0.60230663  0.53502647  1  -1.174051  0  -0.307877  -0.552749  0  2.400431  0
O  O171  1  0.01070654  0.65706026  0.44750922  1  -1.156455  0  -0.306902  -0.526701  0  2.318118  0
O  O172  1  0.88571189  0.49328034  0.44530921  1  -1.163165  0  -0.302182  -0.538471  0  2.394586  0
O  O173  1  0.90551044  0.64372299  0.43710166  1  -1.171239  0  -0.3116  -0.534325  0  2.349121  0
O  O174  1  0.99874702  0.38768679  0.44063613  1  -1.174713  0  -0.309843  -0.537002  0  2.322415  0
O  O175  1  0.87532398  0.50284747  0.57396945  1  -1.152805  0  -0.305917  -0.528085  0  2.34809  0
O  O176  1  0.81867561  0.59153271  0.52129525  1  -1.151101  0  -0.307428  -0.526317  0  2.302843  0
O  O177  1  0.74974963  0.25083499  0.24973382  1  -1.227411  0  -0.571039  -1.037431  0  2.52  0
O  O178  1  0.59457322  0.36531384  0.29933480  1  -1.170602  0  -0.317612  -0.544723  0  2.327578  0
O  O179  1  0.65021592  0.17316727  0.22116416  1  -1.162656  0  -0.308444  -0.534073  0  2.307216  0
O  O180  1  0.71381673  0.36898032  0.16846909  1  -1.149059  0  -0.300901  -0.516201  0  2.368012  0
O  O181  1  0.59759140  0.24597083  0.30514119  1  -1.168851  0  -0.315919  -0.537928  0  2.309761  0
O  O182  1  0.68533887  0.43309860  0.22432706  1  -1.154199  0  -0.315553  -0.543427  0  2.321261  0
O  O183  1  0.72856939  0.20101577  0.16778858  1  -1.163029  0  -0.304602  -0.545093  0  2.382386  0
O  O184  1  0.87801687  0.21676060  0.16867631  1  -1.149315  0  -0.308487  -0.531191  0  2.315847  0
O  O185  1  0.85755851  0.25211674  0.31309178  1  -1.176507  0  -0.311449  -0.542006  0  2.340514  0
O  O186  1  0.93082355  0.19737804  0.22768484  1  -1.152447  0  -0.308574  -0.528478  0  2.350623  0
O  O187  1  0.75047230  0.36424927  0.31040569  1  -1.174629  0  -0.311123  -0.541036  0  2.324275  0
O  O188  1  0.74882977  0.09207833  0.29635894  1  -1.174149  0  -0.318757  -0.548769  0  2.335531  0
O  O189  1  0.86492829  0.09366136  0.29628418  1  -1.154089  0  -0.310468  -0.528654  0  2.312874  0
O  O190  1  0.25185148  0.74872718  0.74867399  1  -1.240808  0  -0.572255  -1.037955  0  2.527246  0
O  O191  1  0.37520613  0.71359187  0.66530608  1  -1.166973  0  -0.315269  -0.536943  0  2.305369  0
O  O192  1  0.36664376  0.74881943  0.80803410  1  -1.156266  0  -0.302902  -0.524374  0  2.329264  0
O  O193  1  0.16701874  0.93186341  0.72600024  1  -1.157737  0  -0.314699  -0.538978  0  2.327372  0
O  O194  1  0.43526934  0.67795865  0.72337899  1  -1.181798  0  -0.317472  -0.544792  0  2.338428  0
O  O195  1  0.23043623  0.87381472  0.66808192  1  -1.168558  0  -0.314705  -0.53807  0  2.309534  0
O  O196  1  0.25874859  0.86005768  0.80513498  1  -1.174401  0  -0.303164  -0.543153  0  2.399913  0
O  O197  1  0.10346441  0.85174585  0.80877503  1  -1.147524  0  -0.313961  -0.540133  0  2.307463  0
O  O198  1  0.17672706  0.64974495  0.71989561  1  -1.165393  0  -0.312629  -0.541954  0  2.328267  0
O  O199  1  0.08744870  0.75651897  0.78735255  1  -1.158552  0  -0.308256  -0.528073  0  2.346562  0
O  O200  1  0.21207469  0.72110217  0.66505634  1  -1.174677  0  -0.312615  -0.54459  0  2.338075  0
O  O201  1  0.36121774  0.59284231  0.79550148  1  -1.152874  0  -0.306168  -0.526347  0  2.352918  0
O  O202  1  0.23816623  0.60497793  0.80949254  1  -1.15316  0  -0.310158  -0.532276  0  2.311061  0
O  O203  1  0.50037508  0.00015568  0.99857824  1  -1.220045  0  -0.570133  -1.031623  0  2.524828  0
O  O204  1  0.50190462  0.16087162  0.95316656  1  -1.177348  0  -0.317546  -0.544693  0  2.333565  0
O  O205  1  0.38621750  0.99638889  0.94025925  1  -1.172864  0  -0.312846  -0.544686  0  2.332197  0
O  O206  1  0.65206708  0.89397160  0.94358842  1  -1.175757  0  -0.316444  -0.541809  0  2.336147  0
O  O207  1  0.39204595  0.15413624  0.94467203  1  -1.170211  0  -0.314925  -0.537182  0  2.311164  0
O  O208  1  0.65498653  0.00828418  0.94635115  1  -1.167974  0  -0.31448  -0.536949  0  2.307114  0
O  O209  1  0.49384541  0.88473918  0.94274403  1  -1.169931  0  -0.310365  -0.541084  0  2.343565  0
O  O210  1  0.58134242  0.81494412  0.02058165  1  -1.165406  0  -0.315918  -0.540888  0  2.336485  0
O  O211  1  0.53313012  0.02720986  0.08502803  1  -1.162863  0  -0.311804  -0.543472  0  2.33848  0
O  O212  1  0.52386096  0.87160775  0.07941878  1  -1.161989  0  -0.315373  -0.537072  0  2.311449  0
O  O213  1  0.58969215  0.08159262  0.03092190  1  -1.166136  0  -0.310563  -0.54015  0  2.330263  0
O  O214  1  0.31571759  0.08130594  0.02110024  1  -1.163968  0  -0.313872  -0.536682  0  2.306402  0
O  O215  1  0.37491071  0.02576290  0.07941747  1  -1.173017  0  -0.317657  -0.544474  0  2.336047  0
O  O216  1  0.74506691  0.57508687  0.40234869  1  -1.106345  0  -0.334658  -0.466972  0  2.202578  0
O  O217  1  0.72660491  0.49295055  0.45491476  1  -1.1054  0  -0.283821  -0.447242  0  2.032209  0
O  O218  1  0.12919201  0.71468890  0.51747218  1  -1.109958  0  -0.339672  -0.474786  0  2.195406  0
O  O219  1  0.22230691  0.59590163  0.52378261  1  -1.10631  0  -0.280084  -0.436732  0  2.030833  0
O  O220  1  0.76514561  0.20172078  0.07471443  1  -1.081496  0  -0.336844  -0.469909  0  2.193369  0
O  O221  1  0.65339647  0.29907584  0.09164180  1  -1.083187  0  -0.277281  -0.433181  0  2.029073  0
O  O222  1  0.17147584  0.98896105  0.85316922  1  -1.093965  0  -0.3414  -0.476266  0  2.199655  0
O  O223  1  0.24833305  0.02383120  0.80358615  1  -1.104337  0  -0.280179  -0.438563  0  2.025215  0
O  O224  1  0.20930756  0.58863458  0.39859735  1  -0.441721  0  -0.128313  -0.317812  0  1.89779  0
O  O225  1  0.33086072  0.56710327  0.39191361  1  -0.455855  0  -0.137506  -0.332117  0  1.864559  0
O  O226  1  0.75580528  0.55166687  0.69270759  1  -0.452675  0  -0.138378  -0.333061  0  1.869487  0
O  O227  1  0.83959813  0.57422789  0.64444400  1  -0.436284  0  -0.133871  -0.325228  0  1.897678  0
O  O228  1  0.04000813  0.25887962  0.69313013  1  -0.43828  0  -0.136422  -0.329917  0  1.859002  0
O  O229  1  0.96667630  0.33333504  0.64533580  1  -0.411092  0  -0.123196  -0.305453  0  1.889922  0
O  O230  1  0.74830768  0.78946440  0.37619971  1  -0.433549  0  -0.141959  -0.336038  0  1.840195  0
O  O231  1  0.76165306  0.77241374  0.44218246  1  -0.408684  0  -0.118374  -0.301998  0  1.871331  0
O  O232  1  0.79275648  0.41256808  0.09879664  1  -0.425271  0  -0.129804  -0.318697  0  1.892423  0
O  O233  1  0.72113654  0.48991885  0.05095009  1  -0.455927  0  -0.133772  -0.326971  0  1.864867  0
O  O234  1  0.16603985  0.06390048  0.22632287  1  -0.458543  0  -0.146448  -0.34301  0  1.863717  0
O  O235  1  0.05408880  0.05834848  0.24073707  1  -0.427806  0  -0.132405  -0.319623  0  1.891678  0
O  O236  1  0.52012831  0.43582105  0.87281719  1  -0.436647  0  -0.140496  -0.335301  0  1.863496  0
O  O237  1  0.43710352  0.55654195  0.86418656  1  -0.455676  0  -0.131658  -0.319921  0  1.889846  0
O  O238  1  0.91795753  0.69157439  0.85433032  1  -0.452215  0  -0.140146  -0.334285  0  1.863787  0
O  O239  1  0.04038381  0.66597269  0.84921279  1  -0.425919  0  -0.130204  -0.31653  0  1.895726  0
