# generated using pymatgen
data_MnMo3H14C16(N3O5)2
_symmetry_space_group_name_H-M   'P 1'
_cell_length_a   7.93431931
_cell_length_b   11.62813187
_cell_length_c   13.11497114
_cell_angle_alpha   63.06684741
_cell_angle_beta   84.97302453
_cell_angle_gamma   79.47828952
_symmetry_Int_Tables_number   1
_chemical_formula_structural   MnMo3H14C16(N3O5)2
_chemical_formula_sum   'Mn2 Mo6 H28 C32 N12 O20'
_cell_volume   1060.60682736
_cell_formula_units_Z   2
loop_
 _symmetry_equiv_pos_site_id
 _symmetry_equiv_pos_as_xyz
  1  'x, y, z'
loop_
 _atom_site_type_symbol
 _atom_site_label
 _atom_site_symmetry_multiplicity
 _atom_site_fract_x
 _atom_site_fract_y
 _atom_site_fract_z
 _atom_site_occupancy
 _atom_site_hse06_10hf_ddec_charge
 _atom_site_hse06_10hf_ddec_spin_density
 _atom_site_hse06_10hf_ddec_sum_bond_order
 _atom_site_hse06_10hf_magmom
 _atom_site_hse06_ddec_charge
 _atom_site_hse06_ddec_spin_density
 _atom_site_hse06_ddec_sum_bond_order
 _atom_site_hse06_magmom
 _atom_site_pbe_cm5_charge
 _atom_site_pbe_ddec_charge
 _atom_site_pbe_ddec_spin_density
 _atom_site_pbe_ddec_sum_bond_order
 _atom_site_pbe_magmom
Mn  Mn0  1  0.90458668  0.69063976  0.30122281  1  0.783683  1.381763  3.405592  1.331  0.921057  1.628821  3.296991  1.566  0.71407  0.736344  1.269317  3.45193  1.221
Mn  Mn1  1  0.39468546  0.99254739  0.70341841  1  0.909365  4.610209  2.595395  4.433  0.959537  4.692291  2.526333  4.527  0.642242  0.872722  4.525824  2.645815  4.335
Mo  Mo2  1  0.18115097  0.93149099  0.22950522  1  2.184545  -0.31185  4.425482  -0.279  2.269627  -0.5826  4.366128  -0.535  1.467926  2.110892  -0.194079  4.461933  -0.168
Mo  Mo3  1  0.67994097  0.16726073  0.77478569  1  2.25534  0.064543  4.527664  0.068  2.360294  0.048556  4.493292  0.053  1.521531  2.179062  0.082037  4.558321  0.084
Mo  Mo4  1  0.41650589  0.18622975  0.98774435  1  2.242215  -0.006929  4.528598  -0.007  2.342996  -0.012204  4.493751  -0.012  1.512152  2.166979  -0.005041  4.562367  -0.005
Mo  Mo5  1  0.91684239  0.16988007  0.02323107  1  2.231756  -0.020164  4.550813  -0.017  2.332919  -0.029698  4.519399  -0.027  1.506295  2.155164  -0.013317  4.585782  -0.011
Mo  Mo6  1  0.54306995  0.86990640  0.10040860  1  2.1876  -0.01971  4.578902  -0.018  2.300673  -0.02295  4.537067  -0.023  1.515977  2.109977  -0.012419  4.611705  -0.011
Mo  Mo7  1  0.03258572  0.97154149  0.91043453  1  2.202462  0.055083  4.604668  0.057  2.305477  0.042915  4.565256  0.046  1.521052  2.126447  0.066876  4.639466  0.068
H  H8  1  0.39898100  0.58382945  0.05997586  1  0.124914  -7.3e-05  1.016494  0.0  0.127695  -5.4e-05  1.014331  0.0  0.126135  0.123669  -7.1e-05  1.016921  0.0
H  H9  1  0.90500705  0.62285248  0.94814243  1  0.120394  0.000477  1.01966  0.0  0.121977  0.000384  1.018771  0.0  0.125165  0.119091  0.000572  1.020363  0.0
H  H10  1  0.15949686  0.43127720  0.07492540  1  0.15835  -0.000162  1.0143  0.0  0.162831  -0.000157  1.011707  0.0  0.11415  0.156435  -0.00016  1.014767  0.0
H  H11  1  0.66073827  0.49291157  0.92815101  1  0.156319  0.000194  1.017227  0.0  0.159816  0.000156  1.016602  0.0  0.113107  0.154246  0.000231  1.017663  0.0
H  H12  1  0.85507137  0.38189544  0.11778628  1  0.13385  -0.000103  1.027595  0.0  0.139059  -0.000134  1.024558  0.0  0.112043  0.13149  -0.0001  1.028579  0.0
H  H13  1  0.36788507  0.49057617  0.88349696  1  0.128516  0.000146  1.034525  0.0  0.131987  0.000113  1.033552  0.0  0.10939  0.126377  0.000175  1.035286  0.0
H  H14  1  0.57313759  0.31357001  0.19777223  1  0.119263  -5e-05  1.006122  0.0  0.122935  -3.5e-05  1.002814  0.0  0.111521  0.117557  -6.4e-05  1.007508  0.0
H  H15  1  0.08536850  0.49946505  0.80915827  1  0.118524  5e-06  1.007673  0.0  0.120998  1.2e-05  1.006356  0.0  0.111241  0.116941  -0.0  1.008689  0.0
H  H16  1  0.42905840  0.37958299  0.34627408  1  0.10962  -0.000161  1.028997  0.0  0.112486  -0.000114  1.028723  0.0  0.105078  0.108118  -0.0002  1.02873  0.0
H  H17  1  0.93420424  0.71659642  0.66419066  1  0.109973  0.000276  1.020977  0.0  0.112157  0.000227  1.021804  0.0  0.103992  0.108252  0.000335  1.020729  0.0
H  H18  1  0.56294972  0.52804241  0.39576093  1  0.086479  -0.000291  1.022489  0.0  0.08764  -0.00026  1.0216  0.0  0.118162  0.08602  -0.000351  1.02277  0.0
H  H19  1  0.06545477  0.91696793  0.61301229  1  0.08068  0.000385  1.023063  0.0  0.08349  0.000246  1.020579  0.0  0.11461  0.079111  0.00052  1.02423  0.001
H  H20  1  0.27413996  0.54488924  0.36916502  1  0.084043  -0.000564  1.048889  0.0  0.088084  -0.000588  1.043576  0.0  0.119882  0.081588  -0.000573  1.052348  0.0
H  H21  1  0.77061859  0.92727762  0.61891905  1  0.077316  0.000744  1.036036  0.001  0.079714  0.000544  1.034037  0.0  0.114893  0.075488  0.000932  1.037804  0.001
H  H22  1  0.42272532  0.37378663  0.54951070  1  0.115541  -0.000171  1.024973  0.0  0.119785  -0.000248  1.022889  0.0  0.108517  0.113274  -0.000151  1.025911  0.0
H  H23  1  0.91658392  0.92684152  0.44017108  1  0.116276  0.000149  1.020362  0.0  0.120484  -7e-06  1.018974  0.0  0.108559  0.113968  0.000285  1.021065  0.0
H  H24  1  0.25228527  0.29494539  0.73265409  1  0.129072  -0.000398  1.020707  0.0  0.133995  -0.000305  1.014918  0.0  0.111676  0.126256  -0.000458  1.024042  0.0
H  H25  1  0.74116218  0.02581003  0.26070415  1  0.128134  -8e-05  1.028881  0.0  0.13285  -0.000114  1.025069  0.0  0.111426  0.125543  -6.7e-05  1.031137  0.0
H  H26  1  0.94638496  0.39665272  0.72943143  1  0.139563  -9.9e-05  0.985653  0.0  0.144563  -9.8e-05  0.98261  0.0  0.117296  0.137081  -0.00011  0.986977  0.0
H  H27  1  0.43706411  0.12349143  0.26463627  1  0.135373  0.000342  1.00301  0.0  0.139575  0.000292  1.000409  0.0  0.113141  0.132985  0.000404  1.004357  0.0
H  H28  1  0.62000190  0.51493841  0.69673221  1  0.159873  -0.000127  0.999513  0.0  0.164397  -0.000108  0.997368  0.0  0.117863  0.157589  -0.000147  1.000033  0.0
H  H29  1  0.12472089  0.20368268  0.29123049  1  0.160669  0.000267  0.999638  0.0  0.165064  0.000268  0.997764  0.0  0.116345  0.158217  0.000295  1.000371  0.0
H  H30  1  0.37012870  0.70918488  0.55481478  1  0.125762  -4.7e-05  1.011102  0.0  0.129332  -9.8e-05  1.007942  0.0  0.128235  0.124115  -6e-06  1.012107  0.0
H  H31  1  0.85665973  0.25963188  0.41987251  1  0.114188  0.000538  1.031491  0.0  0.114961  0.000412  1.032562  0.0  0.123032  0.113321  0.00066  1.030972  0.0
H  H32  1  0.27766127  0.70897677  0.17497350  1  0.28184  -0.000514  1.030109  0.0  0.292068  -0.00062  1.022514  0.0  0.312911  0.275198  -0.000433  1.035544  0.0
H  H33  1  0.78816091  0.86650591  0.83712600  1  0.278743  2.1e-05  1.00324  0.0  0.287287  -1.8e-05  0.996286  0.0  0.317499  0.272959  6.2e-05  1.007956  0.0
H  H34  1  0.50885650  0.81146895  0.36132153  1  0.273462  -1.5e-05  0.961172  0.0  0.28331  4e-05  0.952892  0.0  0.336912  0.268076  -5.1e-05  0.965677  0.0
H  H35  1  0.97822076  0.18730854  0.61407839  1  0.273539  -0.000108  0.961224  0.0  0.279737  -0.000126  0.957186  0.0  0.331124  0.269202  -7.3e-05  0.964296  0.0
C  C36  1  0.27511803  0.57445384  0.10220697  1  0.03677  0.003935  3.914423  0.003  0.047038  0.000116  3.923212  0.0  0.032877  0.032886  0.007051  3.903051  0.005
C  C37  1  0.78329172  0.65970673  0.90417312  1  0.041017  0.008384  3.916276  0.007  0.049716  0.00756  3.931449  0.006  0.032399  0.035763  0.009476  3.905705  0.007
C  C38  1  0.15117167  0.50075157  0.10978887  1  -0.249112  -0.000564  3.96179  -0.001  -0.255498  -0.000156  3.975695  0.0  -0.104934  -0.243006  -6.6e-05  3.947588  0.0
C  C39  1  0.65695375  0.59748115  0.89345854  1  -0.254389  0.000809  3.958916  0.0  -0.265157  -0.000149  3.980514  -0.001  -0.106767  -0.247499  0.001678  3.944274  0.001
C  C40  1  0.01783810  0.53386553  0.17458507  1  0.10509  0.000243  4.062053  0.001  0.112127  -0.0019  4.081794  -0.001  0.098804  0.10125  0.002099  4.048517  0.002
C  C41  1  0.52869069  0.69998429  0.82692342  1  0.102796  0.007278  4.083978  0.007  0.107778  0.006698  4.10521  0.007  0.096069  0.099314  0.007999  4.069738  0.008
C  C42  1  0.85572317  0.49006659  0.21513898  1  0.192373  -0.004525  4.041  -0.003  0.204496  -0.001701  4.056112  -0.001  0.129072  0.184347  -0.005516  4.030927  -0.004
C  C43  1  0.36454996  0.69869414  0.78657085  1  0.196973  0.002446  4.032213  0.002  0.203984  0.001668  4.052162  0.001  0.12859  0.191758  0.003128  4.019192  0.002
C  C44  1  0.78739669  0.41041813  0.18082827  1  -0.149537  0.001016  3.904412  0.001  -0.15489  -0.000426  3.916259  0.0  -0.073671  -0.14456  0.00143  3.892728  0.001
C  C45  1  0.29849171  0.58274947  0.82156277  1  -0.154834  0.000473  3.910421  0.0  -0.163075  0.000258  3.932711  0.0  -0.077575  -0.149743  0.000785  3.895687  0.001
C  C46  1  0.63141942  0.37160814  0.22646155  1  -0.016516  -0.002814  3.962085  -0.002  -0.007296  -0.000165  3.971615  0.0  -0.06436  -0.020851  -0.003841  3.951694  -0.003
C  C47  1  0.14164198  0.58812571  0.77892558  1  -0.017505  0.00211  3.969269  0.002  -0.01551  0.001704  3.990715  0.001  -0.063764  -0.018823  0.00254  3.954869  0.002
C  C48  1  0.55010679  0.41034881  0.30754019  1  -0.153835  0.000281  4.001039  0.0  -0.159645  -0.00049  4.017054  0.0  -0.090751  -0.149603  0.000382  3.987915  0.0
C  C49  1  0.05673008  0.70878539  0.70016035  1  -0.153155  0.000807  4.005387  0.001  -0.160342  0.000594  4.02794  0.001  -0.090614  -0.148576  0.001136  3.99026  0.001
C  C50  1  0.62379850  0.49207866  0.33572749  1  0.095258  -0.001673  3.968899  -0.001  0.106605  -2.9e-05  3.984265  0.001  0.048111  0.08891  -0.002113  3.957785  -0.001
C  C51  1  0.12916683  0.82016551  0.67142751  1  0.10169  0.002945  3.979589  0.003  0.110406  0.002193  3.993573  0.002  0.047346  0.096434  0.003635  3.968829  0.003
C  C52  1  0.20671774  0.50842915  0.45061831  1  0.08814  -0.005251  3.939836  -0.003  0.104133  -0.002379  3.948466  -0.001  0.043063  0.078128  -0.005584  3.934647  -0.003
C  C53  1  0.70232079  0.96928632  0.53822100  1  0.092689  0.006034  3.988625  0.005  0.097857  0.005138  4.009109  0.004  0.04506  0.088479  0.007017  3.975776  0.006
C  C54  1  0.28792875  0.41425755  0.55093685  1  -0.138619  0.001535  3.993682  0.002  -0.144597  0.001096  4.004233  0.001  -0.085215  -0.134903  0.000605  3.984451  0.001
C  C55  1  0.78215940  0.96929239  0.43952199  1  -0.136679  -0.000841  3.98607  -0.001  -0.143259  -0.001486  4.006812  -0.001  -0.085162  -0.132594  -0.000291  3.972013  0.0
C  C56  1  0.19399808  0.37075692  0.65295433  1  -0.015857  -0.00819  3.923434  -0.006  -0.000459  -0.001961  3.924826  -0.001  -0.066439  -0.023703  -0.010791  3.918599  -0.007
C  C57  1  0.68515816  0.02453010  0.33992146  1  -0.012225  0.004951  3.921556  0.004  -0.008108  0.004385  3.936267  0.004  -0.064317  -0.01483  0.005773  3.910831  0.005
C  C58  1  0.02315059  0.42686289  0.65137400  1  -0.137668  0.002016  3.919123  0.002  -0.142464  0.001129  3.926657  0.001  -0.073233  -0.133823  0.001828  3.911169  0.002
C  C59  1  0.51411671  0.07927644  0.34185137  1  -0.149682  -0.000493  3.910627  -0.001  -0.155386  -0.000938  3.928167  -0.001  -0.076475  -0.145588  -8.5e-05  3.898299  0.0
C  C60  1  0.94916067  0.52206401  0.54811616  1  0.188119  -0.00794  3.979949  -0.006  0.202871  -0.002463  3.990928  -0.002  0.121505  0.178595  -0.010372  3.972541  -0.007
C  C61  1  0.44289842  0.07559342  0.44452529  1  0.198862  0.005089  4.001684  0.004  0.205454  0.004336  4.021329  0.004  0.126767  0.193884  0.00596  3.988642  0.005
C  C62  1  0.77537153  0.59156911  0.53519112  1  0.115325  0.004231  4.029504  0.004  0.125388  0.006332  4.044101  0.006  0.103246  0.109611  0.003601  4.020164  0.004
C  C63  1  0.26498179  0.12953628  0.45668132  1  0.113512  0.006512  4.040165  0.006  0.120583  0.005893  4.058426  0.006  0.10065  0.109342  0.007235  4.027125  0.007
C  C64  1  0.63094377  0.58322530  0.60745497  1  -0.237955  -0.001559  3.958758  -0.001  -0.244145  -0.001242  3.970201  -0.001  -0.100633  -0.233064  -0.001668  3.947625  -0.001
C  C65  1  0.12668109  0.18783031  0.37922838  1  -0.237743  0.000249  3.953571  0.0  -0.245926  -0.000468  3.972502  -0.001  -0.102389  -0.231896  0.000941  3.939936  0.0
C  C66  1  0.50272267  0.67865441  0.53816577  1  0.019395  0.00706  3.914705  0.006  0.034031  0.008445  3.918032  0.006  0.030975  0.012796  0.007389  3.907165  0.006
C  C67  1  0.98940017  0.21623933  0.44183080  1  0.010809  0.007603  3.939203  0.006  0.017066  0.006841  3.95838  0.005  0.026855  0.006263  0.008574  3.927081  0.006
N  N68  1  0.21688442  0.64450995  0.16043140  1  -0.077898  -0.003507  3.667649  -0.003  -0.085546  -0.002037  3.684441  -0.001  -0.267904  -0.07133  -0.003651  3.654426  -0.003
N  N69  1  0.72989434  0.78955139  0.84615444  1  -0.062883  0.002917  3.71457  0.004  -0.074918  0.001851  3.732892  0.003  -0.267696  -0.054793  0.00386  3.701505  0.005
N  N70  1  0.05998520  0.62244907  0.20496758  1  -0.171219  -0.006766  3.49499  -0.011  -0.199548  -0.007149  3.517319  -0.011  -0.251145  -0.155489  -0.005472  3.478422  -0.011
N  N71  1  0.57573652  0.81678672  0.79867875  1  -0.228442  0.031765  3.416798  0.012  -0.242359  0.027856  3.429565  0.009  -0.240089  -0.217327  0.035443  3.407261  0.016
N  N72  1  0.77277455  0.53229372  0.29001454  1  -0.271812  -0.011082  3.464414  -0.013  -0.300795  -0.009772  3.48263  -0.014  -0.288945  -0.255077  -0.012941  3.451716  -0.013
N  N73  1  0.27894051  0.81644877  0.71392546  1  -0.308634  0.033001  3.479926  0.021  -0.326024  0.029867  3.493748  0.018  -0.308724  -0.295407  0.035974  3.469509  0.024
N  N74  1  0.03928924  0.55970655  0.44718468  1  -0.240072  -0.012978  3.542806  -0.016  -0.268243  -0.012675  3.554584  -0.017  -0.318224  -0.224337  -0.015681  3.532904  -0.018
N  N75  1  0.53697299  0.01974469  0.54140843  1  -0.302808  0.033876  3.518772  0.018  -0.322678  0.030063  3.535972  0.015  -0.31891  -0.288683  0.037544  3.507682  0.022
N  N76  1  0.73588728  0.68746640  0.42784841  1  -0.179354  -0.006398  3.475843  -0.013  -0.205395  -0.007192  3.493822  -0.013  -0.247122  -0.166803  -0.006135  3.464277  -0.013
N  N77  1  0.21400569  0.12361308  0.56007532  1  -0.237301  0.0312  3.385393  0.014  -0.25263  0.027729  3.401493  0.011  -0.232254  -0.226227  0.034602  3.374389  0.017
N  N78  1  0.57025024  0.73774162  0.43186250  1  -0.067838  -0.003221  3.71378  -0.002  -0.07382  -0.003131  3.727236  -0.002  -0.266694  -0.062934  -0.003374  3.702731  -0.002
N  N79  1  0.04719163  0.17608021  0.54869037  1  -0.061791  0.002702  3.734447  0.004  -0.074828  0.00183  3.757152  0.003  -0.265182  -0.053537  0.003523  3.719652  0.005
O  O80  1  0.39513685  0.29916426  0.04073818  1  -0.687646  -9.6e-05  1.653115  0.0  -0.714417  0.000222  1.64242  0.0  -0.519968  -0.670556  -0.000137  1.662559  0.0
O  O81  1  0.90831712  0.33606004  0.97039118  1  -0.698855  -0.000593  1.663932  -0.001  -0.730523  -0.000866  1.655339  -0.001  -0.525003  -0.680031  -0.000238  1.672901  0.0
O  O82  1  0.22101808  0.21151460  0.92633492  1  -0.752238  0.000202  1.848259  0.001  -0.784452  0.000573  1.840782  0.001  -0.518015  -0.729553  0.0002  1.854681  0.001
O  O83  1  0.71407305  0.14048397  0.07888641  1  -0.771146  -0.008267  1.866252  -0.008  -0.805835  -0.012847  1.858362  -0.013  -0.527782  -0.748621  -0.005889  1.873875  -0.005
O  O84  1  0.38509566  0.02808614  0.12593610  1  -1.01435  -0.002395  2.143678  0.002  -1.057152  -0.004322  2.134126  0.004  -0.611497  -0.980526  -0.001297  2.148346  0.002
O  O85  1  0.88787391  0.15202019  0.88550769  1  -1.012879  0.002476  2.138471  0.002  -1.059426  0.001616  2.132782  0.001  -0.615873  -0.978595  0.003292  2.142735  0.002
O  O86  1  0.03929584  0.10254917  0.16329720  1  -0.906104  -0.01313  1.982608  -0.005  -0.957102  -0.019719  1.978535  -0.006  -0.59282  -0.873874  -0.008761  1.987971  -0.003
O  O87  1  0.55084169  0.26477275  0.84897654  1  -0.896821  0.003781  1.943691  0.004  -0.93997  0.002653  1.937947  0.003  -0.588303  -0.866062  0.005053  1.948752  0.005
O  O88  1  0.24265100  0.92237151  0.35529799  1  -0.688574  0.024577  1.697266  0.029  -0.729496  0.039919  1.686893  0.048  -0.51602  -0.668975  0.020383  1.705068  0.023
O  O89  1  0.75211285  0.28551957  0.65104217  1  -0.709861  0.00664  1.699726  0.007  -0.739322  0.005272  1.692249  0.006  -0.520806  -0.691744  0.008028  1.706831  0.008
O  O90  1  0.07573667  0.98297833  0.04228726  1  -0.979681  0.005011  2.051247  0.005  -1.016825  0.003819  2.037947  0.004  -0.593346  -0.948761  0.006392  2.057585  0.006
O  O91  1  0.57696133  0.01944751  0.96932162  1  -0.984044  0.002359  2.046191  0.003  -1.026204  0.002263  2.036486  0.003  -0.592322  -0.951801  0.00283  2.051252  0.004
O  O92  1  0.02639715  0.82011241  0.27935907  1  -0.736291  0.040296  2.180796  0.048  -0.810593  0.057221  2.164798  0.075  -0.537245  -0.701953  0.02595  2.189817  0.027
O  O93  1  0.51426326  0.12301046  0.72594473  1  -0.746272  0.021269  1.957116  -0.007  -0.78087  0.017837  1.938438  -0.01  -0.52814  -0.72279  0.026285  1.971591  -0.002
O  O94  1  0.54040266  0.76079643  0.04670767  1  -0.666224  -0.006662  1.714245  -0.006  -0.696514  -0.009305  1.708746  -0.01  -0.509793  -0.646997  -0.005454  1.71936  -0.005
O  O95  1  0.01498325  0.80966640  0.96280720  1  -0.684917  0.008535  1.728725  0.009  -0.713035  0.006453  1.722418  0.007  -0.515368  -0.667842  0.010764  1.735233  0.011
O  O96  1  0.35840685  0.80036123  0.20981109  1  -0.94027  -0.007459  2.087956  -0.002  -0.98963  -0.012362  2.083028  -0.002  -0.595904  -0.909761  -0.004318  2.093601  -0.001
O  O97  1  0.84893576  0.01726474  0.79621390  1  -0.931757  0.00419  2.016585  0.004  -0.970306  0.00294  2.00695  0.003  -0.593271  -0.904273  0.005473  2.024262  0.004
O  O98  1  0.72694698  0.81710025  0.18723956  1  -0.743816  0.005429  2.055423  0.001  -0.792758  0.005085  2.037196  0.001  -0.527942  -0.715483  0.005876  2.065482  0.0
O  O99  1  0.21842930  0.99832964  0.82584133  1  -0.758949  0.026641  1.982392  0.0  -0.793418  0.023135  1.96085  -0.003  -0.537934  -0.734314  0.031285  1.998464  0.005
