# generated using pymatgen
data_Sm2H16C28N4O17
_symmetry_space_group_name_H-M   'P 1'
_cell_length_a   10.45701781
_cell_length_b   12.07698695
_cell_length_c   12.68900000
_cell_angle_alpha   110.03764342
_cell_angle_beta   100.77002133
_cell_angle_gamma   90.62348047
_symmetry_Int_Tables_number   1
_chemical_formula_structural   Sm2H16C28N4O17
_chemical_formula_sum   'Sm4 H32 C56 N8 O34'
_cell_volume   1474.08397251
_cell_formula_units_Z   2
loop_
 _symmetry_equiv_pos_site_id
 _symmetry_equiv_pos_as_xyz
  1  'x, y, z'
loop_
 _atom_site_type_symbol
 _atom_site_label
 _atom_site_symmetry_multiplicity
 _atom_site_fract_x
 _atom_site_fract_y
 _atom_site_fract_z
 _atom_site_occupancy
 _atom_site_hle17_bader_spin_density
 _atom_site_hle17_ddec_charge
 _atom_site_hle17_ddec_spin_density
 _atom_site_hle17_ddec_sum_bond_order
 _atom_site_hle17_magmom
 _atom_site_hse06_10hf_bader_spin_density
 _atom_site_hse06_10hf_ddec_charge
 _atom_site_hse06_10hf_ddec_spin_density
 _atom_site_hse06_10hf_ddec_sum_bond_order
 _atom_site_hse06_10hf_magmom
 _atom_site_hse06_bader_spin_density
 _atom_site_hse06_ddec_charge
 _atom_site_hse06_ddec_spin_density
 _atom_site_hse06_ddec_sum_bond_order
 _atom_site_hse06_magmom
 _atom_site_pbe_bader_charge
 _atom_site_pbe_bader_spin_density
 _atom_site_pbe_cm5_charge
 _atom_site_pbe_ddec_charge
 _atom_site_pbe_ddec_spin_density
 _atom_site_pbe_ddec_sum_bond_order
 _atom_site_pbe_magmom
Sm  Sm0  1  0.99222184  0.32093102  0.88792005  1  0  2.311024  0  1.644959  0  0  2.211116  0  2.004859  0  0  2.257378  0  1.960891  0  2.237134  0  1.505479  2.11629  0  2.151144  0
Sm  Sm1  1  0.00777727  0.67906855  0.11207992  1  0  2.311023  0  1.644923  0  0  2.211112  0  2.004818  0  0  2.257372  0  1.96085  0  2.237135  0  1.5055  2.116305  0  2.151073  0
Sm  Sm2  1  0.14451690  0.06041471  0.64201865  1  0  2.265873  0  1.609  0  0  2.09647  0  2.081698  0  0  2.215383  0  1.905591  0  2.207537  0  1.490524  2.060562  0  2.113718  0
Sm  Sm3  1  0.85548222  0.93958487  0.35797974  1  0  2.265839  0  1.608979  0  0  2.096416  0  2.081697  0  0  2.215344  0  1.905568  0  2.207526  0  1.490493  2.060512  0  2.113717  0
H  H4  1  0.66189202  0.22598213  0.88696801  1  0  0.06839  0  0.989855  0  0  0.0775  0  1.056764  0  0  0.079895  0  1.054693  0  0.093131  0  0.111324  0.075624  0  1.058481  0
H  H5  1  0.33810677  0.77401391  0.11303075  1  0  0.068362  0  0.989808  0  0  0.077487  0  1.056725  0  0  0.079881  0  1.054654  0  0.093518  0  0.111317  0.075612  0  1.05844  0
H  H6  1  0.87443107  0.86287535  0.87208655  1  0  0.118182  0  0.963003  0  0  0.125059  0  1.028209  0  0  0.128427  0  1.026484  0  0.109065  0  0.113  0.122455  0  1.029872  0
H  H7  1  0.12557185  0.13712334  0.12791292  1  0  0.118245  0  0.962985  0  0  0.125122  0  1.028179  0  0  0.128495  0  1.026456  0  0.109047  0  0.113019  0.122518  0  1.029843  0
H  H8  1  0.63260703  0.86414077  0.87218065  1  0  0.099986  0  0.959142  0  0  0.111236  0  1.016392  0  0  0.114225  0  1.013934  0  0.108647  0  0.108283  0.109017  0  1.018306  0
H  H9  1  0.36739574  0.13585616  0.12781980  1  0  0.099965  0  0.959176  0  0  0.111192  0  1.016455  0  0  0.114182  0  1.013993  0  0.108661  0  0.108254  0.108974  0  1.018367  0
H  H10  1  0.52474823  0.05004198  0.88153224  1  0  0.121164  0  0.9324  0  0  0.13079  0  0.989694  0  0  0.134352  0  0.987455  0  0.129868  0  0.115499  0.128445  0  0.991072  0
H  H11  1  0.47525243  0.94995317  0.11846652  1  0  0.121206  0  0.932429  0  0  0.130833  0  0.989711  0  0  0.134395  0  0.987471  0  0.129868  0  0.115516  0.128487  0  0.991089  0
H  H12  1  0.27948276  0.87427031  0.72058990  1  0  0.428913  0  0.837725  0  0  0.397616  0  0.919005  0  0  0.40758  0  0.904367  0  0.62191  0  0.309423  0.390478  0  0.929093  0
H  H13  1  0.72051643  0.12573015  0.27940957  1  0  0.428924  0  0.837719  0  0  0.397619  0  0.919005  0  0  0.407582  0  0.904367  0  0.621918  0  0.309426  0.390479  0  0.929102  0
H  H14  1  0.21850533  0.95793831  0.81985825  1  0  0.428559  0  0.877236  0  0  0.394714  0  0.94556  0  0  0.406983  0  0.927831  0  0.649225  0  0.294624  0.386012  0  0.958315  0
H  H15  1  0.78149573  0.04206126  0.18014122  1  0  0.428529  0  0.877274  0  0  0.394683  0  0.945602  0  0  0.406951  0  0.927874  0  0.649212  0  0.294605  0.385981  0  0.958356  0
H  H16  1  0.21489195  0.51756533  0.79906098  1  0  0.134853  0  0.940704  0  0  0.138465  0  1.009381  0  0  0.142642  0  1.005686  0  0.126144  0  0.12381  0.135109  0  1.012632  0
H  H17  1  0.78510993  0.48243248  0.20093962  1  0  0.13485  0  0.940582  0  0  0.13846  0  1.009261  0  0  0.142633  0  1.00557  0  0.12614  0  0.1238  0.135103  0  1.012511  0
H  H18  1  0.54206868  0.31372936  0.83864558  1  0  0.105543  0  0.976445  0  0  0.112846  0  1.044202  0  0  0.116821  0  1.040235  0  0.104008  0  0.110796  0.109855  0  1.047378  0
H  H19  1  0.45793311  0.68626756  0.16135236  1  0  0.105619  0  0.976427  0  0  0.112892  0  1.044219  0  0  0.116874  0  1.040242  0  0.104031  0  0.110785  0.109896  0  1.047393  0
H  H20  1  0.60418321  0.69119836  0.93435948  1  0  0.136766  0  0.925045  0  0  0.142867  0  0.986205  0  0  0.148023  0  0.980998  0  0.172138  0  0.125438  0.138971  0  0.990234  0
H  H21  1  0.39581590  0.30880121  0.06563969  1  0  0.136771  0  0.924996  0  0  0.142887  0  0.986153  0  0  0.14804  0  0.980941  0  0.172111  0  0.125467  0.138992  0  0.990179  0
H  H22  1  0.64213794  0.29618505  0.67034815  1  0  0.117851  0  0.949746  0  0  0.127051  0  1.011103  0  0  0.129924  0  1.010559  0  0.10929  0  0.114399  0.124954  0  1.011688  0
H  H23  1  0.35786028  0.70381542  0.32965117  1  0  0.117837  0  0.949708  0  0  0.127041  0  1.011049  0  0  0.12991  0  1.010516  0  0.109306  0  0.114394  0.124943  0  1.011635  0
H  H24  1  0.40759528  0.26383152  0.55981432  1  0  0.102001  0  0.94302  0  0  0.112216  0  1.003075  0  0  0.114609  0  1.001461  0  0.100705  0  0.112159  0.110387  0  1.004356  0
H  H25  1  0.59240399  0.73616983  0.44018624  1  0  0.101927  0  0.94301  0  0  0.112144  0  1.003075  0  0  0.11454  0  1.00146  0  0.100755  0  0.112136  0.110313  0  1.004367  0
H  H26  1  0.52135273  0.95693553  0.31084076  1  0  0.083036  0  0.967544  0  0  0.089271  0  1.036331  0  0  0.09156  0  1.034803  0  0.134204  0  0.120982  0.087609  0  1.037543  0
H  H27  1  0.47864459  0.04306582  0.68915872  1  0  0.083053  0  0.967539  0  0  0.089314  0  1.036314  0  0  0.0916  0  1.034786  0  0.134189  0  0.120985  0.08765  0  1.037533  0
H  H28  1  0.34808898  0.09099258  0.37650341  1  0  0.108534  0  0.943371  0  0  0.119402  0  1.000209  0  0  0.121612  0  1.001178  0  0.103809  0  0.111457  0.117774  0  0.999595  0
H  H29  1  0.65190842  0.90900965  0.62349557  1  0  0.108559  0  0.94343  0  0  0.119401  0  1.000298  0  0  0.121619  0  1.001244  0  0.103852  0  0.111466  0.117778  0  0.999681  0
H  H30  1  0.22137371  0.39090225  0.57476675  1  0  0.123388  0  0.94585  0  0  0.129184  0  1.014199  0  0  0.133039  0  1.010651  0  0.144639  0  0.116227  0.126459  0  1.016506  0
H  H31  1  0.77862743  0.60909821  0.42523381  1  0  0.123377  0  0.945772  0  0  0.129173  0  1.014114  0  0  0.133021  0  1.010587  0  0.14467  0  0.116222  0.12644  0  1.016445  0
H  H32  1  0.13402965  0.58510388  0.34352512  1  0  0.134976  0  0.964966  0  0  0.137996  0  1.035508  0  0  0.142563  0  1.031589  0  0.170386  0  0.120218  0.134921  0  1.03771  0
H  H33  1  0.86597172  0.41489924  0.65647792  1  0  0.134957  0  0.965066  0  0  0.137981  0  1.035593  0  0  0.142548  0  1.031674  0  0.170398  0  0.120208  0.134905  0  1.037796  0
H  H34  1  0.99145534  0.21875483  0.23496112  1  0  0.133116  0  0.95735  0  0  0.134607  0  1.029563  0  0  0.139526  0  1.02453  0  0.157291  0  0.118202  0.131005  0  1.033173  0
H  H35  1  0.00854393  0.78124652  0.76504023  1  0  0.133148  0  0.957337  0  0  0.13465  0  1.029536  0  0  0.139572  0  1.024498  0  0.157356  0  0.118232  0.131049  0  1.033148  0
C  C36  1  0.70253084  0.14176587  0.87953732  1  0  0.133841  0  3.705448  0  0  0.101958  0  3.970456  0  0  0.106299  0  3.988464  0  0.485959  0  0.04583  0.099152  0  3.955951  0
C  C37  1  0.29746746  0.85823548  0.12046073  1  0  0.13386  0  3.705501  0  0  0.10195  0  3.970526  0  0  0.106291  0  3.988534  0  0.485613  0  0.045829  0.099143  0  3.956026  0
C  C38  1  0.88655063  0.03949859  0.86892527  1  0  0.106699  0  3.7453  0  0  0.110367  0  3.993488  0  0  0.110766  0  4.010918  0  0.509988  0  0.118824  0.11015  0  3.979014  0
C  C39  1  0.11345221  0.96049922  0.13107312  1  0  0.10674  0  3.745265  0  0  0.110417  0  3.993458  0  0  0.110815  0  4.010889  0  0.509558  0  0.118855  0.110213  0  3.978966  0
C  C40  1  0.82072845  0.93919490  0.87052169  1  0  -0.092131  0  3.680555  0  0  -0.116229  0  3.930734  0  0  -0.119794  0  3.950582  0  0.003015  0  -0.068795  -0.114031  0  3.918008  0
C  C41  1  0.17927269  0.06080556  0.12947729  1  0  -0.092219  0  3.680597  0  0  -0.116317  0  3.93075  0  0  -0.11989  0  3.950604  0  0.003035  0  -0.068791  -0.114122  0  3.91802  0
C  C42  1  0.68825846  0.94102980  0.87269023  1  0  -0.002952  0  3.693708  0  0  -0.020145  0  3.940901  0  0  -0.01859  0  3.958836  0  -0.013042  0  -0.06413  -0.020963  0  3.928868  0
C  C43  1  0.31174162  0.05896978  0.12731067  1  0  -0.002873  0  3.69373  0  0  -0.020053  0  3.940913  0  0  -0.018497  0  3.958847  0  -0.013075  0  -0.064109  -0.020871  0  3.92888  0
C  C44  1  0.62791151  0.04459918  0.87822987  1  0  -0.09393  0  3.694696  0  0  -0.109809  0  3.950786  0  0  -0.113799  0  3.97001  0  -0.046815  0  -0.07395  -0.107341  0  3.937913  0
C  C45  1  0.37208954  0.95540040  0.12176881  1  0  -0.094038  0  3.694802  0  0  -0.1099  0  3.950884  0  0  -0.113889  0  3.970104  0  -0.046842  0  -0.073966  -0.107433  0  3.938016  0
C  C46  1  0.28336346  0.29131437  0.77246438  1  0  0.676055  0  3.893157  0  0  0.629321  0  4.184222  0  0  0.663528  0  4.180963  0  1.555548  0  0.213358  0.605225  0  4.188969  0
C  C47  1  0.71663842  0.70868343  0.22753386  1  0  0.676003  0  3.893206  0  0  0.629292  0  4.184228  0  0  0.6635  0  4.180969  0  1.555783  0  0.213357  0.605199  0  4.188972  0
C  C48  1  0.83921628  0.16102394  0.60628049  1  0  0.70801  0  3.842184  0  0  0.659093  0  4.134714  0  0  0.694969  0  4.125431  0  1.598705  0  0.250462  0.634359  0  4.142287  0
C  C49  1  0.16078081  0.83897475  0.39371730  1  0  0.707929  0  3.842346  0  0  0.658991  0  4.13487  0  0  0.694845  0  4.125623  0  1.598875  0  0.250458  0.634261  0  4.142434  0
C  C50  1  0.69922561  0.14447622  0.54576373  1  0  0.09723  0  3.770321  0  0  0.103203  0  4.008383  0  0  0.103178  0  4.030426  0  0.460266  0  0.116929  0.10292  0  3.996026  0
C  C51  1  0.30077261  0.85552424  0.45423481  1  0  0.097207  0  3.770405  0  0  0.103264  0  4.008336  0  0  0.103244  0  4.030383  0  0.460033  0  0.116955  0.102981  0  3.995975  0
C  C52  1  0.31927242  0.51205090  0.82368691  1  0  -0.062832  0  3.64117  0  0  -0.104739  0  3.899643  0  0  -0.099344  0  3.91425  0  0.057938  0  -0.05696  -0.108  0  3.8905  0
C  C53  1  0.68072377  0.48794868  0.17631339  1  0  -0.06283  0  3.641153  0  0  -0.104749  0  3.899624  0  0  -0.099351  0  3.91423  0  0.058147  0  -0.056943  -0.108009  0  3.890479  0
C  C54  1  0.36988006  0.40395349  0.81636490  1  0  -0.05379  0  3.715036  0  0  -0.026277  0  3.949085  0  0  -0.036547  0  3.971076  0  0.019358  0  -0.006065  -0.019732  0  3.934679  0
C  C55  1  0.63011929  0.59604874  0.18363596  1  0  -0.053722  0  3.715166  0  0  -0.02621  0  3.949184  0  0  -0.036481  0  3.971177  0  0.019231  0  -0.006053  -0.019665  0  3.934774  0
C  C56  1  0.50493459  0.39941531  0.84813869  1  0  -0.037512  0  3.656403  0  0  -0.079406  0  3.904953  0  0  -0.074863  0  3.922998  0  -0.048519  0  -0.060568  -0.082509  0  3.89364  0
C  C57  1  0.49506647  0.60058426  0.15186000  1  0  -0.037644  0  3.656444  0  0  -0.079493  0  3.904973  0  0  -0.074955  0  3.923022  0  -0.048522  0  -0.060605  -0.082588  0  3.893653  0
C  C58  1  0.59015718  0.50172415  0.89279455  1  0  -0.062806  0  3.720048  0  0  -0.033705  0  3.949457  0  0  -0.044806  0  3.974153  0  0.006162  0  -0.008935  -0.027347  0  3.934501  0
C  C59  1  0.40984267  0.49827277  0.10720388  1  0  -0.06281  0  3.719989  0  0  -0.033775  0  3.949494  0  0  -0.044881  0  3.974192  0  0.006167  0  -0.008901  -0.027417  0  3.934537  0
C  C60  1  0.40630864  0.61260177  0.86281983  1  0  0.065204  0  3.710508  0  0  0.06066  0  3.973591  0  0  0.055888  0  3.995173  0  0.179265  0  0.078735  0.063314  0  3.959172  0
C  C61  1  0.59368942  0.38739693  0.13717968  1  0  0.065162  0  3.710512  0  0  0.06067  0  3.973544  0  0  0.055897  0  3.995126  0  0.179169  0  0.078777  0.063326  0  3.959121  0
C  C62  1  0.73440007  0.49775104  0.93520298  1  0  0.707981  0  3.870679  0  0  0.662589  0  4.164018  0  0  0.697154  0  4.154954  0  1.597663  0  0.231742  0.638761  0  4.165684  0
C  C63  1  0.26560025  0.50225119  0.06479725  1  0  0.708141  0  3.870683  0  0  0.662756  0  4.164041  0  0  0.697324  0  4.154974  0  1.597691  0  0.231829  0.638928  0  4.165705  0
C  C64  1  0.53974806  0.61032030  0.90023254  1  0  -0.070047  0  3.656848  0  0  -0.108614  0  3.906837  0  0  -0.10404  0  3.922256  0  -0.00811  0  -0.058947  -0.110798  0  3.896612  0
C  C65  1  0.46025000  0.38967840  0.09976619  1  0  -0.069956  0  3.656714  0  0  -0.108554  0  3.906741  0  0  -0.10397  0  3.922149  0  -0.008173  0  -0.05899  -0.110736  0  3.896513  0
C  C66  1  0.60943239  0.22314975  0.58980586  1  0  -0.106566  0  3.676593  0  0  -0.131211  0  3.92527  0  0  -0.136133  0  3.945785  0  0.017495  0  -0.072831  -0.128105  0  3.911463  0
C  C67  1  0.39056493  0.77685160  0.41019283  1  0  -0.106504  0  3.676411  0  0  -0.131147  0  3.92502  0  0  -0.136069  0  3.945534  0  0.0175  0  -0.07277  -0.12804  0  3.911214  0
C  C68  1  0.48119889  0.20527647  0.52848913  1  0  0.014558  0  3.678649  0  0  -0.003866  0  3.930682  0  0  -0.00049  0  3.947105  0  0.002479  0  -0.055811  -0.005834  0  3.919237  0
C  C69  1  0.51879851  0.79472575  0.47151065  1  0  0.014645  0  3.678379  0  0  -0.003793  0  3.930426  0  0  -0.000418  0  3.946847  0  0.002248  0  -0.05583  -0.005759  0  3.918973  0
C  C70  1  0.54299569  0.03376751  0.38927616  1  0  0.145761  0  3.700993  0  0  0.11733  0  3.956021  0  0  0.122792  0  3.977487  0  0.514097  0  0.057475  0.113588  0  3.943509  0
C  C71  1  0.45700179  0.96623561  0.61072313  1  0  0.145807  0  3.700898  0  0  0.117301  0  3.956015  0  0  0.122768  0  3.977473  0  0.514071  0  0.057478  0.11356  0  3.943503  0
C  C72  1  0.44752680  0.10879776  0.42645670  1  0  -0.093801  0  3.683422  0  0  -0.111098  0  3.936181  0  0  -0.116081  0  3.956278  0  -0.088598  0  -0.070957  -0.107538  0  3.922216  0
C  C73  1  0.55247060  0.89120447  0.57354307  1  0  -0.09386  0  3.683373  0  0  -0.111115  0  3.936132  0  0  -0.1161  0  3.956241  0  -0.088341  0  -0.070949  -0.107559  0  3.922168  0
C  C74  1  0.08404419  0.18246356  0.43479927  1  0  0.715529  0  3.849966  0  0  0.670408  0  4.137477  0  0  0.706498  0  4.130212  0  1.625411  0  0.234194  0.646406  0  4.144388  0
C  C75  1  0.91595500  0.81753690  0.56520020  1  0  0.715525  0  3.849994  0  0  0.670496  0  4.137351  0  0  0.706585  0  4.130087  0  1.625413  0  0.234249  0.646483  0  4.144279  0
C  C76  1  0.10253397  0.29334647  0.40817677  1  0  -0.054153  0  3.706122  0  0  -0.030441  0  3.94449  0  0  -0.04014  0  3.964975  0  -0.066788  0  -0.008139  -0.024298  0  3.929803  0
C  C77  1  0.89746336  0.70665487  0.59182350  1  0  -0.054209  0  3.70627  0  0  -0.030526  0  3.944618  0  0  -0.040222  0  3.965101  0  -0.066849  0  -0.008177  -0.024378  0  3.929931  0
C  C78  1  0.17532930  0.39315454  0.49132486  1  0  -0.083978  0  3.675579  0  0  -0.121126  0  3.925424  0  0  -0.116596  0  3.941412  0  0.011983  0  -0.065879  -0.123403  0  3.91385  0
C  C79  1  0.82467281  0.60684592  0.50867743  1  0  -0.083967  0  3.675565  0  0  -0.121104  0  3.925403  0  0  -0.116579  0  3.941392  0  0.012145  0  -0.065851  -0.123381  0  3.913819  0
C  C80  1  0.06266028  0.39983447  0.27481828  1  0  -0.051449  0  3.698481  0  0  -0.023189  0  3.929467  0  0  -0.033993  0  3.952268  0  -0.070789  0  -0.006398  -0.017201  0  3.915968  0
C  C81  1  0.93733891  0.60016599  0.72518277  1  0  -0.051458  0  3.698349  0  0  -0.023178  0  3.929319  0  0  -0.03398  0  3.952118  0  -0.070737  0  -0.006383  -0.017191  0  3.915823  0
C  C82  1  0.12598228  0.50303290  0.36050540  1  0  -0.086841  0  3.650947  0  0  -0.123418  0  3.898249  0  0  -0.119657  0  3.915202  0  0.052197  0  -0.06418  -0.125553  0  3.887231  0
C  C83  1  0.87401983  0.49696756  0.63949610  1  0  -0.086795  0  3.65124  0  0  -0.123387  0  3.898535  0  0  -0.119624  0  3.915484  0  0.052123  0  -0.064145  -0.125522  0  3.887519  0
C  C84  1  0.04732260  0.29682527  0.30008458  1  0  -0.028242  0  3.616498  0  0  -0.072941  0  3.872876  0  0  -0.067163  0  3.887973  0  0.033163  0  -0.0568  -0.076162  0  3.862719  0
C  C85  1  0.95267780  0.70317784  0.69991674  1  0  -0.028273  0  3.616427  0  0  -0.07299  0  3.872815  0  0  -0.067208  0  3.887901  0  0.033123  0  -0.056844  -0.076213  0  3.862659  0
C  C86  1  0.18301759  0.49643433  0.46638657  1  0  0.060624  0  3.732689  0  0  0.05823  0  3.989664  0  0  0.053055  0  4.012303  0  0.17609  0  0.075538  0.061245  0  3.97442  0
C  C87  1  0.81698566  0.50356790  0.53361804  1  0  0.060697  0  3.732779  0  0  0.058308  0  3.989747  0  0  0.053138  0  4.012383  0  0.17594  0  0.075518  0.061322  0  3.974502  0
C  C88  1  0.02741213  0.04048192  0.86155731  1  0  0.66141  0  3.863773  0  0  0.607008  0  4.16369  0  0  0.640462  0  4.156415  0  1.542436  0  0.232299  0.58454  0  4.167055  0
C  C89  1  0.97258885  0.95951677  0.13844344  1  0  0.661501  0  3.863619  0  0  0.60707  0  4.163588  0  0  0.640524  0  4.156315  0  1.542463  0  0.232332  0.584597  0  4.166954  0
C  C90  1  0.01810342  0.39787488  0.15451910  1  0  0.708474  0  3.871135  0  0  0.661508  0  4.165765  0  0  0.696811  0  4.154763  0  1.58942  0  0.227931  0.63762  0  4.167246  0
C  C91  1  0.98189609  0.60212912  0.84548473  1  0  0.708621  0  3.870725  0  0  0.661646  0  4.165362  0  0  0.696948  0  4.154353  0  1.589073  0  0.227976  0.637758  0  4.166848  0
N  N92  1  0.82884898  0.13951093  0.87247484  1  0  -0.395102  0  3.220516  0  0  -0.351955  0  3.482152  0  0  -0.36339  0  3.49957  0  -1.241367  0  -0.35511  -0.33766  0  3.468112  0
N  N93  1  0.17115200  0.86048776  0.12752434  1  0  -0.395107  0  3.220522  0  0  -0.351954  0  3.482156  0  0  -0.363388  0  3.499571  0  -1.240979  0  -0.355136  -0.337667  0  3.468116  0
N  N94  1  0.66716194  0.05131271  0.44731325  1  0  -0.418933  0  3.254149  0  0  -0.366579  0  3.512995  0  0  -0.388259  0  3.534337  0  -1.23373  0  -0.37646  -0.357064  0  3.500142  0
N  N95  1  0.33283636  0.94868864  0.55268637  1  0  -0.419053  0  3.254159  0  0  -0.36673  0  3.513048  0  0  -0.388406  0  3.534382  0  -1.23381  0  -0.376553  -0.357214  0  3.500195  0
N  N96  1  0.35610829  0.72486241  0.86077573  1  0  0.496004  0  3.916183  0  0  0.516962  0  4.224506  0  0  0.538397  0  4.23247  0  0.359547  0  0.056186  0.502654  0  4.219165  0
N  N97  1  0.64388864  0.27513452  0.13922303  1  0  0.495958  0  3.916388  0  0  0.516871  0  4.224754  0  0  0.538303  0  4.232724  0  0.35956  0  0.056077  0.502566  0  4.219405  0
N  N98  1  0.25743399  0.60157732  0.55442266  1  0  0.506517  0  3.892845  0  0  0.53509  0  4.191396  0  0  0.556427  0  4.199286  0  0.362961  0  0.058424  0.520782  0  4.186081  0
N  N99  1  0.74256812  0.39842314  0.44557805  1  0  0.506529  0  3.892875  0  0  0.535068  0  4.191475  0  0  0.556405  0  4.199362  0  0.363002  0  0.058463  0.520758  0  4.186159  0
O  O100  1  0.15903410  0.29335266  0.75915329  1  0  -0.761367  0  2.061034  0  0  -0.715742  0  2.314628  0  0  -0.745734  0  2.304626  0  -1.178544  0  -0.387226  -0.691771  0  2.322265  0
O  O101  1  0.84096485  0.70664514  0.24084607  1  0  -0.761389  0  2.061103  0  0  -0.715777  0  2.314695  0  0  -0.745761  0  2.304673  0  -1.178563  0  -0.387244  -0.691808  0  2.322332  0
O  O102  1  0.33799484  0.19468975  0.74537622  1  0  -0.672301  0  1.967496  0  0  -0.623301  0  2.210452  0  0  -0.655563  0  2.200804  0  -1.17839  0  -0.373366  -0.606284  0  2.216488  0
O  O103  1  0.66200411  0.80530806  0.25461920  1  0  -0.672281  0  1.967418  0  0  -0.623286  0  2.210364  0  0  -0.655554  0  2.20072  0  -1.178538  0  -0.373373  -0.60626  0  2.216379  0
O  O104  1  0.91529567  0.08431619  0.56107724  1  0  -0.794184  0  2.169146  0  0  -0.733622  0  2.430174  0  0  -0.775015  0  2.417206  0  -1.196773  0  -0.406683  -0.716405  0  2.438591  0
O  O105  1  0.08470263  0.91568516  0.43892159  1  0  -0.794192  0  2.16916  0  0  -0.733606  0  2.430152  0  0  -0.774992  0  2.417192  0  -1.196784  0  -0.406704  -0.716392  0  2.438571  0
O  O106  1  0.87363292  0.24871635  0.69727476  1  0  -0.708283  0  2.107367  0  0  -0.671094  0  2.37533  0  0  -0.694736  0  2.362403  0  -1.206802  0  -0.381199  -0.646306  0  2.386269  0
O  O107  1  0.12636635  0.75128500  0.30272659  1  0  -0.708165  0  2.107435  0  0  -0.670979  0  2.375401  0  0  -0.694615  0  2.362491  0  -1.206834  0  -0.381151  -0.646194  0  2.386334  0
O  O108  1  0.23808716  0.72492784  0.82249522  1  0  -0.336691  0  1.791353  0  0  -0.314704  0  2.009381  0  0  -0.327448  0  2.007213  0  -0.464558  0  -0.106528  -0.306294  0  2.011081  0
O  O109  1  0.76191374  0.27506996  0.17750601  1  0  -0.3368  0  1.791356  0  0  -0.314765  0  2.009347  0  0  -0.3275  0  2.007169  0  -0.464564  0  -0.10656  -0.306358  0  2.011059  0
O  O110  1  0.79777616  0.59626450  0.99510077  1  0  -0.726245  0  2.070032  0  0  -0.682966  0  2.319988  0  0  -0.707885  0  2.309757  0  -1.196272  0  -0.3849  -0.656649  0  2.32672  0
O  O111  1  0.20222174  0.40373242  0.00489893  1  0  -0.726327  0  2.069864  0  0  -0.68303  0  2.31979  0  0  -0.70795  0  2.309556  0  -1.196305  0  -0.384935  -0.656709  0  2.326525  0
O  O112  1  0.78062959  0.39705338  0.90845352  1  0  -0.727818  0  2.038976  0  0  -0.692756  0  2.30303  0  0  -0.716585  0  2.291269  0  -1.197698  0  -0.379906  -0.667127  0  2.310908  0
O  O113  1  0.21937025  0.60294355  0.09154490  1  0  -0.727904  0  2.039162  0  0  -0.692828  0  2.303206  0  0  -0.716656  0  2.291445  0  -1.19771  0  -0.379965  -0.667203  0  2.311081  0
O  O114  1  0.43495712  0.81350366  0.89602015  1  0  -0.359009  0  1.791766  0  0  -0.337115  0  2.003877  0  0  -0.350564  0  2.000438  0  -0.458921  0  -0.114918  -0.32816  0  2.006346  0
O  O115  1  0.56504588  0.18649592  0.10397962  1  0  -0.358876  0  1.791984  0  0  -0.336953  0  2.004095  0  0  -0.350407  0  2.000668  0  -0.458933  0  -0.114788  -0.328013  0  2.006577  0
O  O116  1  0.07005150  0.12306048  0.82808603  1  0  -0.862629  0  2.103742  0  0  -0.806272  0  2.368325  0  0  -0.839928  0  2.353518  0  -1.206953  0  -0.459534  -0.780419  0  2.376907  0
O  O117  1  0.92995158  0.87693998  0.17191562  1  0  -0.862698  0  2.10374  0  0  -0.806326  0  2.368338  0  0  -0.839986  0  2.353529  0  -1.206965  0  -0.459559  -0.780485  0  2.376938  0
O  O118  1  0.16190463  0.17320769  0.52089306  1  0  -0.725385  0  2.028935  0  0  -0.676346  0  2.286176  0  0  -0.710974  0  2.274141  0  -1.19459  0  -0.389477  -0.65875  0  2.29271  0
O  O119  1  0.83809253  0.82679189  0.47910660  1  0  -0.725357  0  2.028915  0  0  -0.67634  0  2.286097  0  0  -0.710965  0  2.274054  0  -1.194621  0  -0.389487  -0.658745  0  2.292648  0
O  O120  1  0.99204788  0.10725202  0.36926218  1  0  -0.718469  0  2.078662  0  0  -0.66715  0  2.33306  0  0  -0.702465  0  2.323008  0  -1.20085  0  -0.383875  -0.648752  0  2.338013  0
O  O121  1  0.00795236  0.89274932  0.63073774  1  0  -0.718501  0  2.078681  0  0  -0.6672  0  2.332999  0  0  -0.702528  0  2.322975  0  -1.200842  0  -0.383903  -0.648797  0  2.337959  0
O  O122  1  0.35716307  0.58646038  0.61672180  1  0  -0.364606  0  1.739454  0  0  -0.353002  0  1.941387  0  0  -0.365289  0  1.939197  0  -0.470679  0  -0.134583  -0.344626  0  1.942835  0
O  O123  1  0.64284107  0.41354097  0.38327951  1  0  -0.364652  0  1.739421  0  0  -0.353054  0  1.941382  0  0  -0.365339  0  1.939191  0  -0.470625  0  -0.134645  -0.344678  0  1.94283  0
O  O124  1  0.21685289  0.69978305  0.56137589  1  0  -0.360016  0  1.783695  0  0  -0.337612  0  1.995917  0  0  -0.351464  0  1.994811  0  -0.479085  0  -0.109549  -0.328217  0  1.996922  0
O  O125  1  0.78315012  0.30021652  0.43862625  1  0  -0.360018  0  1.783799  0  0  -0.337566  0  1.995993  0  0  -0.351432  0  1.994908  0  -0.479098  0  -0.109512  -0.328158  0  1.996985  0
O  O126  1  0.09586438  0.96484639  0.88423812  1  0  -0.537445  0  2.008025  0  0  -0.479235  0  2.221558  0  0  -0.503211  0  2.2148  0  -1.143603  0  -0.262135  -0.463033  0  2.226306  0
O  O127  1  0.90413692  0.03515584  0.11576225  1  0  -0.537461  0  2.007917  0  0  -0.479236  0  2.221458  0  0  -0.503206  0  2.214692  0  -1.143578  0  -0.262138  -0.463031  0  2.226205  0
O  O128  1  0.27173005  0.95795777  0.76107628  1  0  -0.898967  0  1.891425  0  0  -0.854803  0  2.101229  0  0  -0.881104  0  2.0646  0  -1.254459  0  -0.635874  -0.841959  0  2.123253  0
O  O129  1  0.72827109  0.04204269  0.23892349  1  0  -0.89895  0  1.891449  0  0  -0.854791  0  2.101264  0  0  -0.881095  0  2.064635  0  -1.254459  0  -0.635865  -0.841948  0  2.123296  0
O  O130  1  0.00541963  0.29891927  0.07340978  1  0  -0.677823  0  1.990845  0  0  -0.642231  0  2.238994  0  0  -0.666506  0  2.229245  0  -1.177066  0  -0.368917  -0.618123  0  2.245797  0
O  O131  1  0.99458069  0.70108296  0.92659124  1  0  -0.677902  0  1.990778  0  0  -0.64231  0  2.238941  0  0  -0.666582  0  2.229187  0  -1.176815  0  -0.36895  -0.618199  0  2.245729  0
O  O132  1  0.99933385  0.49572778  0.13847811  1  0  -0.799692  0  2.115122  0  0  -0.759428  0  2.387099  0  0  -0.782597  0  2.370628  0  -1.217213  0  -0.410188  -0.730228  0  2.396535  0
O  O133  1  0.00066428  0.50427179  0.86152407  1  0  -0.799782  0  2.11493  0  0  -0.759493  0  2.386878  0  0  -0.78268  0  2.370444  0  -1.217154  0  -0.4102  -0.730291  0  2.396317  0
