# generated using pymatgen
data_Zn3H52C64(N2O9)2
_symmetry_space_group_name_H-M   'P 1'
_cell_length_a   10.53300910
_cell_length_b   14.61591243
_cell_length_c   16.15313196
_cell_angle_alpha   99.66158665
_cell_angle_beta   102.52539784
_cell_angle_gamma   101.04328097
_symmetry_Int_Tables_number   1
_chemical_formula_structural   Zn3H52C64(N2O9)2
_chemical_formula_sum   'Zn3 H52 C64 N4 O18'
_cell_volume   2325.04693879
_cell_formula_units_Z   1
loop_
 _symmetry_equiv_pos_site_id
 _symmetry_equiv_pos_as_xyz
  1  'x, y, z'
loop_
 _atom_site_type_symbol
 _atom_site_label
 _atom_site_symmetry_multiplicity
 _atom_site_fract_x
 _atom_site_fract_y
 _atom_site_fract_z
 _atom_site_occupancy
 _atom_site_hle17_bader_spin_density
 _atom_site_hle17_ddec_charge
 _atom_site_hle17_ddec_spin_density
 _atom_site_hle17_ddec_sum_bond_order
 _atom_site_hle17_magmom
 _atom_site_hse06_10hf_bader_spin_density
 _atom_site_hse06_10hf_ddec_charge
 _atom_site_hse06_10hf_ddec_spin_density
 _atom_site_hse06_10hf_ddec_sum_bond_order
 _atom_site_hse06_10hf_magmom
 _atom_site_hse06_bader_spin_density
 _atom_site_hse06_ddec_charge
 _atom_site_hse06_ddec_spin_density
 _atom_site_hse06_ddec_sum_bond_order
 _atom_site_hse06_magmom
 _atom_site_pbe_bader_spin_density
 _atom_site_pbe_cm5_charge
 _atom_site_pbe_ddec_charge
 _atom_site_pbe_ddec_spin_density
 _atom_site_pbe_ddec_sum_bond_order
 _atom_site_pbe_magmom
Zn  Zn0  1  0.99999865  0.49999938  0.50000014  1  0  1.20972  0  1.717412  0  0  1.052205  0  2.172176  0  0  1.102394  0  2.106762  0  0  0.687208  1.016596  0  2.217494  0
Zn  Zn1  1  0.78344887  0.62604493  0.53044239  1  0  1.052864  0  1.860509  0  0  0.875009  0  2.334065  0  0  0.92371  0  2.273689  0  0  0.685985  0.841118  0  2.375521  0
Zn  Zn2  1  0.21655025  0.37395543  0.46955837  1  0  1.052902  0  1.860424  0  0  0.875057  0  2.333956  0  0  0.923766  0  2.273582  0  0  0.686017  0.841168  0  2.375412  0
H  H3  1  0.91597173  0.33910625  0.68580411  1  0  0.104437  0  0.932412  0  0  0.115778  0  0.988213  0  0  0.11921  0  0.985413  0  0  0.105574  0.113029  0  0.990713  0
H  H4  1  0.08402812  0.66089626  0.31419523  1  0  0.104423  0  0.932384  0  0  0.115781  0  0.988174  0  0  0.119215  0  0.98537  0  0  0.105577  0.113032  0  0.990675  0
H  H5  1  0.56926998  0.45708295  0.66256388  1  0  0.112313  0  0.984507  0  0  0.11856  0  1.052043  0  0  0.122199  0  1.04866  0  0  0.102374  0.11565  0  1.054952  0
H  H6  1  0.43072768  0.54291598  0.33743770  1  0  0.112319  0  0.984496  0  0  0.11854  0  1.052047  0  0  0.122197  0  1.048643  0  0  0.102373  0.115634  0  1.054957  0
H  H7  1  0.92560294  0.49727926  0.29946684  1  0  0.107118  0  0.964624  0  0  0.114678  0  1.029288  0  0  0.117243  0  1.027804  0  0  0.1053  0.11272  0  1.030603  0
H  H8  1  0.07439933  0.50272466  0.70053429  1  0  0.107096  0  0.964617  0  0  0.114652  0  1.029294  0  0  0.117218  0  1.027807  0  0  0.105292  0.112693  0  1.03061  0
H  H9  1  0.90563389  0.39969219  0.15209850  1  0  0.114866  0  0.92805  0  0  0.126822  0  0.981162  0  0  0.130803  0  0.979643  0  0  0.108246  0.123977  0  0.98243  0
H  H10  1  0.09436936  0.60031173  0.84790278  1  0  0.114846  0  0.928081  0  0  0.1268  0  0.981202  0  0  0.130781  0  0.979684  0  0  0.108244  0.123956  0  0.982469  0
H  H11  1  0.47528898  0.33150838  0.10567896  1  0  0.100927  0  0.962721  0  0  0.11244  0  1.01974  0  0  0.115821  0  1.018715  0  0  0.101171  0.110018  0  1.020633  0
H  H12  1  0.52471281  0.66849125  0.89432207  1  0  0.100979  0  0.962811  0  0  0.112515  0  1.01979  0  0  0.115898  0  1.018764  0  0  0.101198  0.110094  0  1.020682  0
H  H13  1  0.49779924  0.42503851  0.25314625  1  0  0.103174  0  0.943173  0  0  0.113953  0  1.000531  0  0  0.117244  0  0.997963  0  0  0.107308  0.111363  0  1.0028  0
H  H14  1  0.50220304  0.57495969  0.74685463  1  0  0.10317  0  0.943121  0  0  0.113948  0  1.000488  0  0  0.117237  0  0.997922  0  0  0.107312  0.111357  0  1.002757  0
H  H15  1  0.61047536  0.91604553  0.39954249  1  0  0.10906  0  0.93505  0  0  0.121011  0  0.990425  0  0  0.123867  0  0.989488  0  0  0.112407  0.118953  0  0.991158  0
H  H16  1  0.38952474  0.08395483  0.60045655  1  0  0.109066  0  0.935036  0  0  0.121012  0  0.990409  0  0  0.123868  0  0.989471  0  0  0.11242  0.118954  0  0.991142  0
H  H17  1  0.41753649  0.92047104  0.60966100  1  0  0.110284  0  0.968475  0  0  0.117691  0  1.034246  0  0  0.119647  0  1.034975  0  0  0.107619  0.116277  0  1.0338  0
H  H18  1  0.58246457  0.07952932  0.39033756  1  0  0.110258  0  0.968491  0  0  0.117664  0  1.034269  0  0  0.11962  0  1.034996  0  0  0.107621  0.11625  0  1.033823  0
H  H19  1  0.34648357  0.74446808  0.52736854  1  0  0.128595  0  0.93905  0  0  0.140634  0  0.994001  0  0  0.143119  0  0.993275  0  0  0.131654  0.138904  0  0.994531  0
H  H20  1  0.65351627  0.25553442  0.47263141  1  0  0.128495  0  0.938964  0  0  0.140506  0  0.993981  0  0  0.142988  0  0.993258  0  0  0.131586  0.138777  0  0.99451  0
H  H21  1  0.74381236  0.83595269  0.50679928  1  0  0.10113  0  0.921223  0  0  0.112493  0  0.978844  0  0  0.115276  0  0.97537  0  0  0.14317  0.110309  0  0.981581  0
H  H22  1  0.25618749  0.16404695  0.49320024  1  0  0.101152  0  0.921276  0  0  0.112514  0  0.978893  0  0  0.115296  0  0.97542  0  0  0.143183  0.110331  0  0.981629  0
H  H23  1  0.47983261  0.59973486  0.54591644  1  0  0.134149  0  0.961071  0  0  0.141796  0  1.018995  0  0  0.144849  0  1.017623  0  0  0.127026  0.139588  0  1.020039  0
H  H24  1  0.52016433  0.40026479  0.45408205  1  0  0.134161  0  0.961102  0  0  0.141808  0  1.019031  0  0  0.144859  0  1.01766  0  0  0.127055  0.1396  0  1.020076  0
H  H25  1  0.48199284  0.35392421  0.75574808  1  0  0.10984  0  0.937344  0  0  0.120536  0  0.994456  0  0  0.124177  0  0.993062  0  0  0.103555  0.117963  0  0.995546  0
H  H26  1  0.51800701  0.64607543  0.24425391  1  0  0.109833  0  0.93733  0  0  0.120531  0  0.994446  0  0  0.124171  0  0.993052  0  0  0.103548  0.117958  0  0.995536  0
H  H27  1  0.23205469  0.02361153  0.77691778  1  0  0.103106  0  0.964057  0  0  0.114242  0  1.021389  0  0  0.117537  0  1.020444  0  0  0.100735  0.111892  0  1.02221  0
H  H28  1  0.76794614  0.97638811  0.22307940  1  0  0.103138  0  0.964011  0  0  0.114245  0  1.021377  0  0  0.117537  0  1.020438  0  0  0.100719  0.111895  0  1.022199  0
H  H29  1  0.49753604  0.83201576  0.77814833  1  0  0.111249  0  0.935993  0  0  0.122516  0  0.992176  0  0  0.126466  0  0.990255  0  0  0.105087  0.119761  0  0.993543  0
H  H30  1  0.50246137  0.16798246  0.22185310  1  0  0.111241  0  0.93601  0  0  0.122499  0  0.992206  0  0  0.126448  0  0.990287  0  0  0.105123  0.119743  0  0.993572  0
H  H31  1  0.05067163  0.89601005  0.67218654  1  0  0.099149  0  0.939917  0  0  0.10893  0  0.997529  0  0  0.112746  0  0.994324  0  0  0.102299  0.106148  0  0.999825  0
H  H32  1  0.94932677  0.10399104  0.32781051  1  0  0.099172  0  0.939876  0  0  0.10894  0  0.997509  0  0  0.112734  0  0.994328  0  0  0.10232  0.106158  0  0.999804  0
H  H33  1  0.31197396  0.70431723  0.67466498  1  0  0.100737  0  0.968962  0  0  0.108533  0  1.033846  0  0  0.110547  0  1.033648  0  0  0.104608  0.107003  0  1.034184  0
H  H34  1  0.68802444  0.29568099  0.32533349  1  0  0.100736  0  0.968973  0  0  0.108489  0  1.033916  0  0  0.110502  0  1.033722  0  0  0.104581  0.10696  0  1.034252  0
H  H35  1  0.39532864  0.07100582  0.92788881  1  0  0.051504  0  0.927956  0  0  0.066377  0  0.990625  0  0  0.066378  0  0.990537  0  0  0.100343  0.066323  0  0.990772  0
H  H36  1  0.60466951  0.92899455  0.07211058  1  0  0.051509  0  0.92793  0  0  0.06637  0  0.990619  0  0  0.066375  0  0.990524  0  0  0.100349  0.066316  0  0.990765  0
H  H37  1  0.41453850  0.12415667  0.83771138  1  0  0.06291  0  0.937708  0  0  0.072992  0  1.002897  0  0  0.07445  0  1.000804  0  0  0.104124  0.071867  0  1.004512  0
H  H38  1  0.58546426  0.87584296  0.16228793  1  0  0.062827  0  0.937793  0  0  0.072952  0  1.002938  0  0  0.074413  0  1.000837  0  0  0.104094  0.071827  0  1.004551  0
H  H39  1  0.77304624  0.23707579  0.91463823  1  0  0.076489  0  0.904495  0  0  0.081056  0  0.974655  0  0  0.08245  0  0.972853  0  0  0.10607  0.080051  0  0.975954  0
H  H40  1  0.22695482  0.76292456  0.08536281  1  0  0.076499  0  0.904505  0  0  0.081062  0  0.974673  0  0  0.082461  0  0.972863  0  0  0.106084  0.080058  0  0.975971  0
H  H41  1  0.69531171  0.12819226  0.83433399  1  0  0.05895  0  0.91561  0  0  0.071879  0  0.974303  0  0  0.072734  0  0.973131  0  0  0.10124  0.071257  0  0.97514  0
H  H42  1  0.30469227  0.87180808  0.16566622  1  0  0.058919  0  0.915694  0  0  0.071881  0  0.974346  0  0  0.072738  0  0.973169  0  0  0.101258  0.071258  0  0.975184  0
H  H43  1  0.83302311  0.23841833  0.78197266  1  0  0.098687  0  0.966504  0  0  0.109678  0  1.024984  0  0  0.112897  0  1.024174  0  0  0.09875  0.107357  0  1.025715  0
H  H44  1  0.16697990  0.76158488  0.21802785  1  0  0.098724  0  0.966414  0  0  0.109666  0  1.024948  0  0  0.112878  0  1.024148  0  0  0.098765  0.107349  0  1.025673  0
H  H45  1  0.50108711  0.27027418  0.95836450  1  0  0.063376  0  0.910182  0  0  0.077054  0  0.971729  0  0  0.078103  0  0.970414  0  0  0.104793  0.076288  0  0.9727  0
H  H46  1  0.49891249  0.72972475  0.04163487  1  0  0.063387  0  0.910146  0  0  0.077079  0  0.971702  0  0  0.078133  0  0.97038  0  0  0.104798  0.0763  0  0.972686  0
H  H47  1  0.51446334  0.20396605  0.04270736  1  0  0.049809  0  0.932981  0  0  0.066317  0  0.998268  0  0  0.066455  0  0.997953  0  0  0.101544  0.066172  0  0.998537  0
H  H48  1  0.48553846  0.79603359  0.95729305  1  0  0.049819  0  0.932986  0  0  0.066346  0  0.998272  0  0  0.066483  0  0.997957  0  0  0.101554  0.066201  0  0.998539  0
H  H49  1  0.70235710  0.03767757  0.95577615  1  0  0.107101  0  0.94789  0  0  0.125982  0  1.009899  0  0  0.127731  0  1.009342  0  0  0.088894  0.12471  0  1.0103  0
H  H50  1  0.29764251  0.96232136  0.04422385  1  0  0.107101  0  0.9479  0  0  0.125981  0  1.009916  0  0  0.127732  0  1.009353  0  0  0.088873  0.124709  0  1.010318  0
H  H51  1  0.62228803  0.06997727  0.03908319  1  0  0.104354  0  0.971792  0  0  0.124973  0  1.036132  0  0  0.125675  0  1.037529  0  0  0.088722  0.124415  0  1.03519  0
H  H52  1  0.37771182  0.93002237  0.96091694  1  0  0.104356  0  0.971816  0  0  0.124977  0  1.036163  0  0  0.125683  0  1.037553  0  0  0.088718  0.124419  0  1.035221  0
H  H53  1  0.77312527  0.14623887  0.03626427  1  0  0.114593  0  0.940703  0  0  0.135859  0  0.997543  0  0  0.137235  0  0.997916  0  0  0.094093  0.134877  0  0.997265  0
H  H54  1  0.22687410  0.85375935  0.96373496  1  0  0.114622  0  0.94065  0  0  0.135891  0  0.997486  0  0  0.13727  0  0.997852  0  0  0.094111  0.134907  0  0.997211  0
C  C55  1  0.80085743  0.46878445  0.61487628  1  0  0.67003  0  3.890537  0  0  0.618672  0  4.182875  0  0  0.65442  0  4.175275  0  0  0.215654  0.594433  0  4.187202  0
C  C56  1  0.19913976  0.53121306  0.38512130  1  0  0.670077  0  3.890706  0  0  0.618684  0  4.183038  0  0  0.654435  0  4.175437  0  0  0.215612  0.594442  0  4.187365  0
C  C57  1  0.75012665  0.40622178  0.67037283  1  0  -0.103711  0  3.796581  0  0  -0.081732  0  4.033362  0  0  -0.093599  0  4.059039  0  0  -0.034564  -0.074138  0  4.015997  0
C  C58  1  0.24987077  0.59377644  0.32962674  1  0  -0.103835  0  3.796632  0  0  -0.081778  0  4.033299  0  0  -0.093645  0  4.058979  0  0  -0.03459  -0.074174  0  4.015924  0
C  C59  1  0.82197709  0.34295899  0.70255097  1  0  -0.043723  0  3.768679  0  0  -0.06748  0  4.015892  0  0  -0.063925  0  4.035383  0  0  -0.086747  -0.069444  0  4.002653  0
C  C60  1  0.17802349  0.65704279  0.29745022  1  0  -0.043673  0  3.768628  0  0  -0.067476  0  4.015814  0  0  -0.063922  0  4.035303  0  0  -0.086764  -0.069444  0  4.002574  0
C  C61  1  0.62721325  0.40991344  0.68968484  1  0  -0.045974  0  3.753848  0  0  -0.073347  0  4.005862  0  0  -0.070167  0  4.025968  0  0  -0.087394  -0.075065  0  3.992349  0
C  C62  1  0.37278465  0.59008621  0.31031564  1  0  -0.045945  0  3.753792  0  0  -0.073297  0  4.005782  0  0  -0.070133  0  4.025878  0  0  -0.087351  -0.075024  0  3.992271  0
C  C63  1  0.72131510  0.51445592  0.37585722  1  0  0.640064  0  3.892324  0  0  0.591002  0  4.180524  0  0  0.625679  0  4.17354  0  0  0.203138  0.567367  0  4.184642  0
C  C64  1  0.27868426  0.48554516  0.62414369  1  0  0.640229  0  3.892349  0  0  0.591182  0  4.180545  0  0  0.625863  0  4.173558  0  0  0.203222  0.567538  0  4.184676  0
C  C65  1  0.71285426  0.46549107  0.28606692  1  0  -0.101209  0  3.797759  0  0  -0.081124  0  4.038225  0  0  -0.092982  0  4.062387  0  0  -0.033977  -0.073505  0  4.021875  0
C  C66  1  0.28714680  0.53450928  0.71393288  1  0  -0.101351  0  3.797863  0  0  -0.081333  0  4.038407  0  0  -0.093182  0  4.06256  0  0  -0.034032  -0.073709  0  4.022061  0
C  C67  1  0.82781604  0.46060617  0.25635707  1  0  -0.024212  0  3.729366  0  0  -0.05081  0  3.982413  0  0  -0.04638  0  4.001592  0  0  -0.07971  -0.053448  0  3.969397  0
C  C68  1  0.17218406  0.53939133  0.74364216  1  0  -0.0241  0  3.729262  0  0  -0.050666  0  3.982307  0  0  -0.046235  0  4.001481  0  0  -0.07967  -0.053306  0  3.969292  0
C  C69  1  0.81699715  0.40655315  0.17480309  1  0  -0.190635  0  3.742911  0  0  -0.211341  0  3.997114  0  0  -0.219176  0  4.015815  0  0  -0.10365  -0.206236  0  3.984529  0
C  C70  1  0.18300440  0.59344863  0.82519761  1  0  -0.190694  0  3.742903  0  0  -0.21138  0  3.997142  0  0  -0.219218  0  4.015845  0  0  -0.103686  -0.206276  0  3.984561  0
C  C71  1  0.69038060  0.35683820  0.12123366  1  0  0.28526  0  3.81131  0  0  0.278324  0  4.070568  0  0  0.292091  0  4.085982  0  0  0.087356  0.268988  0  4.059907  0
C  C72  1  0.30961877  0.64316288  0.87876601  1  0  0.285391  0  3.81124  0  0  0.278355  0  4.070602  0  0  0.292123  0  4.086018  0  0  0.08735  0.26902  0  4.059944  0
C  C73  1  0.57438252  0.36610631  0.14790694  1  0  -0.226013  0  3.801054  0  0  -0.244503  0  4.053458  0  0  -0.253161  0  4.074435  0  0  -0.117412  -0.238763  0  4.039182  0
C  C74  1  0.42562023  0.63389618  0.85209528  1  0  -0.226158  0  3.801061  0  0  -0.244638  0  4.05348  0  0  -0.253301  0  4.074462  0  0  -0.117444  -0.238901  0  4.039209  0
C  C75  1  0.58672308  0.41956476  0.23033815  1  0  -0.039808  0  3.764296  0  0  -0.0626  0  4.011837  0  0  -0.058828  0  4.031237  0  0  -0.081152  -0.064727  0  3.998605  0
C  C76  1  0.41327750  0.58043417  0.76966198  1  0  -0.039738  0  3.764139  0  0  -0.062505  0  4.011698  0  0  -0.058737  0  4.031099  0  0  -0.081128  -0.064634  0  3.998467  0
C  C77  1  0.56419592  0.95370546  0.44444055  1  0  -0.130105  0  3.749917  0  0  -0.15126  0  3.99964  0  0  -0.154686  0  4.020771  0  0  -0.083445  -0.148938  0  3.985401  0
C  C78  1  0.43580539  0.04629561  0.55555815  1  0  -0.130093  0  3.749794  0  0  -0.151205  0  3.999545  0  0  -0.154629  0  4.020675  0  0  -0.083466  -0.148883  0  3.985305  0
C  C79  1  0.45171072  0.95492652  0.56093447  1  0  -0.124395  0  3.73017  0  0  -0.142269  0  3.976018  0  0  -0.144809  0  3.99671  0  0  -0.083711  -0.140544  0  3.962112  0
C  C80  1  0.54828962  0.04507456  0.43906410  1  0  -0.124306  0  3.730209  0  0  -0.142147  0  3.976092  0  0  -0.144684  0  3.996784  0  0  -0.083672  -0.140422  0  3.962186  0
C  C81  1  0.51643219  0.90895329  0.50546040  1  0  0.174397  0  3.788289  0  0  0.164895  0  4.037189  0  0  0.169326  0  4.060492  0  0  0.097496  0.16182  0  4.021509  0
C  C82  1  0.48356790  0.09104707  0.49453803  1  0  0.17443  0  3.788257  0  0  0.164822  0  4.037285  0  0  0.169253  0  4.060589  0  0  0.097489  0.161749  0  4.021602  0
C  C83  1  0.44843773  0.74179709  0.52719789  1  0  -0.046157  0  3.632722  0  0  -0.088621  0  3.892311  0  0  -0.087871  0  3.912038  0  0  0.010391  -0.0892  0  3.879107  0
C  C84  1  0.55156090  0.25820470  0.47280240  1  0  -0.045923  0  3.632659  0  0  -0.088365  0  3.892256  0  0  -0.087613  0  3.911985  0  0  0.01048  -0.088947  0  3.879052  0
C  C85  1  0.65426943  0.78985527  0.51303284  1  0  0.162902  0  3.655009  0  0  0.100279  0  3.9179  0  0  0.114298  0  3.930143  0  0  0.147201  0.091199  0  3.909386  0
C  C86  1  0.34572946  0.21014438  0.48696531  1  0  0.162996  0  3.65508  0  0  0.100359  0  3.917963  0  0  0.114379  0  3.930204  0  0  0.147247  0.091277  0  3.90945  0
C  C87  1  0.51491395  0.67044619  0.53489452  1  0  0.032257  0  3.668207  0  0  -0.000695  0  3.929509  0  0  0.00042  0  3.949761  0  0  0.015109  -0.001394  0  3.915902  0
C  C88  1  0.48508371  0.32955560  0.46510626  1  0  0.03218  0  3.668279  0  0  -0.000785  0  3.929572  0  0  0.000332  0  3.949821  0  0  0.015068  -0.001483  0  3.915965  0
C  C89  1  0.57763025  0.35195781  0.74063877  1  0  -0.19169  0  3.765489  0  0  -0.212467  0  4.021214  0  0  -0.219856  0  4.040486  0  0  -0.110038  -0.207626  0  4.008225  0
C  C90  1  0.42237105  0.64804040  0.25936321  1  0  -0.191673  0  3.765222  0  0  -0.212469  0  4.020959  0  0  -0.219856  0  4.040233  0  0  -0.110042  -0.207627  0  4.007971  0
C  C91  1  0.37717011  0.93565913  0.78387070  1  0  0.272739  0  3.827511  0  0  0.265153  0  4.090298  0  0  0.278559  0  4.105181  0  0  0.081114  0.256058  0  4.080143  0
C  C92  1  0.62282780  0.06434052  0.21612917  1  0  0.272678  0  3.827602  0  0  0.26507  0  4.090408  0  0  0.278477  0  4.105292  0  0  0.081076  0.255977  0  4.080253  0
C  C93  1  0.25139654  0.95449041  0.75414879  1  0  -0.22925  0  3.795758  0  0  -0.246062  0  4.04544  0  0  -0.254469  0  4.066516  0  0  -0.120257  -0.24059  0  4.031177  0
C  C94  1  0.74860137  0.04550924  0.24584860  1  0  -0.229319  0  3.79567  0  0  -0.246099  0  4.045359  0  0  -0.254504  0  4.066425  0  0  -0.12024  -0.240628  0  4.031098  0
C  C95  1  0.39953634  0.84571099  0.75406390  1  0  -0.196497  0  3.769153  0  0  -0.219159  0  4.030761  0  0  -0.226139  0  4.048679  0  0  -0.108414  -0.214635  0  4.018687  0
C  C96  1  0.60046205  0.15428722  0.24593643  1  0  -0.196544  0  3.76915  0  0  -0.219184  0  4.030763  0  0  -0.226166  0  4.048681  0  0  -0.108446  -0.214658  0  4.018687  0
C  C97  1  0.05848580  0.71353987  0.60734501  1  0  0.674501  0  3.882815  0  0  0.627322  0  4.168168  0  0  0.663609  0  4.159387  0  0  0.213927  0.602707  0  4.173331  0
C  C98  1  0.94151600  0.28645690  0.39265620  1  0  0.674382  0  3.882856  0  0  0.627196  0  4.168234  0  0  0.663469  0  4.159475  0  0  0.213905  0.602578  0  4.173393  0
C  C99  1  0.17001250  0.79243185  0.66612245  1  0  -0.101735  0  3.775056  0  0  -0.082705  0  4.01301  0  0  -0.094135  0  4.037265  0  0  -0.034024  -0.075384  0  3.996562  0
C  C100  1  0.82998735  0.20756780  0.33387645  1  0  -0.101722  0  3.77504  0  0  -0.082686  0  4.012993  0  0  -0.094108  0  4.037243  0  0  -0.034018  -0.075359  0  3.996541  0
C  C101  1  0.14929515  0.88281311  0.69526947  1  0  -0.039853  0  3.771363  0  0  -0.061026  0  4.015899  0  0  -0.057608  0  4.035594  0  0  -0.085264  -0.062858  0  4.002268  0
C  C102  1  0.85070179  0.11718654  0.30472963  1  0  -0.039836  0  3.771297  0  0  -0.060997  0  4.01584  0  0  -0.057561  0  4.035538  0  0  -0.085278  -0.06283  0  4.002208  0
C  C103  1  0.29659283  0.77502784  0.69626960  1  0  -0.043698  0  3.772205  0  0  -0.069041  0  4.027787  0  0  -0.06561  0  4.04873  0  0  -0.082294  -0.071035  0  4.013482  0
C  C104  1  0.70340751  0.22497324  0.30372711  1  0  -0.043608  0  3.772143  0  0  -0.068923  0  4.027728  0  0  -0.065496  0  4.048672  0  0  -0.082243  -0.07092  0  4.013422  0
C  C105  1  0.46197859  0.08712779  0.88536036  1  0  0.036933  0  3.599341  0  0  -0.025316  0  3.865683  0  0  -0.018181  0  3.871609  0  0  -0.062762  -0.030101  0  3.861443  0
C  C106  1  0.53802247  0.91287256  0.11464067  1  0  0.036981  0  3.599344  0  0  -0.025303  0  3.865691  0  0  -0.018163  0  3.871601  0  0  -0.062733  -0.030083  0  3.861443  0
C  C107  1  0.59775231  0.15128645  0.93874852  1  0  0.081417  0  3.610368  0  0  0.11179  0  3.842737  0  0  0.109187  0  3.863087  0  0  -0.022253  0.113124  0  3.829995  0
C  C108  1  0.40224851  0.84871319  0.06125176  1  0  0.081456  0  3.61028  0  0  0.111881  0  3.842569  0  0  0.109219  0  3.863087  0  0  -0.022226  0.113214  0  3.829822  0
C  C109  1  0.67660501  0.18866411  0.87710910  1  0  0.040684  0  3.598013  0  0  -0.015946  0  3.858596  0  0  -0.008487  0  3.863934  0  0  -0.061443  -0.020979  0  3.854748  0
C  C110  1  0.32339678  0.81133552  0.12289193  1  0  0.04073  0  3.598076  0  0  -0.015923  0  3.858659  0  0  -0.008459  0  3.863982  0  0  -0.061457  -0.020956  0  3.85481  0
C  C111  1  0.65250410  0.29107807  0.77514067  1  0  0.277078  0  3.834975  0  0  0.26978  0  4.09491  0  0  0.282961  0  4.110528  0  0  0.079653  0.260813  0  4.084159  0
C  C112  1  0.34749696  0.70892228  0.22485974  1  0  0.277032  0  3.834787  0  0  0.269753  0  4.094687  0  0  0.282933  0  4.110303  0  0  0.079648  0.260786  0  4.083936  0
C  C113  1  0.77486575  0.28597879  0.75588837  1  0  -0.22827  0  3.805268  0  0  -0.246174  0  4.056925  0  0  -0.254493  0  4.078004  0  0  -0.121213  -0.240615  0  4.04255  0
C  C114  1  0.22513799  0.71402084  0.24411294  1  0  -0.228268  0  3.805281  0  0  -0.246133  0  4.056956  0  0  -0.254449  0  4.078037  0  0  -0.121202  -0.240578  0  4.042577  0
C  C115  1  0.56611951  0.23355868  0.99710459  1  0  0.053605  0  3.582739  0  0  -0.019705  0  3.86524  0  0  -0.012467  0  3.871425  0  0  -0.060101  -0.024586  0  3.860818  0
C  C116  1  0.43388155  0.76644167  0.00289583  1  0  0.053659  0  3.582613  0  0  -0.019737  0  3.865184  0  0  -0.012498  0  3.871369  0  0  -0.060076  -0.024607  0  3.860762  0
C  C117  1  0.67934345  0.09777134  0.99555661  1  0  -0.340378  0  3.679471  0  0  -0.425821  0  3.920149  0  0  -0.428549  0  3.930832  0  0  -0.245661  -0.423622  0  3.912717  0
C  C118  1  0.32065762  0.90222901  0.00444381  1  0  -0.340444  0  3.679497  0  0  -0.42591  0  3.920167  0  0  -0.428629  0  3.930834  0  0  -0.245674  -0.423709  0  3.912733  0
N  N119  1  0.64288277  0.70181133  0.52624649  1  0  -0.358774  0  3.309042  0  0  -0.279804  0  3.606566  0  0  -0.299662  0  3.618858  0  0  -0.347847  -0.266433  0  3.597951  0
N  N120  1  0.35711514  0.29818832  0.47375275  1  0  -0.35886  0  3.309158  0  0  -0.279863  0  3.606676  0  0  -0.299721  0  3.618966  0  0  -0.347899  -0.266492  0  3.598062  0
N  N121  1  0.53748391  0.81723198  0.51300377  1  0  -0.093309  0  3.614347  0  0  -0.004216  0  3.829525  0  0  -0.018679  0  3.855269  0  0  -0.223165  0.005436  0  3.81192  0
N  N122  1  0.46251619  0.18276838  0.48699527  1  0  -0.093475  0  3.614442  0  0  -0.004337  0  3.829637  0  0  -0.0188  0  3.855382  0  0  -0.223177  0.005316  0  3.812034  0
O  O123  1  0.75308533  0.54279039  0.61082310  1  0  -0.632213  0  2.06138  0  0  -0.560139  0  2.328334  0  0  -0.587953  0  2.311029  0  0  -0.324799  -0.540868  0  2.339711  0
O  O124  1  0.24691015  0.45720785  0.38917373  1  0  -0.632106  0  2.061462  0  0  -0.560083  0  2.328467  0  0  -0.587897  0  2.311159  0  0  -0.324739  -0.540812  0  2.339846  0
O  O125  1  0.61769233  0.51331729  0.40259083  1  0  -0.598683  0  1.971607  0  0  -0.546721  0  2.200431  0  0  -0.570861  0  2.191686  0  0  -0.302135  -0.529708  0  2.206014  0
O  O126  1  0.38231116  0.48668162  0.59741218  1  0  -0.598739  0  1.9716  0  0  -0.546796  0  2.200439  0  0  -0.570937  0  2.191691  0  0  -0.302156  -0.529775  0  2.206019  0
O  O127  1  0.83928477  0.56061164  0.42685367  1  0  -0.687109  0  2.099481  0  0  -0.604535  0  2.373796  0  0  -0.634197  0  2.354439  0  0  -0.330637  -0.583839  0  2.386866  0
O  O128  1  0.16071629  0.43938872  0.57314675  1  0  -0.687212  0  2.099584  0  0  -0.60461  0  2.373866  0  0  -0.634286  0  2.35452  0  0  -0.330686  -0.583914  0  2.386943  0
O  O129  1  0.08354137  0.63257336  0.58729383  1  0  -0.638367  0  2.087707  0  0  -0.575366  0  2.349193  0  0  -0.603724  0  2.336362  0  0  -0.306998  -0.555438  0  2.357207  0
O  O130  1  0.91645386  0.36742415  0.41271027  1  0  -0.638333  0  2.087593  0  0  -0.575306  0  2.349035  0  0  -0.60366  0  2.336213  0  0  -0.306995  -0.555398  0  2.357101  0
O  O131  1  0.88599507  0.44428523  0.57623464  1  0  -0.647343  0  2.098237  0  0  -0.585032  0  2.364579  0  0  -0.613116  0  2.350137  0  0  -0.313306  -0.565469  0  2.374108  0
O  O132  1  0.11400259  0.55571371  0.42376569  1  0  -0.647458  0  2.098178  0  0  -0.585092  0  2.364487  0  0  -0.613176  0  2.350041  0  0  -0.313334  -0.565528  0  2.374017  0
O  O133  1  0.68939881  0.29970656  0.04467938  1  0  -0.273188  0  2.308267  0  0  -0.206929  0  2.545947  0  0  -0.224272  0  2.54684  0  0  -0.178222  -0.194459  0  2.54469  0
O  O134  1  0.31060201  0.70029594  0.95532071  1  0  -0.273275  0  2.308126  0  0  -0.206949  0  2.545837  0  0  -0.224281  0  2.546727  0  0  -0.17824  -0.194477  0  2.544575  0
O  O135  1  0.59711214  0.23922009  0.82691192  1  0  -0.287837  0  2.35357  0  0  -0.224942  0  2.593061  0  0  -0.242663  0  2.594075  0  0  -0.183988  -0.21221  0  2.591698  0
O  O136  1  0.40288965  0.76077954  0.17308849  1  0  -0.287881  0  2.353499  0  0  -0.225007  0  2.593002  0  0  -0.242722  0  2.594014  0  0  -0.18404  -0.212276  0  2.591639  0
O  O137  1  0.48405059  0.99986477  0.84215996  1  0  -0.278882  0  2.327373  0  0  -0.215526  0  2.568873  0  0  -0.233084  0  2.570136  0  0  -0.182946  -0.202919  0  2.56733  0
O  O138  1  0.51594950  0.00013559  0.15784094  1  0  -0.278804  0  2.327396  0  0  -0.215438  0  2.568909  0  0  -0.232989  0  2.570169  0  0  -0.182934  -0.202832  0  2.567363  0
O  O139  1  0.94463372  0.73399111  0.58349738  1  0  -0.654496  0  2.034815  0  0  -0.588717  0  2.295987  0  0  -0.616552  0  2.278561  0  0  -0.337824  -0.569474  0  2.307441  0
O  O140  1  0.05536541  0.26600925  0.41650215  1  0  -0.654437  0  2.034934  0  0  -0.588666  0  2.296119  0  0  -0.616495  0  2.278698  0  0  -0.337809  -0.569421  0  2.307574  0
