# generated using pymatgen
data_MnH4(CN2)4
_symmetry_space_group_name_H-M   'P 1'
_cell_length_a   6.74917288
_cell_length_b   7.34073912
_cell_length_c   8.75962874
_cell_angle_alpha   114.77061557
_cell_angle_beta   108.57585389
_cell_angle_gamma   90.00555735
_symmetry_Int_Tables_number   1
_chemical_formula_structural   MnH4(CN2)4
_chemical_formula_sum   'Mn2 H8 C8 N16'
_cell_volume   369.00171650
_cell_formula_units_Z   2
loop_
 _symmetry_equiv_pos_site_id
 _symmetry_equiv_pos_as_xyz
  1  'x, y, z'
loop_
 _atom_site_type_symbol
 _atom_site_label
 _atom_site_symmetry_multiplicity
 _atom_site_fract_x
 _atom_site_fract_y
 _atom_site_fract_z
 _atom_site_occupancy
 _atom_site_pbe_cm5_charge
 _atom_site_pbe_ddec_charge
 _atom_site_pbe_ddec_spin_density
 _atom_site_pbe_ddec_sum_bond_order
 _atom_site_pbe_magmom
Mn  Mn0  1  0.74999389  0.98789553  0.00002836  1  0.63451  0.750946  4.569857  2.634046  4.342
Mn  Mn1  1  0.25000536  0.01210603  0.99997332  1  0.634501  0.750917  4.569861  2.634058  4.342
H  H2  1  0.94852350  0.79131423  0.26934943  1  0.124532  0.094503  0.001666  1.034677  0.001
H  H3  1  0.44833651  0.47783745  0.26910183  1  0.124579  0.094676  0.001673  1.034558  0.001
H  H4  1  0.05147992  0.20868426  0.73065225  1  0.124526  0.094506  0.001666  1.034696  0.001
H  H5  1  0.55166170  0.52216714  0.73089949  1  0.124576  0.094661  0.001672  1.034563  0.001
H  H6  1  0.95742807  0.45019317  0.26582716  1  0.122339  0.098298  0.001156  1.041549  0.001
H  H7  1  0.45719738  0.81553823  0.26578271  1  0.122222  0.098496  0.001157  1.0406  0.001
H  H8  1  0.04257308  0.54980073  0.73416780  1  0.122307  0.098233  0.001156  1.04162  0.001
H  H9  1  0.54280060  0.18446482  0.73421574  1  0.12222  0.098518  0.001157  1.040519  0.001
C  C10  1  0.86087888  0.65615315  0.14751321  1  0.058919  0.05185  0.006119  3.899185  0.005
C  C11  1  0.36061125  0.49118668  0.14726752  1  0.058319  0.050885  0.006115  3.902214  0.005
C  C12  1  0.13911990  0.34384533  0.85248387  1  0.058926  0.051857  0.00612  3.899077  0.005
C  C13  1  0.63938284  0.50881184  0.85272952  1  0.058322  0.050927  0.006115  3.902076  0.005
C  C14  1  0.86252240  0.46627929  0.14701307  1  0.057465  0.045785  0.003765  3.900039  0.003
C  C15  1  0.36231474  0.68064667  0.14688863  1  0.057727  0.046073  0.003757  3.900556  0.003
C  C16  1  0.13747946  0.53371921  0.85298821  1  0.057539  0.045888  0.003765  3.900138  0.003
C  C17  1  0.63768610  0.31935485  0.85311115  1  0.05769  0.046017  0.003756  3.900665  0.003
N  N18  1  0.42030797  0.90522843  0.80895113  1  -0.309508  -0.537792  0.049411  3.127632  0.011
N  N19  1  0.92023716  0.90363203  0.80892063  1  -0.309659  -0.538475  0.04948  3.125396  0.011
N  N20  1  0.57969007  0.09476548  0.19104190  1  -0.309528  -0.53792  0.049446  3.127156  0.011
N  N21  1  0.07976695  0.09637107  0.19108966  1  -0.309534  -0.538256  0.049427  3.125778  0.011
N  N22  1  0.34415360  0.76950016  0.65797601  1  0.094778  0.425069  0.018759  4.444651  0.018
N  N23  1  0.84410630  0.88836524  0.65790898  1  0.094302  0.424579  0.018749  4.444879  0.018
N  N24  1  0.65585360  0.23051205  0.34203821  1  0.094746  0.425046  0.018775  4.444448  0.018
N  N25  1  0.15588639  0.11163316  0.34207283  1  0.094227  0.424525  0.01873  4.444436  0.018
N  N26  1  0.27058866  0.63755919  0.51361163  1  -0.171847  -0.360258  0.09997  2.621782  0.09
N  N27  1  0.77060593  0.87594641  0.51356994  1  -0.170934  -0.359089  0.099865  2.624234  0.09
N  N28  1  0.72940369  0.36242866  0.48637673  1  -0.171691  -0.360014  0.099912  2.622128  0.09
N  N29  1  0.22940362  0.12405215  0.48644472  1  -0.171067  -0.35931  0.099938  2.62321  0.09
N  N30  1  0.75012567  0.67812829  0.00013677  1  -0.293302  -0.192787  0.033132  3.480076  0.018
N  N31  1  0.24987644  0.32187174  0.99986624  1  -0.29332  -0.192781  0.033133  3.480055  0.018
N  N32  1  0.75012684  0.29782443  0.00005590  1  -0.294408  -0.192752  0.03537  3.498966  0.024
N  N33  1  0.24986728  0.70217406  0.99993773  1  -0.294475  -0.192823  0.035367  3.498986  0.024
