# generated using pymatgen
data_HgH14C14N4Cl2O
_symmetry_space_group_name_H-M   'P 1'
_cell_length_a   8.00544028
_cell_length_b   13.66578537
_cell_length_c   14.61100000
_cell_angle_alpha   90.00000000
_cell_angle_beta   90.00000000
_cell_angle_gamma   93.77027956
_symmetry_Int_Tables_number   1
_chemical_formula_structural   HgH14C14N4Cl2O
_chemical_formula_sum   'Hg4 H56 C56 N16 Cl8 O4'
_cell_volume   1594.99307303
_cell_formula_units_Z   4
loop_
 _symmetry_equiv_pos_site_id
 _symmetry_equiv_pos_as_xyz
  1  'x, y, z'
loop_
 _atom_site_type_symbol
 _atom_site_label
 _atom_site_symmetry_multiplicity
 _atom_site_fract_x
 _atom_site_fract_y
 _atom_site_fract_z
 _atom_site_occupancy
 _atom_site_hle17_bader_spin_density
 _atom_site_hle17_ddec_charge
 _atom_site_hle17_ddec_spin_density
 _atom_site_hle17_ddec_sum_bond_order
 _atom_site_hle17_magmom
 _atom_site_hse06_10hf_bader_spin_density
 _atom_site_hse06_10hf_ddec_charge
 _atom_site_hse06_10hf_ddec_spin_density
 _atom_site_hse06_10hf_ddec_sum_bond_order
 _atom_site_hse06_10hf_magmom
 _atom_site_hse06_bader_spin_density
 _atom_site_hse06_ddec_charge
 _atom_site_hse06_ddec_spin_density
 _atom_site_hse06_ddec_sum_bond_order
 _atom_site_hse06_magmom
 _atom_site_pbe_bader_charge
 _atom_site_pbe_bader_spin_density
 _atom_site_pbe_cm5_charge
 _atom_site_pbe_ddec_charge
 _atom_site_pbe_ddec_spin_density
 _atom_site_pbe_ddec_sum_bond_order
 _atom_site_pbe_magmom
Hg  Hg0  1  0.71444318  0.26196211  0.46902813  1  0  0.774479  0  2.125438  0  0  0.61316  0  2.639211  0  0  0.663003  0  2.6  0  0.851122  0  0.532597  0.57892  0  2.665605  0
Hg  Hg1  1  0.78555896  0.23803977  0.96902881  1  0  0.774493  0  2.12555  0  0  0.613137  0  2.639352  0  0  0.662984  0  2.600141  0  0.851133  0  0.532612  0.578901  0  2.665744  0
Hg  Hg2  1  0.28555326  0.73803799  0.53096708  1  0  0.774481  0  2.125542  0  0  0.613119  0  2.63933  0  0  0.662969  0  2.600124  0  0.851062  0  0.532582  0.578878  0  2.665725  0
Hg  Hg3  1  0.21444088  0.76196839  0.03096845  1  0  0.774446  0  2.125549  0  0  0.613135  0  2.639351  0  0  0.662982  0  2.600139  0  0.851073  0  0.532593  0.5789  0  2.665746  0
H  H4  1  0.59693614  0.04171614  0.91507494  1  0  0.098305  0  0.96076  0  0  0.109639  0  1.020534  0  0  0.112757  0  1.019786  0  0.068776  0  0.094035  0.107415  0  1.021244  0
H  H5  1  0.90308041  0.45828061  0.41507700  1  0  0.098406  0  0.960592  0  0  0.109696  0  1.02042  0  0  0.112814  0  1.019678  0  0.068886  0  0.094063  0.107471  0  1.021132  0
H  H6  1  0.40306797  0.95827442  0.08492095  1  0  0.098395  0  0.96058  0  0  0.109668  0  1.020434  0  0  0.112788  0  1.019685  0  0.068929  0  0.094026  0.107443  0  1.021145  0
H  H7  1  0.09694635  0.54171142  0.58492369  1  0  0.09832  0  0.960811  0  0  0.109628  0  1.020616  0  0  0.112745  0  1.019871  0  0.068744  0  0.094034  0.107402  0  1.02133  0
H  H8  1  0.73290885  0.88496299  0.93017795  1  0  0.088817  0  0.962324  0  0  0.094854  0  1.031646  0  0  0.098117  0  1.028688  0  0.105174  0  0.090676  0.0925  0  1.03371  0
H  H9  1  0.76709942  0.61503606  0.43018548  1  0  0.088768  0  0.962275  0  0  0.094783  0  1.031633  0  0  0.098046  0  1.028672  0  0.105348  0  0.090647  0.092428  0  1.033697  0
H  H10  1  0.26708967  0.11503344  0.06982000  1  0  0.088773  0  0.962296  0  0  0.094782  0  1.031652  0  0  0.098043  0  1.028698  0  0.105397  0  0.090672  0.092429  0  1.033713  0
H  H11  1  0.23292126  0.38495744  0.56982274  1  0  0.088817  0  0.962226  0  0  0.094836  0  1.031568  0  0  0.098098  0  1.028613  0  0.105615  0  0.090715  0.092483  0  1.033628  0
H  H12  1  0.84613401  0.80466941  0.79135857  1  0  0.092159  0  0.955363  0  0  0.106679  0  1.008612  0  0  0.109386  0  1.009136  0  0.034522  0  0.096754  0.104757  0  1.008396  0
H  H13  1  0.65385419  0.69532890  0.29136130  1  0  0.092171  0  0.955311  0  0  0.106699  0  1.008539  0  0  0.109408  0  1.009063  0  0.034489  0  0.096775  0.104775  0  1.008327  0
H  H14  1  0.15386126  0.19533142  0.20864075  1  0  0.092111  0  0.955436  0  0  0.10663  0  1.008688  0  0  0.109338  0  1.00921  0  0.034572  0  0.096721  0.104707  0  1.008474  0
H  H15  1  0.34615574  0.30466900  0.70864896  1  0  0.092201  0  0.955126  0  0  0.106729  0  1.008377  0  0  0.109438  0  1.008899  0  0.034415  0  0.096747  0.104806  0  1.008166  0
H  H16  1  0.82361069  0.87973060  0.64185750  1  0  0.07732  0  1.005274  0  0  0.083658  0  1.07917  0  0  0.087104  0  1.075337  0  0.071109  0  0.084297  0.081129  0  1.081999  0
H  H17  1  0.67638169  0.62026038  0.14186435  1  0  0.077389  0  1.005233  0  0  0.083727  0  1.079113  0  0  0.087174  0  1.075282  0  0.070766  0  0.084325  0.081197  0  1.081943  0
H  H18  1  0.17639633  0.12026363  0.35813223  1  0  0.077407  0  1.005374  0  0  0.08375  0  1.079233  0  0  0.087194  0  1.075405  0  0.070774  0  0.084354  0.081226  0  1.082058  0
H  H19  1  0.32362257  0.37974265  0.85815276  1  0  0.077301  0  1.005274  0  0  0.083647  0  1.079162  0  0  0.087092  0  1.075333  0  0.070427  0  0.084308  0.081112  0  1.081995  0
H  H20  1  0.72614778  0.84230231  0.41729587  1  0  0.130257  0  0.946347  0  0  0.147454  0  1.012517  0  0  0.150008  0  1.010797  0  0.07534  0  0.096056  0.145588  0  1.013811  0
H  H21  1  0.77384425  0.65769674  0.91729861  1  0  0.130295  0  0.94638  0  0  0.147498  0  1.012522  0  0  0.150053  0  1.010801  0  0.075351  0  0.096062  0.145632  0  1.013815  0
H  H22  1  0.27383733  0.15769706  0.58269797  1  0  0.130275  0  0.946512  0  0  0.1475  0  1.01262  0  0  0.150051  0  1.010904  0  0.075312  0  0.096065  0.145634  0  1.013913  0
H  H23  1  0.22616318  0.34230116  0.08270002  1  0  0.130316  0  0.946454  0  0  0.147517  0  1.012588  0  0  0.150068  0  1.010874  0  0.075376  0  0.096079  0.145651  0  1.013883  0
H  H24  1  0.93692167  0.88728035  0.40432003  1  0  0.126665  0  0.950856  0  0  0.143306  0  1.017851  0  0  0.14521  0  1.01721  0  0.09246  0  0.088987  0.14194  0  1.018284  0
H  H25  1  0.56307036  0.61271870  0.90432072  1  0  0.126668  0  0.950875  0  0  0.143324  0  1.017859  0  0  0.145229  0  1.017223  0  0.092345  0  0.088994  0.141957  0  1.018293  0
H  H26  1  0.06308134  0.11272268  0.59567655  1  0  0.126813  0  0.950837  0  0  0.143414  0  1.017864  0  0  0.145314  0  1.017232  0  0.092492  0  0.089021  0.142048  0  1.018299  0
H  H27  1  0.43692415  0.38728653  0.09567997  1  0  0.126708  0  0.9509  0  0  0.143361  0  1.017871  0  0  0.145271  0  1.017229  0  0.092187  0  0.089003  0.141995  0  1.018307  0
H  H28  1  0.81396239  0.85325770  0.30655328  1  0  0.12676  0  0.958295  0  0  0.147398  0  1.019017  0  0  0.149409  0  1.018035  0  0.045005  0  0.097946  0.145916  0  1.01976  0
H  H29  1  0.68603406  0.64673622  0.80655807  1  0  0.126667  0  0.958437  0  0  0.14735  0  1.019106  0  0  0.149332  0  1.018158  0  0.045105  0  0.097907  0.145867  0  1.019852  0
H  H30  1  0.18603063  0.14674533  0.69343782  1  0  0.126731  0  0.958398  0  0  0.14742  0  1.019063  0  0  0.149401  0  1.018114  0  0.044963  0  0.097946  0.145944  0  1.0198  0
H  H31  1  0.31397712  0.35326168  0.19343714  1  0  0.126645  0  0.958518  0  0  0.147296  0  1.019225  0  0  0.149276  0  1.018278  0  0.045196  0  0.097867  0.145842  0  1.019936  0
H  H32  1  0.91257594  0.94334652  0.20621586  1  0  0.106112  0  0.971261  0  0  0.114983  0  1.033457  0  0  0.117907  0  1.032964  0  0.105818  0  0.098953  0.112897  0  1.033963  0
H  H33  1  0.58742217  0.55665106  0.70621929  1  0  0.10612  0  0.971293  0  0  0.114996  0  1.033501  0  0  0.117921  0  1.033003  0  0.105826  0  0.098953  0.112909  0  1.034008  0
H  H34  1  0.08742140  0.05666164  0.79377729  1  0  0.106194  0  0.971258  0  0  0.115048  0  1.033475  0  0  0.117975  0  1.032973  0  0.105606  0  0.098951  0.112961  0  1.033984  0
H  H35  1  0.41257559  0.44334977  0.29378277  1  0  0.106117  0  0.971325  0  0  0.114975  0  1.033521  0  0  0.1179  0  1.033024  0  0.105825  0  0.098937  0.112887  0  1.034033  0
H  H36  1  0.90775483  0.03491733  0.06170830  1  0  0.071429  0  0.944062  0  0  0.077533  0  1.015495  0  0  0.079707  0  1.013336  0  0.087596  0  0.107146  0.075948  0  1.017064  0
H  H37  1  0.59223964  0.46508309  0.56171446  1  0  0.071424  0  0.944026  0  0  0.077535  0  1.015442  0  0  0.079711  0  1.013284  0  0.087695  0  0.10713  0.075947  0  1.017014  0
H  H38  1  0.09222669  0.96508350  0.93829238  1  0  0.07138  0  0.944054  0  0  0.077493  0  1.015477  0  0  0.07967  0  1.01332  0  0.087742  0  0.107113  0.075907  0  1.017048  0
H  H39  1  0.40776587  0.53491995  0.43829101  1  0  0.071435  0  0.944096  0  0  0.077546  0  1.015507  0  0  0.079722  0  1.013349  0  0.087625  0  0.107126  0.075961  0  1.017077  0
H  H40  1  0.59895601  0.23740690  0.17012525  1  0  0.078765  0  0.927141  0  0  0.088473  0  0.989083  0  0  0.090499  0  0.987679  0  0.091256  0  0.111048  0.087004  0  0.990129  0
H  H41  1  0.90104362  0.26259498  0.67012730  1  0  0.078697  0  0.927242  0  0  0.088422  0  0.989173  0  0  0.090445  0  0.987775  0  0.091245  0  0.111025  0.086953  0  0.99022  0
H  H42  1  0.40102301  0.76259393  0.82986312  1  0  0.078693  0  0.927047  0  0  0.088389  0  0.988989  0  0  0.090412  0  0.987588  0  0.091354  0  0.111007  0.08692  0  0.990038  0
H  H43  1  0.09896172  0.73740658  0.32987133  1  0  0.078743  0  0.927222  0  0  0.088474  0  0.98914  0  0  0.090498  0  0.987738  0  0.091206  0  0.111064  0.087004  0  0.990187  0
H  H44  1  0.58603511  0.15292374  0.32038738  1  0  0.093191  0  1.012534  0  0  0.096185  0  1.090088  0  0  0.099232  0  1.088494  0  0.114983  0  0.089348  0.093976  0  1.091395  0
H  H45  1  0.91396803  0.34707594  0.82038738  1  0  0.093129  0  1.012533  0  0  0.096137  0  1.090085  0  0  0.099184  0  1.08849  0  0.115198  0  0.08935  0.093929  0  1.091391  0
H  H46  1  0.41395908  0.84707856  0.67961125  1  0  0.093195  0  1.012448  0  0  0.096162  0  1.090017  0  0  0.099228  0  1.088411  0  0.115155  0  0.089358  0.093957  0  1.091319  0
H  H47  1  0.08603823  0.65292269  0.17961536  1  0  0.093131  0  1.012586  0  0  0.0962  0  1.090043  0  0  0.099249  0  1.088446  0  0.115287  0  0.089366  0.093993  0  1.091349  0
H  H48  1  0.51726464  0.17156602  0.82227158  1  0  0.305253  0  0.961658  0  0  0.287602  0  1.031948  0  0  0.294472  0  1.026977  0  0.490379  0  0.270894  0.28279  0  1.035341  0
H  H49  1  0.98275049  0.32842927  0.32227021  1  0  0.305175  0  0.961841  0  0  0.287538  0  1.032094  0  0  0.294406  0  1.027127  0  0.490134  0  0.270914  0.282725  0  1.035475  0
H  H50  1  0.48274113  0.82842821  0.17772432  1  0  0.305171  0  0.961735  0  0  0.287521  0  1.032031  0  0  0.294391  0  1.027061  0  0.49012  0  0.270881  0.282708  0  1.035421  0
H  H51  1  0.01726118  0.67157303  0.67772842  1  0  0.305168  0  0.961773  0  0  0.287499  0  1.032096  0  0  0.294367  0  1.027129  0  0.49014  0  0.270886  0.282686  0  1.035479  0
H  H52  1  0.55532447  0.17299677  0.70257135  1  0  0.328934  0  0.93388  0  0  0.31202  0  0.993025  0  0  0.319702  0  0.987142  0  0.51267  0  0.298939  0.306627  0  0.997052  0
H  H53  1  0.94468941  0.32699852  0.20257683  1  0  0.328985  0  0.933783  0  0  0.312048  0  0.992953  0  0  0.319733  0  0.987068  0  0.512747  0  0.299032  0.306656  0  0.996981  0
H  H54  1  0.44467579  0.82700406  0.29742797  1  0  0.328981  0  0.933783  0  0  0.312079  0  0.992914  0  0  0.31977  0  0.987016  0  0.512686  0  0.298975  0.306686  0  0.996944  0
H  H55  1  0.05531943  0.67300085  0.79741633  1  0  0.328946  0  0.933902  0  0  0.31202  0  0.993054  0  0  0.319707  0  0.987164  0  0.512531  0  0.299021  0.306628  0  0.997083  0
H  H56  1  0.75597966  0.92941156  0.52907604  1  0  0.274328  0  0.908449  0  0  0.257437  0  0.973975  0  0  0.264167  0  0.969671  0  0.470057  0  0.318224  0.252612  0  0.977213  0
H  H57  1  0.74403311  0.57058308  0.02907878  1  0  0.2743  0  0.908507  0  0  0.257444  0  0.973974  0  0  0.264173  0  0.969671  0  0.470232  0  0.318241  0.252621  0  0.97721  0
H  H58  1  0.24402619  0.07058340  0.47092465  1  0  0.274325  0  0.908466  0  0  0.2574  0  0.97402  0  0  0.26413  0  0.969717  0  0.470205  0  0.318239  0.252576  0  0.977259  0
H  H59  1  0.25597564  0.42942655  0.97092191  1  0  0.274328  0  0.908631  0  0  0.25742  0  0.974136  0  0  0.264147  0  0.96984  0  0.470359  0  0.31825  0.252598  0  0.977373  0
C  C60  1  0.63136606  0.05324134  0.76874889  1  0  0.339087  0  3.809861  0  0  0.326162  0  4.051761  0  0  0.341653  0  4.07182  0  0.483167  0  0.11638  0.315938  0  4.037719  0
C  C61  1  0.86864666  0.44675468  0.26875368  1  0  0.338865  0  3.81019  0  0  0.32602  0  4.052006  0  0  0.341518  0  4.072055  0  0.482813  0  0.116374  0.315795  0  4.037968  0
C  C62  1  0.36863779  0.94675803  0.23124906  1  0  0.338822  0  3.809954  0  0  0.325994  0  4.051735  0  0  0.341486  0  4.071799  0  0.482839  0  0.116399  0.315771  0  4.037691  0
C  C63  1  0.13135985  0.55324615  0.73125453  1  0  0.338752  0  3.810312  0  0  0.325993  0  4.051973  0  0  0.341488  0  4.072024  0  0.482884  0  0.11632  0.315769  0  4.037931  0
C  C64  1  0.64862913  0.00709068  0.85500513  1  0  -0.217758  0  3.739235  0  0  -0.228021  0  3.985994  0  0  -0.239166  0  4.008553  0  -0.077864  0  -0.11366  -0.220764  0  3.970672  0
C  C65  1  0.85138541  0.49291047  0.35500582  1  0  -0.217832  0  3.739421  0  0  -0.228071  0  3.986148  0  0  -0.239222  0  4.008713  0  -0.077608  0  -0.113655  -0.220818  0  3.97083  0
C  C66  1  0.35138021  0.99291308  0.14499418  1  0  -0.217875  0  3.739131  0  0  -0.228114  0  3.985852  0  0  -0.239262  0  4.008414  0  -0.077823  0  -0.113676  -0.220858  0  3.97053  0
C  C67  1  0.14861485  0.50709036  0.64500240  1  0  -0.217647  0  3.739499  0  0  -0.227954  0  3.986227  0  0  -0.239099  0  4.00879  0  -0.077039  0  -0.113585  -0.220699  0  3.970907  0
C  C68  1  0.72318578  0.91917411  0.86306002  1  0  -0.018412  0  3.785056  0  0  -0.036843  0  4.039505  0  0  -0.031357  0  4.058099  0  -0.052466  0  -0.085529  -0.039893  0  4.026314  0
C  C69  1  0.77682966  0.58082200  0.36306550  1  0  -0.018379  0  3.785122  0  0  -0.036791  0  4.03957  0  0  -0.031303  0  4.058166  0  -0.053057  0  -0.085524  -0.039845  0  4.026387  0
C  C70  1  0.27682622  0.08083112  0.13694135  1  0  -0.018161  0  3.784614  0  0  -0.036556  0  4.039031  0  0  -0.031067  0  4.057618  0  -0.052613  0  -0.085471  -0.039613  0  4.025857  0
C  C71  1  0.22315471  0.41917076  0.63694477  1  0  -0.018356  0  3.784791  0  0  -0.036757  0  4.039234  0  0  -0.03127  0  4.057826  0  -0.053736  0  -0.085561  -0.039807  0  4.026043  0
C  C72  1  0.78526976  0.87323612  0.78511738  1  0  -0.115092  0  3.790206  0  0  -0.129456  0  4.04858  0  0  -0.138494  0  4.072312  0  0.001222  0  -0.114901  -0.123572  0  4.032226  0
C  C73  1  0.71473734  0.62676366  0.28512148  1  0  -0.115009  0  3.790263  0  0  -0.129366  0  4.048618  0  0  -0.138403  0  4.072348  0  0.001202  0  -0.114906  -0.123482  0  4.032258  0
C  C74  1  0.21472184  0.12676544  0.21488262  1  0  -0.115073  0  3.790191  0  0  -0.129443  0  4.048563  0  0  -0.138479  0  4.072289  0  0.000874  0  -0.11484  -0.12356  0  4.032208  0
C  C75  1  0.28525493  0.37323277  0.71489084  1  0  -0.115155  0  3.789986  0  0  -0.129523  0  4.04838  0  0  -0.138562  0  4.072111  0  0.001496  0  -0.114827  -0.123638  0  4.032019  0
C  C76  1  0.77080278  0.91658688  0.70026350  1  0  -0.056217  0  3.787825  0  0  -0.084596  0  4.046559  0  0  -0.078543  0  4.065377  0  -0.113203  0  -0.094711  -0.088052  0  4.033382  0
C  C77  1  0.72919467  0.58340483  0.20027240  1  0  -0.056348  0  3.78808  0  0  -0.084719  0  4.04684  0  0  -0.078666  0  4.065662  0  -0.112539  0  -0.094694  -0.088168  0  4.033648  0
C  C78  1  0.22919025  0.08340515  0.29972966  1  0  -0.05638  0  3.788194  0  0  -0.084765  0  4.046919  0  0  -0.078712  0  4.065738  0  -0.112685  0  -0.094782  -0.088224  0  4.033736  0
C  C79  1  0.27080676  0.41659527  0.79974334  1  0  -0.056194  0  3.787939  0  0  -0.084598  0  4.046693  0  0  -0.078536  0  4.065502  0  -0.112366  0  -0.094758  -0.088048  0  4.033515  0
C  C80  1  0.69389679  0.00605300  0.68885497  1  0  -0.211183  0  3.739582  0  0  -0.18753  0  3.978374  0  0  -0.204603  0  4.00411  0  0.070374  0  -0.037019  -0.176332  0  3.960815  0
C  C81  1  0.80610536  0.49393788  0.18886113  1  0  -0.211092  0  3.739565  0  0  -0.187537  0  3.97844  0  0  -0.204615  0  4.00418  0  0.070614  0  -0.037057  -0.176336  0  3.960876  0
C  C82  1  0.30609757  0.99393976  0.31114434  1  0  -0.211072  0  3.739699  0  0  -0.187459  0  3.978477  0  0  -0.204533  0  4.004211  0  0.070932  0  -0.037057  -0.176258  0  3.960917  0
C  C83  1  0.19391422  0.50606808  0.81114366  1  0  -0.211252  0  3.739725  0  0  -0.187571  0  3.978463  0  0  -0.204651  0  4.004196  0  0.070361  0  -0.037039  -0.176369  0  3.9609  0
C  C84  1  0.67576540  0.05124518  0.59880022  1  0  0.526489  0  3.800171  0  0  0.472206  0  4.08947  0  0  0.504263  0  4.089652  0  1.272283  0  0.232703  0.450698  0  4.088659  0
C  C85  1  0.82423301  0.44874570  0.09880501  1  0  0.526518  0  3.799894  0  0  0.472224  0  4.089196  0  0  0.504292  0  4.08937  0  1.271682  0  0.232701  0.450717  0  4.088387  0
C  C86  1  0.32421189  0.94875125  0.40119567  1  0  0.526529  0  3.800175  0  0  0.472231  0  4.089452  0  0  0.504304  0  4.08963  0  1.271708  0  0.232789  0.450722  0  4.088642  0
C  C87  1  0.17577617  0.55125660  0.90119157  1  0  0.526647  0  3.799973  0  0  0.472226  0  4.089483  0  0  0.504293  0  4.089655  0  1.272267  0  0.232675  0.450722  0  4.088673  0
C  C88  1  0.81144450  0.88835983  0.37372664  1  0  -0.386399  0  3.705394  0  0  -0.467808  0  3.943185  0  0  -0.470646  0  3.947716  0  -0.111597  0  -0.24546  -0.465553  0  3.939961  0
C  C89  1  0.68855195  0.61163408  0.87373075  1  0  -0.386371  0  3.705522  0  0  -0.467798  0  3.943333  0  0  -0.470616  0  3.947878  0  -0.111864  0  -0.245484  -0.465544  0  3.940111  0
C  C90  1  0.18855327  0.11164100  0.62626925  1  0  -0.386535  0  3.705674  0  0  -0.467956  0  3.943456  0  0  -0.470767  0  3.948006  0  -0.111554  0  -0.245526  -0.465709  0  3.940231  0
C  C91  1  0.31144215  0.38836748  0.12626788  1  0  -0.386417  0  3.705749  0  0  -0.467823  0  3.943577  0  0  -0.470643  0  3.948116  0  -0.111772  0  -0.245473  -0.465595  0  3.940333  0
C  C92  1  0.75645635  0.99079079  0.36770515  1  0  0.233906  0  3.666904  0  0  0.234938  0  3.929422  0  0  0.243916  0  3.942919  0  0.6217  0  0.132348  0.228902  0  3.920112  0
C  C93  1  0.74355376  0.50920239  0.86770926  1  0  0.233769  0  3.666817  0  0  0.234626  0  3.92951  0  0  0.243603  0  3.943006  0  0.62226  0  0.132304  0.228592  0  3.920195  0
C  C94  1  0.24354475  0.00920637  0.63229006  1  0  0.233682  0  3.666826  0  0  0.234709  0  3.929374  0  0  0.243686  0  3.942871  0  0.621967  0  0.132294  0.228675  0  3.920062  0
C  C95  1  0.25644551  0.49080064  0.13229416  1  0  0.233699  0  3.66689  0  0  0.234637  0  3.929487  0  0  0.243613  0  3.942985  0  0.622274  0  0.132347  0.228602  0  3.920176  0
C  C96  1  0.75268759  0.04143674  0.27876737  1  0  0.066151  0  3.738549  0  0  0.078654  0  3.968592  0  0  0.081387  0  3.989564  0  -0.003269  0  0.01114  0.076874  0  3.954452  0
C  C97  1  0.74731307  0.45855194  0.77876668  1  0  0.066006  0  3.738814  0  0  0.078752  0  3.968628  0  0  0.081483  0  3.989603  0  -0.003005  0  0.011115  0.076974  0  3.954484  0
C  C98  1  0.24729961  0.95855896  0.72123263  1  0  0.066095  0  3.738891  0  0  0.078618  0  3.968881  0  0  0.08135  0  3.989866  0  -0.002877  0  0.011096  0.07684  0  3.954738  0
C  C99  1  0.25269187  0.54144595  0.22123811  1  0  0.066076  0  3.738594  0  0  0.07874  0  3.968464  0  0  0.08147  0  3.989444  0  -0.002991  0  0.01106  0.076962  0  3.954319  0
C  C100  1  0.83979799  0.00770375  0.20293135  1  0  -0.136349  0  3.696858  0  0  -0.155627  0  3.940938  0  0  -0.162175  0  3.962032  0  -0.063773  0  -0.08249  -0.15144  0  3.926873  0
C  C101  1  0.66020422  0.49229886  0.70293546  1  0  -0.136395  0  3.69699  0  0  -0.155765  0  3.941018  0  0  -0.162313  0  3.962116  0  -0.063812  0  -0.082574  -0.15158  0  3.926957  0
C  C102  1  0.16019144  0.99230074  0.79706591  1  0  -0.136516  0  3.697157  0  0  -0.155788  0  3.941214  0  0  -0.16234  0  3.962318  0  -0.063934  0  -0.082536  -0.151598  0  3.92714  0
C  C103  1  0.33979879  0.50770417  0.29707207  1  0  -0.136391  0  3.697124  0  0  -0.155696  0  3.941116  0  0  -0.162241  0  3.962206  0  -0.063964  0  -0.082514  -0.151512  0  3.927058  0
C  C104  1  0.83819713  0.05905454  0.12088016  1  0  0.125424  0  3.731827  0  0  0.095959  0  3.986006  0  0  0.10321  0  4.004254  0  0.52358  0  0.041581  0.091184  0  3.973561  0
C  C105  1  0.66180625  0.44094734  0.62088632  1  0  0.125512  0  3.731799  0  0  0.096094  0  3.985951  0  0  0.103339  0  4.004204  0  0.523859  0  0.041744  0.091322  0  3.973503  0
C  C106  1  0.16179879  0.94095216  0.87911847  1  0  0.12554  0  3.731872  0  0  0.096111  0  3.986002  0  0  0.103357  0  4.004255  0  0.523919  0  0.041725  0.091337  0  3.973558  0
C  C107  1  0.33819002  0.55905129  0.37912258  1  0  0.125447  0  3.731932  0  0  0.096007  0  3.986046  0  0  0.103255  0  4.004296  0  0.52353  0  0.041651  0.091231  0  3.973602  0
C  C108  1  0.66818947  0.17242256  0.18178701  1  0  0.130308  0  3.718869  0  0  0.10029  0  3.975589  0  0  0.10754  0  3.993831  0  0.394694  0  0.039379  0.095439  0  3.96325  0
C  C109  1  0.83180942  0.32757272  0.68178701  1  0  0.130305  0  3.719016  0  0  0.100271  0  3.975788  0  0  0.107522  0  3.994028  0  0.394436  0  0.039378  0.095417  0  3.963452  0
C  C110  1  0.33179488  0.82758120  0.81821094  1  0  0.130406  0  3.718894  0  0  0.100455  0  3.975582  0  0  0.10771  0  3.993826  0  0.394698  0  0.039453  0.095596  0  3.963254  0
C  C111  1  0.16819068  0.67242664  0.31821504  1  0  0.130394  0  3.718811  0  0  0.100343  0  3.975602  0  0  0.107594  0  3.993844  0  0.394868  0  0.039398  0.09549  0  3.963266  0
C  C112  1  0.66288304  0.12546083  0.26594689  1  0  -0.150354  0  3.726236  0  0  -0.169969  0  3.976452  0  0  -0.177116  0  3.998759  0  0.061543  0  -0.086621  -0.165421  0  3.961766  0
C  C113  1  0.83710787  0.37453006  0.76594620  1  0  -0.150114  0  3.726341  0  0  -0.169809  0  3.976517  0  0  -0.176954  0  3.998824  0  0.061537  0  -0.086561  -0.165263  0  3.961829  0
C  C114  1  0.33709808  0.87453634  0.73405174  1  0  -0.150289  0  3.726388  0  0  -0.169911  0  3.97663  0  0  -0.177063  0  3.998895  0  0.061181  0  -0.086598  -0.165363  0  3.961943  0
C  C115  1  0.16289098  0.62546931  0.23405790  1  0  -0.150268  0  3.726137  0  0  -0.169973  0  3.976291  0  0  -0.177118  0  3.998597  0  0.061116  0  -0.086624  -0.165425  0  3.961604  0
N  N116  1  0.55333054  0.13794010  0.76396824  1  0  -0.657627  0  3.1855  0  0  -0.618525  0  3.414105  0  0  -0.642693  0  3.416882  0  -1.331698  0  -0.590497  -0.601389  0  3.411442  0
N  N117  1  0.94668593  0.36205591  0.26397440  1  0  -0.657459  0  3.185639  0  0  -0.618387  0  3.414258  0  0  -0.642554  0  3.417028  0  -1.331523  0  -0.590603  -0.601247  0  3.411596  0
N  N118  1  0.44668031  0.86205486  0.23602833  1  0  -0.657456  0  3.18534  0  0  -0.61842  0  3.413891  0  0  -0.642587  0  3.416662  0  -1.331293  0  -0.590526  -0.601282  0  3.411226  0
N  N119  1  0.05332666  0.63794345  0.73602354  1  0  -0.657384  0  3.185761  0  0  -0.61831  0  3.414308  0  0  -0.642478  0  3.417081  0  -1.33125  0  -0.590556  -0.601172  0  3.411646  0
N  N120  1  0.72188490  0.99973829  0.52219492  1  0  -0.277074  0  3.40923  0  0  -0.222927  0  3.6632  0  0  -0.243628  0  3.677396  0  -0.824133  0  -0.291476  -0.208796  0  3.653177  0
N  N121  1  0.77812570  0.50025929  0.02220108  1  0  -0.277056  0  3.409291  0  0  -0.22294  0  3.663223  0  0  -0.243634  0  3.677403  0  -0.82407  0  -0.291525  -0.20881  0  3.653201  0
N  N122  1  0.27812386  0.00026034  0.47779960  1  0  -0.277051  0  3.409672  0  0  -0.222899  0  3.663657  0  0  -0.24359  0  3.67784  0  -0.824229  0  -0.291541  -0.208773  0  3.653637  0
N  N123  1  0.22187489  0.49974448  0.97779687  1  0  -0.277071  0  3.409348  0  0  -0.222896  0  3.663426  0  0  -0.24359  0  3.677606  0  -0.824224  0  -0.291511  -0.208768  0  3.653403  0
N  N124  1  0.71404377  0.04138027  0.43865923  1  0  -0.193756  0  3.099719  0  0  -0.178528  0  3.382307  0  0  -0.18522  0  3.398706  0  -0.705553  0  -0.205636  -0.173964  0  3.371023  0
N  N125  1  0.78596045  0.45861795  0.93866539  1  0  -0.193626  0  3.099655  0  0  -0.17837  0  3.382324  0  0  -0.185061  0  3.39872  0  -0.706041  0  -0.205579  -0.173805  0  3.371039  0
N  N126  1  0.28595440  0.95862423  0.56133050  1  0  -0.193568  0  3.099829  0  0  -0.178338  0  3.382419  0  0  -0.185031  0  3.39882  0  -0.705829  0  -0.205584  -0.173774  0  3.371136  0
N  N127  1  0.21403849  0.54138215  0.06133324  1  0  -0.193583  0  3.099716  0  0  -0.178319  0  3.382347  0  0  -0.185009  0  3.398742  0  -0.706023  0  -0.205576  -0.173755  0  3.371061  0
N  N128  1  0.75560339  0.14055886  0.11025255  1  0  -0.312038  0  3.264496  0  0  -0.241267  0  3.532453  0  0  -0.260797  0  3.552302  0  -1.216168  0  -0.320083  -0.227776  0  3.518523  0
N  N129  1  0.74439375  0.35944302  0.61025939  1  0  -0.312018  0  3.264584  0  0  -0.241291  0  3.53257  0  0  -0.260823  0  3.552423  0  -1.216686  0  -0.32011  -0.2278  0  3.518641  0
N  N130  1  0.24438846  0.85944490  0.88974471  1  0  -0.311986  0  3.264624  0  0  -0.2413  0  3.532602  0  0  -0.260831  0  3.55245  0  -1.216653  0  -0.320096  -0.227809  0  3.518677  0
N  N131  1  0.25560801  0.64056001  0.38974608  1  0  -0.312023  0  3.264499  0  0  -0.241277  0  3.53248  0  0  -0.260811  0  3.552333  0  -1.216332  0  -0.320061  -0.227785  0  3.518551  0
Cl  Cl132  1  0.43916202  0.29356987  0.42172952  1  0  -0.45214  0  0.977296  0  0  -0.385746  0  1.246724  0  0  -0.404157  0  1.229087  0  -0.494041  0  -0.257546  -0.373319  0  1.258823  0
Cl  Cl133  1  0.06084673  0.20643495  0.92173226  1  0  -0.452162  0  0.977271  0  0  -0.385781  0  1.246724  0  0  -0.404193  0  1.229089  0  -0.494093  0  -0.257559  -0.373351  0  1.258821  0
Cl  Cl134  1  0.56083558  0.70642949  0.57827185  1  0  -0.452162  0  0.977256  0  0  -0.385763  0  1.246682  0  0  -0.40418  0  1.229054  0  -0.494021  0  -0.257556  -0.373334  0  1.258781  0
Cl  Cl135  1  0.93915737  0.79356662  0.07827185  1  0  -0.452143  0  0.97728  0  0  -0.385768  0  1.246732  0  0  -0.40418  0  1.229097  0  -0.494078  0  -0.257553  -0.37334  0  1.25883  0
Cl  Cl136  1  0.00915266  0.24270896  0.45454794  1  0  -0.455288  0  1.05094  0  0  -0.390953  0  1.333177  0  0  -0.408955  0  1.314222  0  -0.508805  0  -0.234212  -0.378751  0  1.34615  0
Cl  Cl137  1  0.49085067  0.25729219  0.95454452  1  0  -0.455288  0  1.050935  0  0  -0.390943  0  1.333177  0  0  -0.408953  0  1.314242  0  -0.508814  0  -0.234213  -0.37875  0  1.346173  0
Cl  Cl138  1  0.99084369  0.75729041  0.54545069  1  0  -0.455308  0  1.050945  0  0  -0.390952  0  1.333195  0  0  -0.408945  0  1.314217  0  -0.5088  0  -0.234223  -0.378748  0  1.346168  0
Cl  Cl139  1  0.50913951  0.74270791  0.04545206  1  0  -0.455282  0  1.05097  0  0  -0.390939  0  1.333223  0  0  -0.408947  0  1.31428  0  -0.508782  0  -0.234207  -0.378745  0  1.346214  0
O  O140  1  0.62070418  0.13478600  0.58898227  1  0  -0.554429  0  2.068424  0  0  -0.490795  0  2.314915  0  0  -0.51509  0  2.306857  0  -1.142201  0  -0.289608  -0.474032  0  2.319921  0
O  O141  1  0.87930870  0.36521148  0.08897201  1  0  -0.554514  0  2.068366  0  0  -0.490751  0  2.314748  0  0  -0.515068  0  2.306692  0  -1.141791  0  -0.289588  -0.473988  0  2.319756  0
O  O142  1  0.37929459  0.86521263  0.41102389  1  0  -0.554607  0  2.068272  0  0  -0.490861  0  2.314642  0  0  -0.515205  0  2.306613  0  -1.142146  0  -0.289663  -0.47409  0  2.319644  0
O  O143  1  0.12068865  0.63478568  0.91101910  1  0  -0.55445  0  2.068182  0  0  -0.490798  0  2.314793  0  0  -0.515121  0  2.306752  0  -1.142333  0  -0.289591  -0.474038  0  2.319799  0
