# generated using pymatgen
data_Mn2V2H8C2N2O7
_symmetry_space_group_name_H-M   'P 1'
_cell_length_a   4.98720664
_cell_length_b   6.11558595
_cell_length_c   14.28415124
_cell_angle_alpha   90.00013040
_cell_angle_beta   89.99995043
_cell_angle_gamma   89.99993740
_symmetry_Int_Tables_number   1
_chemical_formula_structural   Mn2V2H8C2N2O7
_chemical_formula_sum   'Mn4 V4 H16 C4 N4 O14'
_cell_volume   435.66219631
_cell_formula_units_Z   2
loop_
 _symmetry_equiv_pos_site_id
 _symmetry_equiv_pos_as_xyz
  1  'x, y, z'
loop_
 _atom_site_type_symbol
 _atom_site_label
 _atom_site_symmetry_multiplicity
 _atom_site_fract_x
 _atom_site_fract_y
 _atom_site_fract_z
 _atom_site_occupancy
 _atom_site_hle17_ddec_charge
 _atom_site_hle17_ddec_spin_density
 _atom_site_hle17_ddec_sum_bond_order
 _atom_site_hle17_magmom
 _atom_site_hse06_10hf_ddec_charge
 _atom_site_hse06_10hf_ddec_spin_density
 _atom_site_hse06_10hf_ddec_sum_bond_order
 _atom_site_hse06_10hf_magmom
 _atom_site_hse06_ddec_charge
 _atom_site_hse06_ddec_spin_density
 _atom_site_hse06_ddec_sum_bond_order
 _atom_site_hse06_magmom
 _atom_site_pbe_cm5_charge
 _atom_site_pbe_ddec_charge
 _atom_site_pbe_ddec_spin_density
 _atom_site_pbe_ddec_sum_bond_order
 _atom_site_pbe_magmom
Mn  Mn0  1  0.10705359  0.00000228  0.26736764  1  1.24059  4.690643  1.911417  4.587  1.139115  4.585476  2.407955  4.425  1.189801  4.667803  2.33042  4.526  0.601316  1.100228  4.500318  2.463202  4.322
Mn  Mn1  1  0.89294988  0.00000315  0.73263282  1  1.24054  4.69063  1.911488  4.587  1.139084  4.585464  2.407995  4.425  1.189771  4.667792  2.330465  4.526  0.601309  1.1002  4.500298  2.463245  4.322
Mn  Mn2  1  0.60705062  0.50000149  0.23263211  1  1.240559  4.690638  1.911481  4.587  1.139134  4.585477  2.407931  4.425  1.189822  4.667801  2.330394  4.526  0.601334  1.100242  4.500316  2.46318  4.322
Mn  Mn3  1  0.39294816  0.49999970  0.76736745  1  1.240547  4.690634  1.911496  4.587  1.139094  4.585471  2.407979  4.425  1.189785  4.667797  2.330441  4.526  0.601311  1.100208  4.500303  2.463235  4.322
V  V4  1  0.55848483  0.00000172  0.12411649  1  1.982282  0.188616  2.965564  0.221  2.032577  0.214288  3.345541  0.254  2.127205  0.163626  3.331832  0.199  1.446486  1.962033  0.260941  3.364609  0.304
V  V5  1  0.44151463  0.99999882  0.87588327  1  1.982303  0.188518  2.965505  0.221  2.032574  0.214288  3.345519  0.254  2.127234  0.16363  3.331762  0.199  1.446508  1.962116  0.260936  3.364474  0.304
V  V6  1  0.05848284  0.49999883  0.37588327  1  1.982302  0.188538  2.965556  0.221  2.032608  0.214268  3.345521  0.254  2.127227  0.163613  3.331821  0.199  1.446525  1.962104  0.26091  3.36455  0.304
V  V7  1  0.94151393  0.50000073  0.62411629  1  1.98229  0.188568  2.965595  0.221  2.032601  0.214281  3.345559  0.254  2.127217  0.163626  3.331866  0.199  1.446533  1.962087  0.260926  3.36463  0.304
H  H8  1  0.54518042  0.13363956  0.35526645  1  0.297182  -0.000215  0.92949  0.001  0.291437  0.000779  0.982063  0.002  0.297292  0.000488  0.978091  0.002  0.294552  0.28726  0.001051  0.984806  0.002
H  H9  1  0.45482488  0.13362890  0.64473204  1  0.297117  -0.000221  0.92966  0.001  0.291381  0.000778  0.982211  0.002  0.297227  0.000487  0.978257  0.002  0.294588  0.28721  0.00105  0.984946  0.002
H  H10  1  0.04518318  0.36635936  0.14473401  1  0.297185  -0.000223  0.929486  0.001  0.291443  0.000779  0.982063  0.002  0.2973  0.000488  0.978086  0.002  0.294535  0.287269  0.001051  0.984801  0.002
H  H11  1  0.95482179  0.36636572  0.85526751  1  0.297139  -0.000225  0.9296  0.001  0.291401  0.000778  0.982149  0.002  0.29725  0.000487  0.978189  0.002  0.294574  0.287228  0.00105  0.984892  0.002
H  H12  1  0.45481235  0.86635673  0.64473310  1  0.297192  -0.000218  0.929494  0.001  0.291445  0.000779  0.982079  0.002  0.297305  0.000488  0.978096  0.002  0.294524  0.28727  0.001051  0.984817  0.002
H  H13  1  0.54517791  0.86636738  0.35526682  1  0.297176  -0.000217  0.929557  0.001  0.291442  0.000778  0.9821  0.002  0.297291  0.000487  0.978139  0.002  0.294581  0.287271  0.00105  0.984826  0.002
H  H14  1  0.95481760  0.63363692  0.85526695  1  0.297188  -0.000223  0.929506  0.001  0.291437  0.000779  0.982086  0.002  0.297294  0.000488  0.97811  0.002  0.294563  0.287263  0.001051  0.98482  0.002
H  H15  1  0.04517699  0.63363057  0.14473274  1  0.297161  -0.000223  0.929626  0.001  0.291434  0.000777  0.982152  0.002  0.29728  0.000487  0.978196  0.002  0.294601  0.287259  0.00105  0.984889  0.002
H  H16  1  0.25103362  0.14486218  0.48892023  1  0.054342  -0.000444  0.95712  0.0  0.067537  -0.000145  1.029483  0.0  0.06755  -0.000249  1.029938  0.0  0.106996  0.067753  -4e-05  1.02884  0.0
H  H17  1  0.74897166  0.14485875  0.51107968  1  0.054388  -0.000443  0.957102  0.0  0.067599  -0.000145  1.029452  0.0  0.067612  -0.000249  1.029908  0.0  0.107017  0.067814  -4e-05  1.028809  0.0
H  H18  1  0.75103339  0.35514147  0.01108087  1  0.054386  -0.000422  0.957141  0.0  0.067574  -0.000145  1.029505  0.0  0.06759  -0.000249  1.029961  0.0  0.107005  0.067791  -4e-05  1.02886  0.0
H  H19  1  0.24896959  0.35513933  0.98891994  1  0.054366  -0.000421  0.957094  0.0  0.067572  -0.000145  1.02946  0.0  0.067586  -0.000249  1.029914  0.0  0.107014  0.067786  -4e-05  1.028816  0.0
H  H20  1  0.74896315  0.85514065  0.51107863  1  0.054362  -0.000433  0.957146  0.0  0.067535  -0.000145  1.029532  0.0  0.067551  -0.000249  1.029986  0.0  0.106975  0.067751  -4e-05  1.028879  0.0
H  H21  1  0.25102712  0.85514408  0.48891988  1  0.054394  -0.000435  0.957071  0.0  0.067573  -0.000145  1.029448  0.0  0.067589  -0.000249  1.029901  0.0  0.107008  0.067791  -4e-05  1.028792  0.0
H  H22  1  0.24896739  0.64485646  0.98891938  1  0.054365  -0.000422  0.957168  0.0  0.067542  -0.000145  1.029551  0.0  0.067557  -0.000249  1.030005  0.0  0.106983  0.067755  -4e-05  1.028901  0.0
H  H23  1  0.75102918  0.64485860  0.01108032  1  0.054396  -0.000417  0.957098  0.0  0.067605  -0.000145  1.029451  0.0  0.067622  -0.000249  1.029907  0.0  0.107021  0.067821  -4e-05  1.0288  0.0
C  C24  1  0.37117916  0.00000434  0.47118790  1  0.062858  0.001888  3.625965  0.002  0.012065  0.003275  3.885227  0.003  0.015928  0.002547  3.899762  0.003  -0.066726  0.009381  0.004096  3.874618  0.004
C  C25  1  0.62881830  0.99999456  0.52881186  1  0.06275  0.001872  3.626041  0.002  0.011948  0.003275  3.885313  0.003  0.015809  0.002548  3.899847  0.003  -0.066743  0.009271  0.004096  3.874701  0.004
C  C26  1  0.87117868  0.49999103  0.02881247  1  0.062747  0.001812  3.625976  0.002  0.011946  0.003276  3.885256  0.003  0.015796  0.002545  3.899804  0.003  -0.066754  0.009265  0.004096  3.874648  0.004
C  C27  1  0.12882009  0.50000526  0.97118849  1  0.062838  0.001839  3.625979  0.002  0.012019  0.003274  3.885271  0.003  0.015886  0.002548  3.899803  0.003  -0.066731  0.009344  0.004096  3.874656  0.004
N  N28  1  0.42728684  0.99999587  0.37002052  1  -0.677124  0.026182  3.126029  0.009  -0.634124  0.027516  3.378444  0.005  -0.659383  0.025784  3.37777  0.004  -0.636043  -0.61451  0.030074  3.37721  0.008
N  N29  1  0.57271262  0.00001284  0.62997994  1  -0.677101  0.026205  3.126163  0.009  -0.634113  0.027519  3.378588  0.005  -0.659371  0.025788  3.377915  0.004  -0.636042  -0.614498  0.030077  3.377354  0.008
N  N30  1  0.92728813  0.50001089  0.12998053  1  -0.677117  0.026226  3.126073  0.009  -0.634145  0.027518  3.378522  0.005  -0.659398  0.02579  3.377847  0.004  -0.636088  -0.614526  0.030076  3.37728  0.008
N  N31  1  0.07271065  0.49999357  0.87002043  1  -0.677119  0.026214  3.126109  0.009  -0.634104  0.027518  3.378527  0.005  -0.659364  0.025787  3.377848  0.004  -0.636046  -0.614488  0.030075  3.377298  0.008
O  O32  1  0.41761818  0.22447101  0.17864559  1  -0.956534  0.046472  1.603363  0.012  -0.932022  0.070847  1.926177  0.027  -0.971403  0.062517  1.906985  0.02  -0.594633  -0.902319  0.080874  1.938881  0.036
O  O33  1  0.58238298  0.22446934  0.82135369  1  -0.956499  0.046502  1.603282  0.012  -0.931992  0.070847  1.926117  0.027  -0.971372  0.062516  1.906893  0.02  -0.594638  -0.902319  0.080878  1.938815  0.036
O  O34  1  0.91761731  0.27553086  0.32135406  1  -0.956542  0.046479  1.603334  0.012  -0.932053  0.070848  1.926186  0.027  -0.971412  0.062517  1.906951  0.02  -0.594667  -0.902382  0.080881  1.938908  0.036
O  O35  1  0.08238379  0.27553052  0.67864598  1  -0.956494  0.046465  1.60329  0.012  -0.93198  0.070844  1.926098  0.027  -0.971339  0.062512  1.906868  0.02  -0.594637  -0.902289  0.080875  1.938818  0.036
O  O36  1  0.58238260  0.77553019  0.82135326  1  -0.956529  0.046477  1.603326  0.012  -0.932016  0.070845  1.92616  0.027  -0.971404  0.062515  1.906956  0.02  -0.594647  -0.902328  0.080873  1.938843  0.036
O  O37  1  0.41761580  0.77553349  0.17864657  1  -0.956496  0.046472  1.603275  0.012  -0.931993  0.070846  1.926096  0.027  -0.971381  0.062517  1.906923  0.02  -0.59464  -0.902279  0.080873  1.938788  0.036
O  O38  1  0.08238147  0.72446870  0.67864550  1  -0.956515  0.046476  1.603372  0.012  -0.932031  0.070849  1.926223  0.027  -0.971432  0.062519  1.907074  0.02  -0.594654  -0.902334  0.080878  1.938936  0.036
O  O39  1  0.91761700  0.72446740  0.32135358  1  -0.95651  0.046475  1.603313  0.012  -0.932014  0.070846  1.926143  0.027  -0.971396  0.062515  1.906955  0.02  -0.594657  -0.902311  0.080874  1.93883  0.036
O  O40  1  0.89177959  0.99999999  0.14710766  1  -0.893039  0.00557  1.536841  -0.014  -0.884918  0.024626  1.845658  -0.001  -0.920725  0.014663  1.830052  -0.011  -0.607218  -0.859212  0.036879  1.856995  0.01
O  O41  1  0.10822119  0.99999793  0.85289260  1  -0.892986  0.005631  1.536805  -0.014  -0.884857  0.024622  1.845613  -0.001  -0.920676  0.014657  1.830001  -0.011  -0.607219  -0.859168  0.036873  1.856927  0.01
O  O42  1  0.39177766  0.50000026  0.35289340  1  -0.893  0.005621  1.536804  -0.014  -0.884881  0.024626  1.845598  -0.001  -0.920689  0.014664  1.829992  -0.011  -0.607224  -0.859171  0.036874  1.85692  0.01
O  O43  1  0.60821911  0.49999930  0.64710686  1  -0.892985  0.005613  1.536833  -0.014  -0.88486  0.024622  1.845627  -0.001  -0.920665  0.014658  1.830021  -0.011  -0.607225  -0.859155  0.036874  1.856971  0.01
O  O44  1  0.49999865  0.99999881  0.99999972  1  -1.011176  -0.009044  1.609229  -0.01  -1.037302  0.003735  1.923727  -0.001  -1.079484  0.000144  1.917115  -0.003  -0.703316  -1.006739  0.007883  1.929377  0.001
O  O45  1  0.99999973  0.49999874  0.49999970  1  -1.011182  -0.009037  1.609255  -0.01  -1.037314  0.003737  1.923733  -0.001  -1.079482  0.000145  1.917127  -0.003  -0.703311  -1.006744  0.007884  1.929398  0.001
