# generated using pymatgen
data_Cu2HCIN4
_symmetry_space_group_name_H-M   'P 1'
_cell_length_a   5.95651295
_cell_length_b   6.87383321
_cell_length_c   12.95447940
_cell_angle_alpha   89.99842004
_cell_angle_beta   90.00060235
_cell_angle_gamma   90.00006545
_symmetry_Int_Tables_number   1
_chemical_formula_structural   Cu2HCIN4
_chemical_formula_sum   'Cu8 H4 C4 I4 N16'
_cell_volume   530.40919531
_cell_formula_units_Z   4
loop_
 _symmetry_equiv_pos_site_id
 _symmetry_equiv_pos_as_xyz
  1  'x, y, z'
loop_
 _atom_site_type_symbol
 _atom_site_label
 _atom_site_symmetry_multiplicity
 _atom_site_fract_x
 _atom_site_fract_y
 _atom_site_fract_z
 _atom_site_occupancy
 _atom_site_hle17_bader_spin_density
 _atom_site_hle17_ddec_charge
 _atom_site_hle17_ddec_spin_density
 _atom_site_hle17_ddec_sum_bond_order
 _atom_site_hle17_magmom
 _atom_site_hse06_10hf_bader_spin_density
 _atom_site_hse06_10hf_ddec_charge
 _atom_site_hse06_10hf_ddec_spin_density
 _atom_site_hse06_10hf_ddec_sum_bond_order
 _atom_site_hse06_10hf_magmom
 _atom_site_hse06_bader_spin_density
 _atom_site_hse06_ddec_charge
 _atom_site_hse06_ddec_spin_density
 _atom_site_hse06_ddec_sum_bond_order
 _atom_site_hse06_magmom
 _atom_site_pbe_bader_spin_density
 _atom_site_pbe_cm5_charge
 _atom_site_pbe_ddec_charge
 _atom_site_pbe_ddec_spin_density
 _atom_site_pbe_ddec_sum_bond_order
 _atom_site_pbe_magmom
Cu  Cu0  1  0.28838013  0.00000730  0.00000312  1  0  0.250052  0  2.254284  0  0  0.151089  0  2.776355  0  0  0.157596  0  2.71689  0  0  0.365178  0.14906  0  2.815659  0
Cu  Cu1  1  0.71162312  0.50000981  0.50000214  1  0  0.250038  0  2.254339  0  0  0.151048  0  2.776474  0  0  0.157554  0  2.717011  0  0  0.365218  0.149027  0  2.815779  0
Cu  Cu2  1  0.71160503  0.99999630  0.99999766  1  0  0.250085  0  2.254296  0  0  0.151109  0  2.77642  0  0  0.15761  0  2.716949  0  0  0.365199  0.149088  0  2.815765  0
Cu  Cu3  1  0.28839227  0.50001414  0.50000250  1  0  0.250154  0  2.254317  0  0  0.151168  0  2.776447  0  0  0.157674  0  2.716976  0  0  0.365246  0.149147  0  2.815732  0
Cu  Cu4  1  0.49998887  0.44206838  0.12224221  1  0  0.376378  0  1.917348  0  0  0.261707  0  2.398097  0  0  0.274225  0  2.343582  0  0  0.403406  0.255084  0  2.434707  0
Cu  Cu5  1  0.50000133  0.55791776  0.87777247  1  0  0.376279  0  1.91748  0  0  0.261586  0  2.398251  0  0  0.274118  0  2.343742  0  0  0.403353  0.254945  0  2.434891  0
Cu  Cu6  1  0.50001169  0.05791062  0.62223679  1  0  0.376334  0  1.917191  0  0  0.261629  0  2.397915  0  0  0.274157  0  2.343399  0  0  0.403294  0.255003  0  2.43454  0
Cu  Cu7  1  0.50000705  0.94209734  0.37774701  1  0  0.37634  0  1.917467  0  0  0.261609  0  2.398224  0  0  0.274167  0  2.343731  0  0  0.403338  0.254986  0  2.434829  0
H  H8  1  0.99998678  0.62190549  0.16921317  1  0  0.113785  0  0.919465  0  0  0.123745  0  0.980635  0  0  0.126252  0  0.979119  0  0  0.133392  0.121729  0  0.982017  0
H  H9  1  0.00000007  0.37806610  0.83080073  1  0  0.113673  0  0.919423  0  0  0.123637  0  0.980579  0  0  0.126143  0  0.979069  0  0  0.133354  0.121623  0  0.981961  0
H  H10  1  0.00001087  0.87805268  0.66921042  1  0  0.113857  0  0.919467  0  0  0.123789  0  0.980643  0  0  0.126281  0  0.979146  0  0  0.133432  0.121775  0  0.982028  0
H  H11  1  0.00000669  0.12195228  0.33076981  1  0  0.113847  0  0.919341  0  0  0.12379  0  0.980544  0  0  0.126239  0  0.979092  0  0  0.133416  0.121777  0  0.981928  0
C  C12  1  0.99997618  0.47987960  0.13286133  1  0  0.184893  0  3.645286  0  0  0.130302  0  3.907224  0  0  0.138225  0  3.924223  0  0  0.144351  0.124934  0  3.896336  0
C  C13  1  0.99999842  0.52011244  0.86714919  1  0  0.185188  0  3.64494  0  0  0.130619  0  3.906888  0  0  0.13853  0  3.923882  0  0  0.144504  0.125254  0  3.89601  0
C  C14  1  0.00000780  0.02010165  0.63286514  1  0  0.184886  0  3.645155  0  0  0.130316  0  3.90711  0  0  0.138247  0  3.924115  0  0  0.144301  0.124946  0  3.896239  0
C  C15  1  0.99999751  0.97992231  0.36712869  1  0  0.184944  0  3.644702  0  0  0.130323  0  3.906664  0  0  0.138316  0  3.923703  0  0  0.144313  0.124945  0  3.895784  0
I  I16  1  0.49999974  0.83347631  0.15576343  1  0  -0.387472  0  1.87908  0  0  -0.344262  0  2.420657  0  0  -0.355338  0  2.362471  0  0  -0.178527  -0.336711  0  2.459856  0
I  I17  1  0.49999382  0.16651564  0.84423117  1  0  -0.387388  0  1.878968  0  0  -0.344111  0  2.420441  0  0  -0.355195  0  2.362268  0  0  -0.17848  -0.33655  0  2.459644  0
I  I18  1  0.50001107  0.66649578  0.65576985  1  0  -0.387436  0  1.879058  0  0  -0.344152  0  2.42054  0  0  -0.355234  0  2.362362  0  0  -0.17849  -0.336594  0  2.459722  0
I  I19  1  0.49999928  0.33351509  0.34423479  1  0  -0.387505  0  1.879054  0  0  -0.344207  0  2.420493  0  0  -0.355284  0  2.362308  0  0  -0.178534  -0.336661  0  2.459671  0
N  N20  1  0.11073176  0.21388309  0.06288154  1  0  -0.040426  0  3.241676  0  0  -0.000173  0  3.553173  0  0  0.002073  0  3.554335  0  0  -0.155853  -0.002695  0  3.553521  0
N  N21  1  0.11075095  0.78610589  0.93712170  1  0  -0.040579  0  3.242106  0  0  -0.000412  0  3.553637  0  0  0.001834  0  3.554808  0  0  -0.15597  -0.002932  0  3.553984  0
N  N22  1  0.88927102  0.28611849  0.56287482  1  0  -0.040362  0  3.241441  0  0  -0.000177  0  3.552982  0  0  0.002067  0  3.554147  0  0  -0.155794  -0.002702  0  3.55334  0
N  N23  1  0.88927201  0.71389826  0.43711810  1  0  -0.040282  0  3.241511  0  0  -5.3e-05  0  3.552963  0  0  0.002184  0  3.554155  0  0  -0.155787  -0.002579  0  3.553316  0
N  N24  1  0.88926348  0.78610741  0.93712001  1  0  -0.040424  0  3.241628  0  0  -0.000154  0  3.553043  0  0  0.002065  0  3.554228  0  0  -0.155806  -0.002677  0  3.553412  0
N  N25  1  0.88925269  0.21387588  0.06288063  1  0  -0.04046  0  3.241473  0  0  -0.000372  0  3.553091  0  0  0.001887  0  3.554231  0  0  -0.15589  -0.0029  0  3.553464  0
N  N26  1  0.11075108  0.71390110  0.43711901  1  0  -0.040348  0  3.241701  0  0  -0.000206  0  3.553209  0  0  0.002068  0  3.554385  0  0  -0.155787  -0.002732  0  3.55355  0
N  N27  1  0.11076017  0.28611261  0.56287419  1  0  -0.040376  0  3.241827  0  0  -0.000256  0  3.55344  0  0  0.002  0  3.554586  0  0  -0.155869  -0.002784  0  3.55379  0
N  N28  1  0.18492512  0.38034055  0.10637305  1  0  -0.228413  0  3.331132  0  0  -0.161101  0  3.639464  0  0  -0.172544  0  3.645693  0  0  -0.278029  -0.154337  0  3.636207  0
N  N29  1  0.18493131  0.61965426  0.89364218  1  0  -0.228346  0  3.331205  0  0  -0.16106  0  3.639547  0  0  -0.172482  0  3.645765  0  0  -0.278019  -0.154294  0  3.636289  0
N  N30  1  0.81506675  0.11964816  0.60637252  1  0  -0.228489  0  3.331096  0  0  -0.161111  0  3.63937  0  0  -0.172558  0  3.645599  0  0  -0.278085  -0.154347  0  3.636123  0
N  N31  1  0.81505555  0.88036276  0.39362153  1  0  -0.22859  0  3.331208  0  0  -0.161223  0  3.639506  0  0  -0.172687  0  3.64575  0  0  -0.278126  -0.154456  0  3.636247  0
N  N32  1  0.81504830  0.61963249  0.89363390  1  0  -0.228487  0  3.331235  0  0  -0.161189  0  3.639551  0  0  -0.17261  0  3.645776  0  0  -0.278077  -0.154425  0  3.636298  0
N  N33  1  0.81504210  0.38034060  0.10637250  1  0  -0.228318  0  3.331101  0  0  -0.160953  0  3.639401  0  0  -0.172381  0  3.645609  0  0  -0.278055  -0.154187  0  3.636143  0
N  N34  1  0.18495871  0.88035689  0.39362440  1  0  -0.228538  0  3.330817  0  0  -0.161132  0  3.639096  0  0  -0.172612  0  3.645342  0  0  -0.278091  -0.154366  0  3.635838  0
N  N35  1  0.18493298  0.11965829  0.60636690  1  0  -0.228494  0  3.331372  0  0  -0.161162  0  3.639701  0  0  -0.172589  0  3.645903  0  0  -0.278025  -0.154392  0  3.636444  0
