# generated using pymatgen
data_Zn4H24C28S2Br2O13
_symmetry_space_group_name_H-M   'P 1'
_cell_length_a   17.88476042
_cell_length_b   18.60118445
_cell_length_c   19.45248066
_cell_angle_alpha   118.85010330
_cell_angle_beta   116.25453749
_cell_angle_gamma   89.93398128
_symmetry_Int_Tables_number   1
_chemical_formula_structural   Zn4H24C28S2Br2O13
_chemical_formula_sum   'Zn8 H48 C56 S4 Br4 O26'
_cell_volume   4894.29692733
_cell_formula_units_Z   2
loop_
 _symmetry_equiv_pos_site_id
 _symmetry_equiv_pos_as_xyz
  1  'x, y, z'
loop_
 _atom_site_type_symbol
 _atom_site_label
 _atom_site_symmetry_multiplicity
 _atom_site_fract_x
 _atom_site_fract_y
 _atom_site_fract_z
 _atom_site_occupancy
 _atom_site_pbe_bader_charge
 _atom_site_pbe_bader_spin_density
 _atom_site_pbe_cm5_charge
 _atom_site_pbe_ddec_charge
 _atom_site_pbe_ddec_spin_density
 _atom_site_pbe_ddec_sum_bond_order
 _atom_site_pbe_magmom
Zn  Zn0  1  0.86964406  0.45794294  0.92142192  1  1.319175  0  0.668684  0.957526  0  2.383198  0
Zn  Zn1  1  0.03648754  0.44867303  0.06823414  1  1.322534  0  0.66747  0.95641  0  2.386882  0
Zn  Zn2  1  0.03147981  0.61928452  0.06496967  1  1.311539  0  0.668305  0.954104  0  2.408682  0
Zn  Zn3  1  0.04597912  0.45619159  0.90908807  1  1.310089  0  0.670122  0.970168  0  2.325735  0
Zn  Zn4  1  0.62237540  0.03101711  0.06509802  1  1.303757  0  0.668345  0.957526  0  2.389913  0
Zn  Zn5  1  0.45795816  0.87185659  0.91520881  1  1.301326  0  0.668456  0.953838  0  2.407285  0
Zn  Zn6  1  0.46190867  0.04172950  0.91269846  1  1.318707  0  0.668145  0.957679  0  2.386406  0
Zn  Zn7  1  0.44146943  0.03637807  0.06785195  1  1.318186  0  0.669234  0.968092  0  2.325828  0
H  H8  1  0.78467671  0.68350313  0.87937349  1  0.020841  0  0.092234  0.087476  0  0.976905  0
H  H9  1  0.87058034  0.76907662  0.98326661  1  0.058965  0  0.093324  0.092253  0  0.982953  0
H  H10  1  0.78070505  0.86021849  0.97957986  1  0.049771  0  0.092874  0.091861  0  0.983341  0
H  H11  1  0.69501626  0.77379762  0.87636851  1  0.036535  0  0.09227  0.087382  0  0.979229  0
H  H12  1  0.80209958  0.89295537  0.12921518  1  0.05262  0  0.092213  0.092854  0  0.988291  0
H  H13  1  0.73117196  0.83163598  0.13361346  1  -0.000417  0  0.089932  0.084453  0  0.978363  0
H  H14  1  0.89091191  0.80039711  0.13253996  1  0.027525  0  0.09256  0.093934  0  0.989507  0
H  H15  1  0.81825425  0.73863538  0.13481418  1  0.009143  0  0.090128  0.084821  0  0.978498  0
H  H16  1  0.68080993  0.59242686  0.88203718  1  0.05887  0  0.090233  0.089534  0  0.986542  0
H  H17  1  0.69489968  0.61465343  0.98627093  1  0.009075  0  0.089613  0.086545  0  0.979941  0
H  H18  1  0.60599684  0.70675255  0.98455501  1  0.017593  0  0.089585  0.087012  0  0.981838  0
H  H19  1  0.59175175  0.68416333  0.88016933  1  0.046673  0  0.090861  0.090891  0  0.987133  0
H  H20  1  0.09132910  0.18290326  0.87015803  1  0.030786  0  0.091523  0.086586  0  0.980262  0
H  H21  1  0.10932663  0.20897324  0.97763118  1  0.045595  0  0.093108  0.092311  0  0.984535  0
H  H22  1  0.19827616  0.11674383  0.97876687  1  0.035727  0  0.0924  0.090501  0  0.984399  0
H  H23  1  0.18007839  0.09160751  0.87153651  1  0.047148  0  0.090732  0.085037  0  0.979209  0
H  H24  1  0.32132264  0.23916081  0.12207867  1  0.035948  0  0.09317  0.094525  0  0.986229  0
H  H25  1  0.39273641  0.30110253  0.11866880  1  -0.00436  0  0.089744  0.083939  0  0.979284  0
H  H26  1  0.23390328  0.33296217  0.12146342  1  0.038133  0  0.092975  0.095118  0  0.987774  0
H  H27  1  0.30461273  0.39297426  0.11554411  1  0.022502  0  0.089688  0.08353  0  0.980435  0
H  H28  1  0.19095909  0.27050885  0.86105303  1  0.041915  0  0.090172  0.089203  0  0.984187  0
H  H29  1  0.27777973  0.35663002  0.96079089  1  0.058622  0  0.089854  0.086751  0  0.981028  0
H  H30  1  0.36737381  0.26537639  0.96345376  1  0.002758  0  0.089584  0.086684  0  0.981261  0
H  H31  1  0.28079104  0.17937627  0.86340011  1  0.040799  0  0.091673  0.092179  0  0.983874  0
H  H32  1  0.82436655  0.19367121  0.91434188  1  0.021397  0  0.091468  0.085752  0  0.978949  0
H  H33  1  0.73322669  0.22295045  0.85862453  1  0.057204  0  0.093354  0.092386  0  0.982721  0
H  H34  1  0.64435184  0.12700231  0.85437355  1  0.016879  0  0.093733  0.093477  0  0.982526  0
H  H35  1  0.73611232  0.09899323  0.91116956  1  0.025376  0  0.091406  0.086306  0  0.979557  0
H  H36  1  0.59737373  0.24835683  0.94397181  1  0.041295  0  0.092836  0.094251  0  0.986852  0
H  H37  1  0.65461566  0.30579011  0.06392159  1  0.011151  0  0.089525  0.083495  0  0.978849  0
H  H38  1  0.68727813  0.34491265  0.94940765  1  0.028424  0  0.093169  0.095097  0  0.986121  0
H  H39  1  0.74467785  0.40085944  0.06923967  1  0.005757  0  0.089493  0.083654  0  0.979869  0
H  H40  1  0.90853429  0.27547000  0.08760592  1  0.039016  0  0.090776  0.091256  0  0.985208  0
H  H41  1  0.87588694  0.36008539  0.15051619  1  0.009722  0  0.090338  0.088066  0  0.978542  0
H  H42  1  0.78639609  0.26481867  0.14642055  1  0.031544  0  0.08944  0.086133  0  0.982692  0
H  H43  1  0.81893330  0.18026615  0.08345116  1  0.039492  0  0.090419  0.089725  0  0.984397  0
H  H44  1  0.08673702  0.71862458  0.90138412  1  0.005358  0  0.091393  0.086976  0  0.979281  0
H  H45  1  0.12295652  0.63444561  0.84141129  1  0.03287  0  0.093632  0.092721  0  0.980371  0
H  H46  1  0.21009359  0.73119030  0.84488613  1  0.055449  0  0.093674  0.093387  0  0.984312  0
H  H47  1  0.17558596  0.81529025  0.90737877  1  0.007739  0  0.091195  0.086045  0  0.978048  0
H  H48  1  0.33935354  0.69063512  0.92596886  1  0.029833  0  0.093249  0.095615  0  0.986831  0
H  H49  1  0.39879955  0.74733748  0.04577990  1  0.003602  0  0.089094  0.083242  0  0.980559  0
H  H50  1  0.25173594  0.59590501  0.92478676  1  0.042462  0  0.092756  0.094332  0  0.985583  0
H  H51  1  0.31058904  0.65437591  0.04462687  1  0.032192  0  0.089583  0.08401  0  0.97963  0
H  H52  1  0.17004285  0.80399957  0.07442226  1  0.02902  0  0.090465  0.091265  0  0.987047  0
H  H53  1  0.26022343  0.77730311  0.13360127  1  0.025698  0  0.0893  0.086204  0  0.981282  0
H  H54  1  0.35125022  0.87035066  0.13686680  1  0.029118  0  0.090053  0.087804  0  0.979806  0
H  H55  1  0.26125207  0.89905702  0.08027632  1  0.033794  0  0.090417  0.09021  0  0.984669  0
C  C56  1  0.85804543  0.36417608  0.00347010  1  1.525486  0  0.233753  0.599106  0  4.102434  0
C  C57  1  0.12065774  0.62024657  0.23531714  1  1.59067  0  0.215364  0.620387  0  4.213294  0
C  C58  1  0.85477993  0.63595031  0.99982336  1  1.528574  0  0.234367  0.600454  0  4.100503  0
C  C59  1  0.13528793  0.63084267  0.98394649  1  1.542516  0  0.236122  0.604157  0  4.095031  0
C  C60  1  0.86941614  0.37299375  0.74676086  1  1.60933  0  0.215624  0.621582  0  4.20748  0
C  C61  1  0.13624042  0.35486879  0.98442688  1  1.527518  0  0.234319  0.602769  0  4.095765  0
C  C62  1  0.63817038  0.85705792  0.99496624  1  1.523215  0  0.235042  0.602769  0  4.097065  0
C  C63  1  0.38118033  0.87075431  0.74531615  1  1.587282  0  0.213957  0.618131  0  4.213723  0
C  C64  1  0.64119683  0.13552846  0.99485196  1  1.538088  0  0.235223  0.602874  0  4.098518  0
C  C65  1  0.35351156  0.13338949  0.98794111  1  1.548195  0  0.235451  0.603696  0  4.093052  0
C  C66  1  0.61290225  0.11732720  0.23527181  1  1.570704  0  0.214588  0.620833  0  4.207358  0
C  C67  1  0.35144611  0.85803098  0.98936711  1  1.567966  0  0.234975  0.602647  0  4.09708  0
C  C68  1  0.72740731  0.29451900  0.58962890  1  -0.079326  0  -0.023983  0.061067  0  3.995491  0
C  C69  1  0.75323821  0.19598353  0.39279303  1  -0.01281  0  -0.02432  0.060615  0  3.994834  0
C  C70  1  0.81687361  0.32303801  0.64678725  1  -0.140145  0  -0.02991  -0.170993  0  3.933492  0
C  C71  1  0.66383517  0.16754483  0.33533394  1  -0.083852  0  -0.02976  -0.170729  0  3.931709  0
C  C72  1  0.77632850  0.24246489  0.48530318  1  -0.138029  0  -0.030093  -0.060603  0  4.104514  0
C  C73  1  0.70397397  0.24846560  0.49693621  1  -0.077022  0  -0.030375  -0.06201  0  4.099388  0
C  C74  1  0.20063381  0.75901338  0.39555990  1  -0.034201  0  -0.02296  0.063255  0  3.99796  0
C  C75  1  0.29844799  0.73187926  0.58523417  1  -0.099867  0  -0.023333  0.061993  0  3.996676  0
C  C76  1  0.17048696  0.67113028  0.33514332  1  -0.061082  0  -0.029946  -0.171827  0  3.942399  0
C  C77  1  0.32958332  0.81978322  0.64558295  1  -0.070607  0  -0.028982  -0.169421  0  3.940497  0
C  C78  1  0.25139205  0.70959031  0.49402644  1  -0.081342  0  -0.030171  -0.061407  0  4.102813  0
C  C79  1  0.24719517  0.78124721  0.48676222  1  -0.183026  0  -0.031558  -0.064788  0  4.108194  0
C  C80  1  0.80256995  0.73455840  0.94886878  1  -0.047278  0  -0.155881  -0.170126  0  3.846399  0
C  C81  1  0.74305383  0.79500947  0.94683875  1  -0.062003  0  -0.15516  -0.169134  0  3.851633  0
C  C82  1  0.69527984  0.79649287  0.99707198  1  0.037793  0  -0.015657  0.021546  0  3.810743  0
C  C83  1  0.76402057  0.82790330  0.09615305  1  -0.001366  0  -0.158688  -0.171929  0  3.859752  0
C  C84  1  0.82262858  0.76657475  0.09767594  1  -0.015202  0  -0.158192  -0.172134  0  3.860813  0
C  C85  1  0.79484768  0.69404982  0.99964828  1  0.072253  0  -0.016798  0.02057  0  3.812978  0
C  C86  1  0.70012529  0.64472860  0.95127836  1  -0.040277  0  -0.164371  -0.175501  0  3.886133  0
C  C87  1  0.64125180  0.70554444  0.95007387  1  -0.008882  0  -0.16537  -0.178789  0  3.88969  0
C  C88  1  0.14201627  0.20569966  0.94025633  1  -0.058345  0  -0.155498  -0.171635  0  3.850007  0
C  C89  1  0.20118336  0.14467345  0.94119280  1  -0.041176  0  -0.154154  -0.166107  0  3.850921  0
C  C90  1  0.29600637  0.19392669  0.98642583  1  0.04456  0  -0.01677  0.019765  0  3.809338  0
C  C91  1  0.32454872  0.26688715  0.08450587  1  -0.002212  0  -0.158641  -0.172334  0  3.865482  0
C  C92  1  0.26603408  0.32819812  0.08326854  1  -0.02941  0  -0.1589  -0.172875  0  3.862668  0
C  C93  1  0.19622834  0.29653785  0.98439139  1  0.060725  0  -0.015801  0.023595  0  3.807297  0
C  C94  1  0.24054921  0.29214013  0.93103737  1  -0.063299  0  -0.164238  -0.176766  0  3.886259  0
C  C95  1  0.29988795  0.23163750  0.93259780  1  -0.003901  0  -0.165601  -0.178389  0  3.882998  0
C  C96  1  0.76834039  0.21638462  0.91716282  1  -0.048445  0  -0.154433  -0.167916  0  3.846922  0
C  C97  1  0.70932884  0.15312878  0.91458875  1  6.3e-05  0  -0.1545  -0.168707  0  3.852207  0
C  C98  1  0.70129898  0.19894504  0.00090001  1  0.040707  0  -0.016823  0.019177  0  3.812809  0
C  C99  1  0.66241957  0.27389902  0.00388900  1  -0.01332  0  -0.159026  -0.172727  0  3.862304  0
C  C100  1  0.72196884  0.33726848  0.00716076  1  -0.008456  0  -0.158686  -0.172685  0  3.862828  0
C  C101  1  0.80120195  0.30529990  0.00556733  1  0.047173  0  -0.016292  0.023783  0  3.808736  0
C  C102  1  0.85132063  0.29678075  0.08777458  1  -0.004277  0  -0.164364  -0.179112  0  3.883701  0
C  C103  1  0.79200290  0.23378656  0.08509589  1  -0.035619  0  -0.164727  -0.176411  0  3.884225  0
C  C104  1  0.14489309  0.69824689  0.90283466  1  -0.01141  0  -0.154214  -0.170059  0  3.846759  0
C  C105  1  0.20365198  0.76219395  0.90567402  1  -0.030749  0  -0.154638  -0.168788  0  3.846027  0
C  C106  1  0.29487775  0.79831336  0.99098098  1  0.035031  0  -0.016192  0.020995  0  3.813303  0
C  C107  1  0.33300782  0.72260246  0.98673601  1  0.001768  0  -0.159421  -0.173289  0  3.85898  0
C  C108  1  0.27445427  0.66017576  0.98558628  1  -0.041761  0  -0.159578  -0.174483  0  3.865766  0
C  C109  1  0.19539613  0.69228093  0.98746299  1  0.054129  0  -0.016133  0.021813  0  3.805634  0
C  C110  1  0.22661072  0.78176292  0.07344439  1  -0.016006  0  -0.165002  -0.177742  0  3.88403  0
C  C111  1  0.28648831  0.84415685  0.07621740  1  -0.021574  0  -0.164808  -0.178497  0  3.891465  0
S  S112  1  0.87243468  0.29325918  0.58699127  1  0.296945  0  0.0893  0.149976  0  2.786207  0
S  S113  1  0.60797092  0.19793633  0.39485909  1  0.300951  0  0.09054  0.151111  0  2.770252  0
S  S114  1  0.19874571  0.61549481  0.38985643  1  0.31013  0  0.090711  0.152785  0  2.787577  0
S  S115  1  0.30057614  0.87535483  0.59082536  1  0.3077  0  0.090876  0.152722  0  2.790767  0
Br  Br116  1  0.64281293  0.31148115  0.62407032  1  0.005705  0  0.044038  -0.010463  0  1.391278  0
Br  Br117  1  0.83874724  0.17928859  0.35960894  1  0.007306  0  0.046564  -0.007904  0  1.397942  0
Br  Br118  1  0.18556344  0.84298971  0.36698084  1  0.009179  0  0.046363  -0.008302  0  1.391044  0
Br  Br119  1  0.31280612  0.64800500  0.61397954  1  0.010533  0  0.044895  -0.009959  0  1.390821  0
O  O120  1  0.99681463  0.49437234  0.98971893  1  -1.240316  0  -0.572058  -1.026294  0  2.533965  0
O  O121  1  0.81963094  0.38553037  0.94585916  1  -1.165938  0  -0.315856  -0.549939  0  2.34942  0
O  O122  1  0.10497768  0.53927171  0.19832288  1  -1.144559  0  -0.319121  -0.540818  0  2.324842  0
O  O123  1  0.93598612  0.67246209  0.04957570  1  -1.17478  0  -0.316552  -0.548103  0  2.353302  0
O  O124  1  0.93946219  0.38601866  0.05727887  1  -1.174451  0  -0.312459  -0.544083  0  2.360687  0
O  O125  1  0.82008640  0.55575163  0.94939886  1  -1.17738  0  -0.311923  -0.544693  0  2.360014  0
O  O126  1  0.09796146  0.66040880  0.19505239  1  -1.175032  0  -0.314721  -0.537402  0  2.381249  0
O  O127  1  0.10522618  0.66446860  0.03728796  1  -1.18234  0  -0.314736  -0.548471  0  2.386685  0
O  O128  1  0.95168098  0.38993624  0.78017597  1  -1.152325  0  -0.320092  -0.545668  0  2.313447  0
O  O129  1  0.11837042  0.55104177  0.92758798  1  -1.180298  0  -0.316111  -0.551108  0  2.320246  0
O  O130  1  0.82890305  0.39458370  0.79036670  1  -1.174481  0  -0.315686  -0.538658  0  2.377956  0
O  O131  1  0.10585368  0.37070671  0.03710599  1  -1.174253  0  -0.317429  -0.553016  0  2.357679  0
O  O132  1  0.12018267  0.38260128  0.93224082  1  -1.181283  0  -0.312007  -0.547138  0  2.341152  0
O  O133  1  0.49553881  0.99670481  0.99174571  1  -1.221202  0  -0.57177  -1.025552  0  2.535779  0
O  O134  1  0.67635879  0.93650293  0.04173893  1  -1.174238  0  -0.316419  -0.54934  0  2.339557  0
O  O135  1  0.40505385  0.83067438  0.78561224  1  -1.173303  0  -0.314578  -0.536922  0  2.38105  0
O  O136  1  0.56130700  0.11169813  0.93443147  1  -1.18158  0  -0.317593  -0.553481  0  2.348175  0
O  O137  1  0.55651922  0.82405209  0.94612160  1  -1.166356  0  -0.313142  -0.546286  0  2.371326  0
O  O138  1  0.67479784  0.11025929  0.04940268  1  -1.166092  0  -0.312205  -0.542962  0  2.361317  0
O  O139  1  0.39737928  0.95174820  0.78230923  1  -1.164567  0  -0.318485  -0.540408  0  2.325545  0
O  O140  1  0.38485304  0.11320180  0.93572044  1  -1.185405  0  -0.313919  -0.546786  0  2.370508  0
O  O141  1  0.53051060  0.10367483  0.19926351  1  -1.14775  0  -0.31894  -0.542377  0  2.299517  0
O  O142  1  0.36561734  0.10726873  0.04104572  1  -1.16526  0  -0.316755  -0.553715  0  2.328811  0
O  O143  1  0.65548763  0.09207719  0.19407887  1  -1.166251  0  -0.31557  -0.5403  0  2.390203  0
O  O144  1  0.37245811  0.82265968  0.92813322  1  -1.184651  0  -0.317972  -0.550776  0  2.358006  0
O  O145  1  0.37274292  0.93781695  0.04742708  1  -1.184298  0  -0.312004  -0.547464  0  2.344889  0
