# generated using pymatgen
data_AgH3C4N2O
_symmetry_space_group_name_H-M   'P 1'
_cell_length_a   5.27071835
_cell_length_b   7.58435878
_cell_length_c   11.27422924
_cell_angle_alpha   97.90917009
_cell_angle_beta   90.00156319
_cell_angle_gamma   89.99943032
_symmetry_Int_Tables_number   1
_chemical_formula_structural   AgH3C4N2O
_chemical_formula_sum   'Ag4 H12 C16 N8 O4'
_cell_volume   446.40034140
_cell_formula_units_Z   4
loop_
 _symmetry_equiv_pos_site_id
 _symmetry_equiv_pos_as_xyz
  1  'x, y, z'
loop_
 _atom_site_type_symbol
 _atom_site_label
 _atom_site_symmetry_multiplicity
 _atom_site_fract_x
 _atom_site_fract_y
 _atom_site_fract_z
 _atom_site_occupancy
 _atom_site_pbe_bader_spin_density
 _atom_site_pbe_cm5_charge
 _atom_site_pbe_ddec_charge
 _atom_site_pbe_ddec_spin_density
 _atom_site_pbe_ddec_sum_bond_order
 _atom_site_pbe_magmom
Ag  Ag0  1  0.74177919  0.09855596  0.45090719  1  0  0.446792  0.343368  0  1.872213  0
Ag  Ag1  1  0.24181560  0.40144998  0.04908785  1  0  0.446849  0.343435  0  1.872216  0
Ag  Ag2  1  0.25821016  0.90144444  0.54908567  1  0  0.446837  0.34341  0  1.872291  0
Ag  Ag3  1  0.75820411  0.59855167  0.95091045  1  0  0.446845  0.34351  0  1.872009  0
H  H4  1  0.62059719  0.80724231  0.21738346  1  0  0.119913  0.060045  0  1.058969  0
H  H5  1  0.12061888  0.69274678  0.28261986  1  0  0.119948  0.060154  0  1.059101  0
H  H6  1  0.37940734  0.19275133  0.78261582  1  0  0.119993  0.060233  0  1.059122  0
H  H7  1  0.87938754  0.30723629  0.71737305  1  0  0.119914  0.060069  0  1.059142  0
H  H8  1  0.42517282  0.06269191  0.11512224  1  0  0.105523  0.144001  0  1.026939  0
H  H9  1  0.92517844  0.43732241  0.38488738  1  0  0.105585  0.144049  0  1.026916  0
H  H10  1  0.57484310  0.93732700  0.88488044  1  0  0.105606  0.144043  0  1.02693  0
H  H11  1  0.07480143  0.56266310  0.61511996  1  0  0.105524  0.143952  0  1.02699  0
H  H12  1  0.19565121  0.17647577  0.30499984  1  0  0.114392  0.104303  0  1.060219  0
H  H13  1  0.69567343  0.32352618  0.19500578  1  0  0.114381  0.104261  0  1.060101  0
H  H14  1  0.80435522  0.82353241  0.69500709  1  0  0.114397  0.104306  0  1.060152  0
H  H15  1  0.30433490  0.67646741  0.80499615  1  0  0.114366  0.104277  0  1.060002  0
C  C16  1  0.80455591  0.86029071  0.19698403  1  0  0.162603  0.237411  0  4.002572  0
C  C17  1  0.30454930  0.63970577  0.30301160  1  0  0.162459  0.237189  0  4.002393  0
C  C18  1  0.19548088  0.13972691  0.80301585  1  0  0.162446  0.237019  0  4.002553  0
C  C19  1  0.69544195  0.36029195  0.69698188  1  0  0.162562  0.237309  0  4.002686  0
C  C20  1  0.15379437  0.84830418  0.06571713  1  0  0.195553  0.495686  0  4.167365  0
C  C21  1  0.65380356  0.65170738  0.43428971  1  0  0.195499  0.495404  0  4.167646  0
C  C22  1  0.84621965  0.15171353  0.93427655  1  0  0.195437  0.495181  0  4.168099  0
C  C23  1  0.34617062  0.34827681  0.56571662  1  0  0.195429  0.49533  0  4.168015  0
C  C24  1  0.24945797  0.00157258  0.14037963  1  0  -0.112218  -0.29717  0  3.941645  0
C  C25  1  0.74947060  0.49842382  0.35962697  1  0  -0.112304  -0.296993  0  3.941669  0
C  C26  1  0.75054466  0.99844109  0.85961720  1  0  -0.112314  -0.297076  0  3.941543  0
C  C27  1  0.25051496  0.50156039  0.64037846  1  0  -0.112272  -0.297029  0  3.94192  0
C  C28  1  0.12204916  0.06602835  0.24283415  1  0  0.028603  0.10381  0  3.963558  0
C  C29  1  0.62206405  0.43398711  0.25717901  1  0  0.028652  0.103747  0  3.964219  0
C  C30  1  0.87795917  0.93398259  0.75716684  1  0  0.028645  0.103828  0  3.963545  0
C  C31  1  0.37794238  0.56599852  0.74282036  1  0  0.028722  0.1038  0  3.964249  0
N  N32  1  0.89901693  0.99303554  0.27546531  1  0  -0.3696  -0.277717  0  3.548181  0
N  N33  1  0.39903976  0.50695513  0.22453798  1  0  -0.369563  -0.277619  0  3.548445  0
N  N34  1  0.10097812  0.00696614  0.72453122  1  0  -0.369556  -0.277656  0  3.547906  0
N  N35  1  0.60096857  0.49303323  0.77545811  1  0  -0.369652  -0.277643  0  3.5487  0
N  N36  1  0.91563498  0.78697094  0.09574443  1  0  -0.36916  -0.366085  0  3.503807  0
N  N37  1  0.41565247  0.71302616  0.40426946  1  0  -0.369048  -0.365921  0  3.503762  0
N  N38  1  0.08436386  0.21304271  0.90425417  1  0  -0.369073  -0.365755  0  3.504178  0
N  N39  1  0.58432740  0.28695814  0.59572978  1  0  -0.368979  -0.365865  0  3.503679  0
O  O40  1  0.27068564  0.76744401  0.97701150  1  0  -0.322437  -0.54777  0  2.297057  0
O  O41  1  0.77068728  0.73254504  0.52300713  1  0  -0.322435  -0.547668  0  2.297229  0
O  O42  1  0.72933027  0.23258300  0.02298489  1  0  -0.322447  -0.547568  0  2.297172  0
O  O43  1  0.22928880  0.26743908  0.47700362  1  0  -0.322417  -0.547594  0  2.297406  0
