# generated using pymatgen
data_AlH9C27N7(O2F)3
_symmetry_space_group_name_H-M   'P 1'
_cell_length_a   3.93654335
_cell_length_b   18.19837042
_cell_length_c   18.17015150
_cell_angle_alpha   120.99366369
_cell_angle_beta   95.75722910
_cell_angle_gamma   94.36965757
_symmetry_Int_Tables_number   1
_chemical_formula_structural   AlH9C27N7(O2F)3
_chemical_formula_sum   'Al1 H9 C27 N7 O6 F3'
_cell_volume   1097.66453060
_cell_formula_units_Z   1
loop_
 _symmetry_equiv_pos_site_id
 _symmetry_equiv_pos_as_xyz
  1  'x, y, z'
loop_
 _atom_site_type_symbol
 _atom_site_label
 _atom_site_symmetry_multiplicity
 _atom_site_fract_x
 _atom_site_fract_y
 _atom_site_fract_z
 _atom_site_occupancy
 _atom_site_pbe_bader_charge
 _atom_site_pbe_bader_spin_density
 _atom_site_pbe_cm5_charge
 _atom_site_pbe_ddec_charge
 _atom_site_pbe_ddec_spin_density
 _atom_site_pbe_ddec_sum_bond_order
 _atom_site_pbe_magmom
Al  Al0  1  0.00663240  0.00089677  0.49596696  1  2.504479  0  0.426008  1.58801  0  2.58633  0
H  H1  1  0.52554755  0.31548062  0.41961426  1  0.163009  0  0.112791  0.120191  0  0.99544  0
H  H2  1  0.72826283  0.08725878  0.89640381  1  0.086753  0  0.112688  0.122347  0  0.992676  0
H  H3  1  0.57983706  0.60587745  0.19233402  1  0.12247  0  0.113114  0.122228  0  0.996952  0
H  H4  1  0.48832734  0.31495142  0.89723572  1  0.13903  0  0.120552  0.149249  0  0.984937  0
H  H5  1  0.74428684  0.01219340  0.73602862  1  0.116782  0  0.118064  0.125819  0  0.967875  0
H  H6  1  0.58833023  0.76693642  0.27522601  1  0.125494  0  0.119132  0.128857  0  0.966912  0
H  H7  1  0.30591750  0.59911865  0.41296309  1  0.137391  0  0.120087  0.149733  0  0.980016  0
H  H8  1  0.47554771  0.07406527  0.17605326  1  0.10982  0  0.120593  0.148498  0  0.981926  0
H  H9  1  0.53984751  0.23540466  0.49802649  1  0.08155  0  0.118523  0.125827  0  0.962839  0
C  C10  1  0.49778108  0.06328239  0.42826891  1  1.589679  0  0.28284  0.677675  0  4.057447  0
C  C11  1  0.58481085  0.07093182  0.62998336  1  1.630539  0  0.280185  0.671365  0  4.059592  0
C  C12  1  0.44068286  0.86799831  0.43271794  1  1.555717  0  0.280638  0.672708  0  4.056198  0
C  C13  1  0.51380999  0.24536021  0.38425921  1  -0.093262  0  -0.077397  -0.106938  0  3.957786  0
C  C14  1  0.49902914  0.19999911  0.29350417  1  -0.013475  0  -0.001717  0.029653  0  3.977456  0
C  C15  1  0.67945912  0.11985231  0.86108644  1  -0.01431  0  -0.079106  -0.113774  0  3.952783  0
C  C16  1  0.60651674  0.20531511  0.90646389  1  -0.003625  0  0.000391  0.036225  0  3.973243  0
C  C17  1  0.44039655  0.59258862  0.29704758  1  -0.130727  0  0.000911  0.035961  0  3.973438  0
C  C18  1  0.51687990  0.63993414  0.25781015  1  0.001442  0  -0.078855  -0.111856  0  3.95979  0
C  C19  1  0.54084648  0.24842060  0.86217171  1  -0.035324  0  -0.083982  -0.223472  0  3.944524  0
C  C20  1  0.53890658  0.20473798  0.77337573  1  0.560072  0  0.110559  0.28103  0  4.037918  0
C  C21  1  0.61115016  0.11942164  0.72632457  1  -0.026071  0  -0.007515  -0.135602  0  3.940442  0
C  C22  1  0.68752057  0.07837237  0.77231590  1  -0.014305  0  -0.070971  -0.065244  0  3.959696  0
C  C23  1  0.51897186  0.72879404  0.30350058  1  -0.045434  0  -0.072603  -0.067331  0  3.966392  0
C  C24  1  0.43036243  0.77243809  0.38739294  1  0.068054  0  -0.00736  -0.136562  0  3.939589  0
C  C25  1  0.34834540  0.72343331  0.42433185  1  0.477014  0  0.112252  0.284675  0  4.031115  0
C  C26  1  0.35862100  0.63499114  0.38143870  1  0.081749  0  -0.08431  -0.225026  0  3.936495  0
C  C27  1  0.48321812  0.10947528  0.24621369  1  0.052594  0  -0.082447  -0.217905  0  3.942619  0
C  C28  1  0.47510410  0.06638129  0.29050583  1  0.516863  0  0.107332  0.271243  0  4.051241  0
C  C29  1  0.49633766  0.11025703  0.38092358  1  -0.049918  0  -0.004145  -0.122708  0  3.945636  0
C  C30  1  0.51998253  0.20082687  0.42745701  1  0.096904  0  -0.07332  -0.074187  0  3.97105  0
C  C31  1  0.46078995  0.37456186  0.25308080  1  1.535358  0  0.356188  0.506292  0  4.085026  0
C  C32  1  0.56411657  0.24432938  0.12221802  1  1.550947  0  0.357208  0.506897  0  4.084372  0
C  C33  1  0.50366932  0.24712200  0.24770054  1  1.099851  0  0.263237  0.396205  0  4.025284  0
C  C34  1  0.45573839  0.49869559  0.24980447  1  1.108587  0  0.260396  0.388698  0  4.034489  0
C  C35  1  0.52683244  0.37781903  0.12271171  1  1.547259  0  0.358117  0.506343  0  4.092379  0
C  C36  1  0.59054221  0.25098736  0.00036582  1  1.077249  0  0.259473  0.386383  0  4.038224  0
N  N37  1  0.51741595  0.33222900  0.16602588  1  -1.203639  0  -0.192883  -0.242919  0  3.556053  0
N  N38  1  0.56317283  0.20289750  0.16490469  1  -1.205719  0  -0.317587  -0.440588  0  3.207329  0
N  N39  1  0.44808172  0.33025480  0.29276281  1  -1.20965  0  -0.317296  -0.442026  0  3.208813  0
N  N40  1  0.42108206  0.45813906  0.29374061  1  -1.171152  0  -0.320558  -0.445586  0  3.202078  0
N  N41  1  0.50507094  0.46217428  0.16650925  1  -1.183339  0  -0.317422  -0.439727  0  3.217181  0
N  N42  1  0.60768128  0.20468341  0.03893475  1  -1.18999  0  -0.319894  -0.445986  0  3.203281  0
N  N43  1  0.55672339  0.33548470  0.03880514  1  -1.180925  0  -0.31857  -0.438868  0  3.220675  0
O  O44  1  0.22839278  0.90453416  0.48413985  1  -1.240917  0  -0.228116  -0.581486  0  2.357832  0
O  O45  1  0.23292689  0.00911896  0.41085602  1  -1.241224  0  -0.228675  -0.581617  0  2.35289  0
O  O46  1  0.34345215  0.08506245  0.58865296  1  -1.250988  0  -0.234829  -0.602997  0  2.414447  0
O  O47  1  0.66780522  0.90750515  0.41441389  1  -1.247254  0  -0.23682  -0.604761  0  2.392006  0
O  O48  1  0.79397012  0.01750154  0.59475893  1  -1.244976  0  -0.229675  -0.57857  0  2.33092  0
O  O49  1  0.76454993  0.08283021  0.48427337  1  -1.246994  0  -0.23019  -0.582197  0  2.344363  0
F  F50  1  0.45589067  0.97865566  0.24481205  1  -0.636925  0  -0.100573  -0.137488  0  1.311295  0
F  F51  1  0.26904908  0.76316674  0.50590706  1  -0.624009  0  -0.097078  -0.134218  0  1.327825  0
F  F52  1  0.47187602  0.24778990  0.73216343  1  -0.632511  0  -0.097386  -0.132474  0  1.330038  0
