# generated using pymatgen
data_H10PbC16N2(OF3)2
_symmetry_space_group_name_H-M   'P 1'
_cell_length_a   8.08364695
_cell_length_b   10.11381049
_cell_length_c   11.23990900
_cell_angle_alpha   99.18863979
_cell_angle_beta   100.03899108
_cell_angle_gamma   108.91952449
_symmetry_Int_Tables_number   1
_chemical_formula_structural   H10PbC16N2(OF3)2
_chemical_formula_sum   'H20 Pb2 C32 N4 O4 F12'
_cell_volume   832.60362140
_cell_formula_units_Z   2
loop_
 _symmetry_equiv_pos_site_id
 _symmetry_equiv_pos_as_xyz
  1  'x, y, z'
loop_
 _atom_site_type_symbol
 _atom_site_label
 _atom_site_symmetry_multiplicity
 _atom_site_fract_x
 _atom_site_fract_y
 _atom_site_fract_z
 _atom_site_occupancy
 _atom_site_hle17_bader_spin_density
 _atom_site_hle17_ddec_charge
 _atom_site_hle17_ddec_spin_density
 _atom_site_hle17_ddec_sum_bond_order
 _atom_site_hle17_magmom
 _atom_site_hse06_10hf_bader_spin_density
 _atom_site_hse06_10hf_ddec_charge
 _atom_site_hse06_10hf_ddec_spin_density
 _atom_site_hse06_10hf_ddec_sum_bond_order
 _atom_site_hse06_10hf_magmom
 _atom_site_hse06_bader_spin_density
 _atom_site_hse06_ddec_charge
 _atom_site_hse06_ddec_spin_density
 _atom_site_hse06_ddec_sum_bond_order
 _atom_site_hse06_magmom
 _atom_site_pbe_bader_spin_density
 _atom_site_pbe_cm5_charge
 _atom_site_pbe_ddec_charge
 _atom_site_pbe_ddec_spin_density
 _atom_site_pbe_ddec_sum_bond_order
 _atom_site_pbe_magmom
H  H0  1  0.57528782  0.19387206  0.01482282  1  0  0.075218  0  0.944369  0  0  0.081824  0  1.014363  0  0  0.084993  0  1.010207  0  0  0.111832  0.079165  0  1.018006  0
H  H1  1  0.42469728  0.80612994  0.98517948  1  0  0.075169  0  0.944339  0  0  0.081777  0  1.014347  0  0  0.084943  0  1.010215  0  0  0.111822  0.079146  0  1.017953  0
H  H2  1  0.45773623  0.00588682  0.12962179  1  0  0.106882  0  0.960763  0  0  0.113531  0  1.026468  0  0  0.117109  0  1.02454  0  0  0.100288  0.111084  0  1.027492  0
H  H3  1  0.54226591  0.99411957  0.87038592  1  0  0.106862  0  0.960692  0  0  0.113527  0  1.026401  0  0  0.117148  0  1.024355  0  0  0.100302  0.111085  0  1.027419  0
H  H4  1  0.40759645  0.08385572  0.34042463  1  0  0.09426  0  0.945773  0  0  0.102139  0  1.011236  0  0  0.104829  0  1.008941  0  0  0.101024  0.099246  0  1.014624  0
H  H5  1  0.59240629  0.91614642  0.65957897  1  0  0.09422  0  0.945752  0  0  0.102099  0  1.011208  0  0  0.104798  0  1.008908  0  0  0.10101  0.099207  0  1.014598  0
H  H6  1  0.46268149  0.34262841  0.41954498  1  0  0.096935  0  0.968924  0  0  0.110221  0  1.027582  0  0  0.113559  0  1.025969  0  0  0.097533  0.107819  0  1.028815  0
H  H7  1  0.53731128  0.65736835  0.58044947  1  0  0.096942  0  0.968919  0  0  0.110234  0  1.027564  0  0  0.113573  0  1.025952  0  0  0.097554  0.107831  0  1.028796  0
H  H8  1  0.55680728  0.58126363  0.40052843  1  0  0.107534  0  0.993491  0  0  0.11513  0  1.063885  0  0  0.118546  0  1.062758  0  0  0.088845  0.112683  0  1.064767  0
H  H9  1  0.44318175  0.41874166  0.59946773  1  0  0.107476  0  0.993446  0  0  0.115067  0  1.063867  0  0  0.118479  0  1.062756  0  0  0.088788  0.112623  0  1.064751  0
H  H10  1  0.95219274  0.82205122  0.19085913  1  0  0.080548  0  0.929871  0  0  0.087228  0  0.996803  0  0  0.090797  0  0.992566  0  0  0.114274  0.084714  0  0.999659  0
H  H11  1  0.04780952  0.17794986  0.80914246  1  0  0.080447  0  0.929907  0  0  0.087175  0  0.996769  0  0  0.090821  0  0.992372  0  0  0.114263  0.084663  0  0.999626  0
H  H12  1  0.10640059  0.96928480  0.40556416  1  0  0.107608  0  0.949359  0  0  0.115288  0  1.01266  0  0  0.118932  0  1.011186  0  0  0.101167  0.112475  0  1.014379  0
H  H13  1  0.89359851  0.03071194  0.59443995  1  0  0.107495  0  0.949524  0  0  0.115288  0  1.012647  0  0  0.118948  0  1.011118  0  0  0.101164  0.112461  0  1.014383  0
H  H14  1  0.21456840  0.84726660  0.56635054  1  0  0.093743  0  0.955749  0  0  0.101388  0  1.021065  0  0  0.104292  0  1.018438  0  0  0.098991  0.099391  0  1.022607  0
H  H15  1  0.78543227  0.15272802  0.43365255  1  0  0.093877  0  0.9557  0  0  0.101431  0  1.021142  0  0  0.104198  0  1.018723  0  0  0.099056  0.099434  0  1.022685  0
H  H16  1  0.17303927  0.58975058  0.50084904  1  0  0.100163  0  0.963597  0  0  0.113708  0  1.020504  0  0  0.116036  0  1.021543  0  0  0.100235  0.112235  0  1.019526  0
H  H17  1  0.82696218  0.41024296  0.49915577  1  0  0.10022  0  0.963598  0  0  0.113776  0  1.020484  0  0  0.116106  0  1.021513  0  0  0.100245  0.1123  0  1.019507  0
H  H18  1  0.06745421  0.37468248  0.35351049  1  0  0.114181  0  0.979409  0  0  0.121622  0  1.047887  0  0  0.124889  0  1.047776  0  0  0.092257  0.119491  0  1.047581  0
H  H19  1  0.93254862  0.62531443  0.64647631  1  0  0.114026  0  0.979529  0  0  0.121659  0  1.047764  0  0  0.124925  0  1.047663  0  0  0.092292  0.119528  0  1.047456  0
Pb  Pb20  1  0.75581868  0.51521032  0.02320886  1  0  1.226406  0  1.588256  0  0  1.028682  0  1.997505  0  0  1.078611  0  1.965619  0  0  0.615813  0.99103  0  2.022545  0
Pb  Pb21  1  0.24418262  0.48478864  0.97678962  1  0  1.226398  0  1.588289  0  0  1.02868  0  1.997544  0  0  1.078609  0  1.965654  0  0  0.615804  0.991025  0  2.022588  0
C  C22  1  0.54808876  0.22219258  0.10516760  1  0  0.144465  0  3.727516  0  0  0.108079  0  3.986813  0  0  0.117132  0  4.003126  0  0  0.044431  0.101692  0  3.976593  0
C  C23  1  0.45191557  0.77780740  0.89483942  1  0  0.1446  0  3.727252  0  0  0.108165  0  3.986696  0  0  0.117213  0  4.003029  0  0  0.044489  0.101756  0  3.976457  0
C  C24  1  0.48406509  0.11793542  0.16938620  1  0  -0.119539  0  3.729881  0  0  -0.14238  0  3.999005  0  0  -0.148825  0  4.017859  0  0  -0.095606  -0.138671  0  3.985998  0
C  C25  1  0.51593358  0.88206881  0.83062076  1  0  -0.119463  0  3.729372  0  0  -0.142391  0  3.998603  0  0  -0.14877  0  4.017298  0  0  -0.095595  -0.138687  0  3.985604  0
C  C26  1  0.45631629  0.16192339  0.28610716  1  0  0.003036  0  3.745165  0  0  -0.021516  0  4.010258  0  0  -0.015699  0  4.026495  0  0  -0.074081  -0.024921  0  3.999694  0
C  C27  1  0.54368929  0.83807662  0.71389824  1  0  0.002955  0  3.74525  0  0  -0.021422  0  4.010042  0  0  -0.015579  0  4.026227  0  0  -0.074096  -0.024828  0  3.999477  0
C  C28  1  0.48813298  0.30597952  0.33052496  1  0  -0.170299  0  3.70246  0  0  -0.188271  0  3.951123  0  0  -0.196923  0  3.970394  0  0  -0.092973  -0.182443  0  3.937721  0
C  C29  1  0.51187511  0.69402052  0.66947808  1  0  -0.170537  0  3.702779  0  0  -0.188367  0  3.951139  0  0  -0.197018  0  3.970422  0  0  -0.093034  -0.182542  0  3.937737  0
C  C30  1  0.55040125  0.40730064  0.26002230  1  0  0.286588  0  3.802084  0  0  0.288256  0  4.040651  0  0  0.301175  0  4.059371  0  0  0.114189  0.279975  0  4.027392  0
C  C31  1  0.44958936  0.59270249  0.73997818  1  0  0.28651  0  3.802057  0  0  0.288174  0  4.040666  0  0  0.301094  0  4.059403  0  0  0.114194  0.27989  0  4.027407  0
C  C32  1  0.57040091  0.55473328  0.30602156  1  0  -0.331005  0  3.801223  0  0  -0.375105  0  4.080075  0  0  -0.388668  0  4.103443  0  0  -0.147398  -0.366256  0  4.064194  0
C  C33  1  0.42960168  0.44527425  0.69397749  1  0  -0.330788  0  3.800943  0  0  -0.374957  0  4.079877  0  0  -0.388506  0  4.103239  0  0  -0.147308  -0.366116  0  4.063991  0
C  C34  1  0.58471392  0.65883167  0.23966756  1  0  0.15792  0  4.025986  0  0  0.142322  0  4.297832  0  0  0.154288  0  4.316523  0  0  0.059938  0.133969  0  4.285191  0
C  C35  1  0.41528155  0.34116833  0.76032770  1  0  0.157839  0  4.025802  0  0  0.142245  0  4.297691  0  0  0.154374  0  4.315977  0  0  0.059936  0.133895  0  4.285048  0
C  C36  1  0.57324828  0.80064816  0.30090778  1  0  0.725209  0  3.621713  0  0  0.647583  0  3.966909  0  0  0.676908  0  3.941751  0  0  0.295583  0.62619  0  3.986111  0
C  C37  1  0.42673979  0.19935500  0.69908528  1  0  0.725359  0  3.621645  0  0  0.647643  0  3.966936  0  0  0.67743  0  3.940998  0  0  0.295522  0.626257  0  3.986126  0
C  C38  1  0.00405821  0.77437065  0.26238349  1  0  0.139492  0  3.730482  0  0  0.101683  0  3.994514  0  0  0.110448  0  4.011074  0  0  0.044063  0.09604  0  3.98285  0
C  C39  1  0.99594087  0.22562617  0.73761085  1  0  0.139421  0  3.730725  0  0  0.101678  0  3.99465  0  0  0.1105  0  4.011028  0  0  0.044029  0.096037  0  3.98298  0
C  C40  1  0.08953636  0.85629713  0.38221092  1  0  -0.13756  0  3.745523  0  0  -0.160021  0  4.016732  0  0  -0.167331  0  4.036443  0  0  -0.098897  -0.15559  0  4.004304  0
C  C41  1  0.91045675  0.14369744  0.61779036  1  0  -0.137661  0  3.745962  0  0  -0.159989  0  4.016891  0  0  -0.167257  0  4.036495  0  0  -0.098797  -0.155544  0  4.004466  0
C  C42  1  0.14902567  0.78820526  0.47055659  1  0  0.000348  0  3.749991  0  0  -0.021354  0  4.007838  0  0  -0.015288  0  4.023898  0  0  -0.075746  -0.025214  0  3.997103  0
C  C43  1  0.85097829  0.21178835  0.52944142  1  0  0.000471  0  3.749907  0  0  -0.021284  0  4.007865  0  0  -0.015272  0  4.024103  0  0  -0.075861  -0.025141  0  3.997123  0
C  C44  1  0.12465069  0.64439852  0.43439496  1  0  -0.169988  0  3.697762  0  0  -0.185742  0  3.941306  0  0  -0.194721  0  3.961451  0  0  -0.091664  -0.18022  0  3.92782  0
C  C45  1  0.87536400  0.35559946  0.56560502  1  0  -0.170142  0  3.697795  0  0  -0.185917  0  3.941395  0  0  -0.194899  0  3.96153  0  0  -0.091652  -0.18039  0  3.927906  0
C  C46  1  0.03841984  0.56631710  0.31054455  1  0  0.292515  0  3.784418  0  0  0.293146  0  4.023478  0  0  0.307042  0  4.040513  0  0  0.115539  0.283996  0  4.011635  0
C  C47  1  0.96158782  0.43369041  0.68946223  1  0  0.292574  0  3.784128  0  0  0.293051  0  4.023409  0  0  0.306949  0  4.040453  0  0  0.115535  0.283901  0  4.011565  0
C  C48  1  0.02385645  0.41835516  0.27655264  1  0  -0.324164  0  3.784925  0  0  -0.368675  0  4.063161  0  0  -0.382612  0  4.086582  0  0  -0.144521  -0.359081  0  4.046224  0
C  C49  1  0.97614518  0.58165024  0.72344508  1  0  -0.324397  0  3.785148  0  0  -0.368783  0  4.063073  0  0  -0.382717  0  4.086502  0  0  -0.144597  -0.359194  0  4.046151  0
C  C50  1  0.97497349  0.33137013  0.15966485  1  0  0.155076  0  4.016279  0  0  0.141998  0  4.283046  0  0  0.153883  0  4.302358  0  0  0.061351  0.134416  0  4.269181  0
C  C51  1  0.02504183  0.66863216  0.84033319  1  0  0.155361  0  4.016294  0  0  0.142351  0  4.282824  0  0  0.154244  0  4.302146  0  0  0.061464  0.134752  0  4.268959  0
C  C52  1  0.99102381  0.18331000  0.14533600  1  0  0.716688  0  3.645097  0  0  0.644025  0  3.982649  0  0  0.673  0  3.957865  0  0  0.292559  0.623  0  4.001045  0
C  C53  1  0.00898522  0.81669224  0.85466215  1  0  0.715381  0  3.647243  0  0  0.643452  0  3.98352  0  0  0.672433  0  3.958707  0  0  0.292454  0.622482  0  4.0018  0
N  N54  1  0.58421689  0.36280637  0.14886222  1  0  -0.390178  0  3.175779  0  0  -0.306232  0  3.41009  0  0  -0.326288  0  3.428528  0  0  -0.304348  -0.292939  0  3.397768  0
N  N55  1  0.41578208  0.63719572  0.85114357  1  0  -0.390138  0  3.175913  0  0  -0.306254  0  3.41029  0  0  -0.326314  0  3.428745  0  0  -0.304373  -0.292954  0  3.397969  0
N  N56  1  0.97549920  0.63361147  0.22726485  1  0  -0.380359  0  3.161038  0  0  -0.297394  0  3.398781  0  0  -0.317221  0  3.416053  0  0  -0.302918  -0.283891  0  3.386775  0
N  N57  1  0.02449815  0.36638424  0.77273267  1  0  -0.380261  0  3.160933  0  0  -0.297354  0  3.398802  0  0  -0.317179  0  3.416087  0  0  -0.30295  -0.28385  0  3.386796  0
O  O58  1  0.59478198  0.65334671  0.12479416  1  0  -0.627674  0  2.143425  0  0  -0.556626  0  2.389185  0  0  -0.58585  0  2.390919  0  0  -0.312699  -0.535237  0  2.387514  0
O  O59  1  0.40521365  0.34665652  0.87519983  1  0  -0.627665  0  2.14347  0  0  -0.556634  0  2.389226  0  0  -0.585724  0  2.390678  0  0  -0.312709  -0.535247  0  2.387555  0
O  O60  1  0.92244324  0.35709385  0.05222745  1  0  -0.621824  0  2.140869  0  0  -0.547519  0  2.383435  0  0  -0.576675  0  2.384059  0  0  -0.31177  -0.526621  0  2.38177  0
O  O61  1  0.07755272  0.64290716  0.94777603  1  0  -0.621725  0  2.140597  0  0  -0.547622  0  2.383249  0  0  -0.576781  0  2.383869  0  0  -0.311826  -0.526725  0  2.381596  0
F  F62  1  0.41200103  0.80989090  0.24713340  1  0  -0.265619  0  1.157705  0  0  -0.219029  0  1.322467  0  0  -0.23062  0  1.310103  0  0  -0.097671  -0.206362  0  1.326842  0
F  F63  1  0.58799129  0.19011338  0.75285856  1  0  -0.265577  0  1.157616  0  0  -0.219068  0  1.322454  0  0  -0.230445  0  1.30989  0  0  -0.097734  -0.206425  0  1.326844  0
F  F64  1  0.58428663  0.82050983  0.42588400  1  0  -0.262759  0  1.171133  0  0  -0.212556  0  1.333577  0  0  -0.223321  0  1.319694  0  0  -0.096459  -0.205101  0  1.343708  0
F  F65  1  0.41569575  0.17948900  0.57410949  1  0  -0.262831  0  1.171216  0  0  -0.212509  0  1.333634  0  0  -0.223052  0  1.319545  0  0  -0.096349  -0.205052  0  1.343762  0
F  F66  1  0.70538000  0.91663788  0.28535456  1  0  -0.255299  0  1.183379  0  0  -0.212889  0  1.352687  0  0  -0.222763  0  1.337496  0  0  -0.098036  -0.206145  0  1.362679  0
F  F67  1  0.29461187  0.08336526  0.71464608  1  0  -0.255349  0  1.183418  0  0  -0.212876  0  1.352626  0  0  -0.224712  0  1.339258  0  0  -0.098012  -0.206128  0  1.362614  0
F  F68  1  0.11729311  0.17651786  0.07926536  1  0  -0.268774  0  1.167795  0  0  -0.225761  0  1.334415  0  0  -0.236267  0  1.320383  0  0  -0.103869  -0.21832  0  1.344714  0
F  F69  1  0.88273313  0.82348333  0.92074808  1  0  -0.268685  0  1.168341  0  0  -0.225626  0  1.334593  0  0  -0.23613  0  1.320559  0  0  -0.103863  -0.218202  0  1.344872  0
F  F70  1  0.04079558  0.14785558  0.25494662  1  0  -0.258649  0  1.169159  0  0  -0.207685  0  1.325342  0  0  -0.218333  0  1.311585  0  0  -0.099536  -0.199931  0  1.334807  0
F  F71  1  0.95920000  0.85213048  0.74504923  1  0  -0.257863  0  1.169464  0  0  -0.207505  0  1.325524  0  0  -0.218069  0  1.311634  0  0  -0.099474  -0.199765  0  1.334965  0
F  F72  1  0.83329175  0.07630861  0.08005764  1  0  -0.240826  0  1.166802  0  0  -0.209076  0  1.342542  0  0  -0.218817  0  1.327272  0  0  -0.101721  -0.201642  0  1.352883  0
F  F73  1  0.16671912  0.92368944  0.91992942  1  0  -0.240821  0  1.167544  0  0  -0.208936  0  1.342847  0  0  -0.218605  0  1.327438  0  0  -0.101694  -0.201515  0  1.353166  0
