# generated using pymatgen
data_Zn2H23C49IN2O11
_symmetry_space_group_name_H-M   'P 1'
_cell_length_a   12.67895477
_cell_length_b   13.55957372
_cell_length_c   15.21429471
_cell_angle_alpha   88.66392327
_cell_angle_beta   74.18357716
_cell_angle_gamma   76.06041107
_symmetry_Int_Tables_number   1
_chemical_formula_structural   Zn2H23C49IN2O11
_chemical_formula_sum   'Zn2 H23 C49 I1 N2 O11'
_cell_volume   2440.00469463
_cell_formula_units_Z   1
loop_
 _symmetry_equiv_pos_site_id
 _symmetry_equiv_pos_as_xyz
  1  'x, y, z'
loop_
 _atom_site_type_symbol
 _atom_site_label
 _atom_site_symmetry_multiplicity
 _atom_site_fract_x
 _atom_site_fract_y
 _atom_site_fract_z
 _atom_site_occupancy
 _atom_site_pbe_bader_charge
 _atom_site_pbe_bader_spin_density
 _atom_site_pbe_cm5_charge
 _atom_site_pbe_ddec_charge
 _atom_site_pbe_ddec_spin_density
 _atom_site_pbe_ddec_sum_bond_order
 _atom_site_pbe_magmom
Zn  Zn0  1  0.61770595  0.50486838  0.47159669  1  1.289986  0  0.669499  0.824702  0  2.392445  0
Zn  Zn1  1  0.38510448  0.49585391  0.52217441  1  1.289749  0  0.673896  0.829695  0  2.407131  0
H  H2  1  0.68033911  0.51440326  0.17577884  1  0.095543  0  0.110481  0.120613  0  0.991746  0
H  H3  1  0.90161236  0.71252394  0.34410214  1  0.090226  0  0.118802  0.125175  0  0.984742  0
H  H4  1  0.33199930  0.50891044  0.26466999  1  0.082371  0  0.097963  0.100437  0  1.054663  0
H  H5  1  0.27987910  0.36762464  0.64727677  1  0.149936  0  0.131931  0.107649  0  0.969981  0
H  H6  1  0.94347332  0.38520828  0.62910119  1  0.095813  0  0.116154  0.115121  0  0.995701  0
H  H7  1  0.09546872  0.31684740  0.70288635  1  0.08327  0  0.121309  0.127558  0  0.969348  0
H  H8  1  0.24187457  0.60421952  0.43315205  1  0.113148  0  0.117833  0.136643  0  1.019599  0
H  H9  1  0.21470883  0.51695817  0.98583655  1  0.10025  0  0.110531  0.114088  0  0.993319  0
H  H10  1  0.31639282  0.50822450  0.81888226  1  0.111415  0  0.106494  0.11445  0  1.000059  0
H  H11  1  0.67023883  0.49844376  0.73347192  1  0.094997  0  0.102214  0.1069  0  1.008993  0
H  H12  1  0.77616537  0.50465878  0.84877148  1  0.051826  0  0.101089  0.101596  0  0.998719  0
H  H13  1  0.24797893  0.16538791  0.44130855  1  0.053994  0  0.105101  0.112127  0  0.988768  0
H  H14  1  0.77876124  0.51040898  0.01084620  1  0.079078  0  0.107914  0.112362  0  0.985078  0
H  H15  1  0.75468296  0.37173287  0.53797976  1  0.137847  0  0.113878  0.070578  0  1.023784  0
H  H16  1  0.18762064  0.52242899  0.23486405  1  0.050332  0  0.092752  0.025081  0  1.010286  0
H  H17  1  0.19082745  0.76469643  0.57547901  1  0.091791  0  0.105482  0.048329  0  0.969377  0
H  H18  1  0.18626017  0.00533982  0.47262675  1  0.110712  0  0.107304  0.113153  0  1.002519  0
H  H19  1  0.57081908  0.82071351  0.48363903  1  0.100772  0  0.104896  0.108893  0  1.030074  0
H  H20  1  0.77139390  0.18508588  0.45847210  1  0.101592  0  0.105393  0.122275  0  1.006014  0
H  H21  1  0.68760622  0.89575742  0.46255716  1  0.074913  0  0.097909  0.105588  0  1.027396  0
H  H22  1  0.38866899  0.26397097  0.43765280  1  0.127233  0  0.104092  0.117326  0  1.017663  0
H  H23  1  0.72130448  0.65408654  0.37687956  1  0.127768  0  0.129554  0.109842  0  0.974904  0
H  H24  1  0.08992544  0.69346111  0.36591722  1  0.108458  0  0.117945  0.126822  0  0.975654  0
C  C25  1  0.56863150  0.30435397  0.47443054  1  1.586413  0  0.218848  0.603325  0  4.15057  0
C  C26  1  0.39416137  0.50680360  0.83705425  1  -0.040611  0  -0.075482  -0.131426  0  3.917075  0
C  C27  1  0.49351433  0.50210182  0.76740281  1  -0.006697  0  -0.01877  -0.030606  0  4.000557  0
C  C28  1  0.49280822  0.49868523  0.66912730  1  1.574826  0  0.216137  0.6029  0  4.154704  0
C  C29  1  0.59405566  0.50146160  0.78916693  1  -0.057241  0  -0.076255  -0.128055  0  3.916704  0
C  C30  1  0.27125689  0.96588872  0.47507194  1  -0.119381  0  -0.073906  -0.14486  0  3.91532  0
C  C31  1  0.40394755  0.81125376  0.49549577  1  0.046094  0  -0.01613  -0.068922  0  3.965943  0
C  C32  1  0.71070248  0.14056176  0.45760606  1  0.002665  0  -0.08679  -0.121068  0  3.949279  0
C  C33  1  0.74161151  0.03384487  0.45658042  1  -0.221426  0  -0.056977  0.050209  0  3.977575  0
C  C34  1  0.66249166  0.97810653  0.45996953  1  0.001286  0  -0.096731  -0.162256  0  3.984118  0
C  C35  1  0.55063791  0.02674481  0.46041071  1  -0.003732  0  -0.000901  0.043089  0  3.950342  0
C  C36  1  0.60133787  0.51188419  0.06631698  1  0.014078  0  -0.004568  0.079049  0  4.031329  0
C  C37  1  0.51930352  0.13495322  0.45665383  1  -0.017957  0  0.003126  0.063849  0  3.945562  0
C  C38  1  0.46576192  0.96943279  0.46775627  1  -0.020684  0  0.002701  0.03947  0  3.943267  0
C  C39  1  0.35506964  0.02106913  0.46347124  1  0.030564  0  -0.003131  0.083327  0  4.023213  0
C  C40  1  0.43601024  0.69859919  0.50415373  1  1.558197  0  0.212959  0.588726  0  4.175554  0
C  C41  1  0.33106667  0.12781432  0.44924706  1  -0.01748  0  -0.091961  -0.140972  0  4.010643  0
C  C42  1  0.40915433  0.18256661  0.44715939  1  -0.041691  0  -0.085557  -0.114943  0  3.992735  0
C  C43  1  0.48735130  0.86434330  0.48188179  1  -0.088491  0  -0.077672  -0.123167  0  3.943515  0
C  C44  1  0.29295202  0.86331994  0.49363494  1  0.007491  0  -0.016796  0.003841  0  3.997783  0
C  C45  1  0.60045487  0.19074895  0.46005749  1  -0.056543  0  -0.010996  -0.058474  0  3.904803  0
C  C46  1  0.89038405  0.64764644  0.38615910  1  0.025679  0  -0.06068  -0.141109  0  3.922956  0
C  C47  1  0.29375215  0.51641972  0.09228280  1  -0.029494  0  -0.022637  -0.042189  0  3.996385  0
C  C48  1  0.21004372  0.39742146  0.61755639  1  0.463594  0  0.071128  0.125483  0  3.916716  0
C  C49  1  0.10776857  0.36830322  0.64705175  1  0.015543  0  -0.077474  -0.132796  0  3.989182  0
C  C50  1  0.02369862  0.40592202  0.60466604  1  -0.012324  0  -0.054477  -0.053724  0  3.948297  0
C  C51  1  0.04173317  0.47136756  0.53146499  1  -0.042151  0  0.00948  0.004  0  3.941105  0
C  C52  1  0.50865013  0.50792162  0.32549739  1  1.578111  0  0.216596  0.599011  0  4.152892  0
C  C53  1  0.14490949  0.50330099  0.51026103  1  0.495689  0  0.126094  0.211968  0  3.944549  0
C  C54  1  0.95944798  0.51369824  0.48173103  1  0.046755  0  0.01557  -0.018987  0  3.884343  0
C  C55  1  0.97641765  0.59740885  0.42539738  1  0.032219  0  0.015429  0.106912  0  3.993443  0
C  C56  1  0.07948280  0.62910959  0.40886529  1  -0.035707  0  -0.067394  -0.098839  0  3.949055  0
C  C57  1  0.16272702  0.58106632  0.44683600  1  0.026812  0  -0.068923  -0.130309  0  3.921825  0
C  C58  1  0.29424117  0.51447456  0.00174134  1  -0.067704  0  -0.063269  -0.112055  0  3.915702  0
C  C59  1  0.86107594  0.47885943  0.48524317  1  0.461659  0  0.126189  0.129398  0  3.881701  0
C  C60  1  0.79197085  0.61540721  0.40264363  1  0.437764  0  0.054369  0.098221  0  3.924556  0
C  C61  1  0.60283080  0.51345645  0.15805367  1  -0.070463  0  -0.078499  -0.141013  0  3.925139  0
C  C62  1  0.50563988  0.51153451  0.22772256  1  0.002217  0  -0.017069  -0.017466  0  3.999901  0
C  C63  1  0.40448450  0.51131644  0.20739192  1  -0.011034  0  -0.086556  -0.151472  0  3.944301  0
C  C64  1  0.39730503  0.51336106  0.11696763  1  -0.02929  0  -0.003158  0.044584  0  4.003233  0
C  C65  1  0.49808794  0.51169392  0.04496732  1  -0.022179  0  0.00696  0.007992  0  3.902834  0
C  C66  1  0.84421344  0.37522793  0.51313762  1  0.953917  0  0.110121  0.242922  0  3.906503  0
C  C67  1  0.18484734  0.52352361  0.16233603  1  0.918499  0  0.091397  0.279857  0  3.971126  0
C  C68  1  0.19631879  0.81480106  0.51657485  1  0.914916  0  0.101031  0.289273  0  3.955591  0
C  C69  1  0.39407862  0.50977890  0.92932280  1  0.003703  0  -0.007363  0.066706  0  4.055475  0
C  C70  1  0.49676767  0.50909515  0.95190199  1  -0.02148  0  0.010342  0.011734  0  3.902907  0
C  C71  1  0.59785393  0.50557900  0.88023503  1  0.028939  0  -0.006176  0.075258  0  4.041127  0
C  C72  1  0.69963474  0.50646854  0.90390521  1  -0.034918  0  -0.092514  -0.136395  0  4.027043  0
C  C73  1  0.70111055  0.50973942  0.99312748  1  -0.052489  0  -0.087194  -0.129913  0  4.013073  0
I  I74  1  0.90704112  0.95616844  0.45519528  1  0.145696  0  0.057315  -0.051473  0  1.529241  0
N  N75  1  0.77868596  0.53140122  0.45011617  1  -1.218272  0  -0.304998  -0.227134  0  3.482972  0
N  N76  1  0.22721358  0.46437198  0.55279103  1  -1.229499  0  -0.314135  -0.253816  0  3.472  0
O  O77  1  0.64508403  0.35190711  0.44153286  1  -1.162481  0  -0.318584  -0.549305  0  2.316908  0
O  O78  1  0.09382884  0.53122687  0.14537728  1  -1.07648  0  -0.285946  -0.381093  0  2.079853  0
O  O79  1  0.12197087  0.83225166  0.47661651  1  -1.114941  0  -0.274157  -0.369978  0  2.273581  0
O  O80  1  0.46844284  0.34474925  0.52197297  1  -1.177119  0  -0.31431  -0.556312  0  2.370569  0
O  O81  1  0.58869360  0.48194294  0.60959429  1  -1.181124  0  -0.31763  -0.561958  0  2.368892  0
O  O82  1  0.39723047  0.51293880  0.65246358  1  -1.160595  0  -0.317349  -0.545932  0  2.312563  0
O  O83  1  0.53601206  0.65780723  0.50757690  1  -1.169377  0  -0.313269  -0.544052  0  2.329926  0
O  O84  1  0.36017720  0.65057329  0.50534246  1  -1.167397  0  -0.305387  -0.545661  0  2.369525  0
O  O85  1  0.59066354  0.53272124  0.34502375  1  -1.16191  0  -0.316411  -0.542353  0  2.30461  0
O  O86  1  0.42791545  0.47964769  0.38190917  1  -1.17765  0  -0.318393  -0.556301  0  2.352386  0
O  O87  1  0.92201398  0.29916598  0.50339129  1  -1.068326  0  -0.249632  -0.331722  0  2.126437  0
