# generated using pymatgen
data_Zn3H22(C15O8)2
_symmetry_space_group_name_H-M   'P 1'
_cell_length_a   7.54961221
_cell_length_b   13.75959937
_cell_length_c   17.48612105
_cell_angle_alpha   89.99880499
_cell_angle_beta   90.00046053
_cell_angle_gamma   100.71626148
_symmetry_Int_Tables_number   1
_chemical_formula_structural   Zn3H22(C15O8)2
_chemical_formula_sum   'Zn6 H44 C60 O32'
_cell_volume   1784.77313985
_cell_formula_units_Z   2
loop_
 _symmetry_equiv_pos_site_id
 _symmetry_equiv_pos_as_xyz
  1  'x, y, z'
loop_
 _atom_site_type_symbol
 _atom_site_label
 _atom_site_symmetry_multiplicity
 _atom_site_fract_x
 _atom_site_fract_y
 _atom_site_fract_z
 _atom_site_occupancy
 _atom_site_hle17_bader_spin_density
 _atom_site_hle17_ddec_charge
 _atom_site_hle17_ddec_spin_density
 _atom_site_hle17_ddec_sum_bond_order
 _atom_site_hle17_magmom
 _atom_site_hse06_10hf_bader_spin_density
 _atom_site_hse06_10hf_ddec_charge
 _atom_site_hse06_10hf_ddec_spin_density
 _atom_site_hse06_10hf_ddec_sum_bond_order
 _atom_site_hse06_10hf_magmom
 _atom_site_hse06_bader_spin_density
 _atom_site_hse06_ddec_charge
 _atom_site_hse06_ddec_spin_density
 _atom_site_hse06_ddec_sum_bond_order
 _atom_site_hse06_magmom
 _atom_site_pbe_bader_spin_density
 _atom_site_pbe_cm5_charge
 _atom_site_pbe_ddec_charge
 _atom_site_pbe_ddec_spin_density
 _atom_site_pbe_ddec_sum_bond_order
 _atom_site_pbe_magmom
Zn  Zn0  1  0.29921121  0.99390659  0.04150530  1  0  1.20864  0  1.723702  0  0  1.050289  0  2.179826  0  0  1.096893  0  2.117611  0  0  0.694364  1.017272  0  2.222841  0
Zn  Zn1  1  0.70081100  0.00611028  0.54150833  1  0  1.208806  0  1.723515  0  0  1.050402  0  2.179626  0  0  1.097006  0  2.117412  0  0  0.69445  1.017387  0  2.222643  0
Zn  Zn2  1  0.60464916  0.85457593  0.09444953  1  0  1.172162  0  1.695353  0  0  1.006201  0  2.156928  0  0  1.058105  0  2.090667  0  0  0.681259  0.969436  0  2.20284  0
Zn  Zn3  1  0.39536228  0.14543368  0.59445037  1  0  1.172234  0  1.695333  0  0  1.00628  0  2.156902  0  0  1.05818  0  2.090639  0  0  0.681284  0.969516  0  2.202817  0
Zn  Zn4  1  0.04993848  0.16457343  0.97695240  1  0  1.161933  0  1.763367  0  0  1.001746  0  2.230502  0  0  1.050534  0  2.16522  0  0  0.676381  0.967341  0  2.275641  0
Zn  Zn5  1  0.95005391  0.83541758  0.47695478  1  0  1.162027  0  1.763291  0  0  1.001855  0  2.230425  0  0  1.050638  0  2.16514  0  0  0.676423  0.967449  0  2.275561  0
H  H6  1  0.42548530  0.98965079  0.81172897  1  0  0.116272  0  0.936175  0  0  0.124721  0  0.997436  0  0  0.128991  0  0.9935  0  0  0.110805  0.121603  0  1.000323  0
H  H7  1  0.57452121  0.01035180  0.31173728  1  0  0.116272  0  0.93608  0  0  0.124701  0  0.997379  0  0  0.12897  0  0.993443  0  0  0.110799  0.121581  0  1.000267  0
H  H8  1  0.45666802  0.77656621  0.63592620  1  0  0.098541  0  0.947643  0  0  0.108925  0  1.009283  0  0  0.112485  0  1.006382  0  0  0.104725  0.106276  0  1.011509  0
H  H9  1  0.54332912  0.22343423  0.13592691  1  0  0.098563  0  0.947688  0  0  0.108946  0  1.009336  0  0  0.112506  0  1.006437  0  0  0.104723  0.106302  0  1.011559  0
H  H10  1  0.54840726  0.70586410  0.87140112  1  0  0.108842  0  0.928896  0  0  0.119692  0  0.988128  0  0  0.123408  0  0.98532  0  0  0.110551  0.116978  0  0.990206  0
H  H11  1  0.45158615  0.29413181  0.37140264  1  0  0.108843  0  0.928911  0  0  0.119656  0  0.988182  0  0  0.123377  0  0.985378  0  0  0.110541  0.116942  0  0.990262  0
H  H12  1  0.67959383  0.68784866  0.62225990  1  0  0.094499  0  0.973713  0  0  0.105267  0  1.035473  0  0  0.107912  0  1.034912  0  0  0.097903  0.10334  0  1.036012  0
H  H13  1  0.32038882  0.31215659  0.12225839  1  0  0.094488  0  0.973682  0  0  0.105312  0  1.035382  0  0  0.107959  0  1.034814  0  0  0.097904  0.10337  0  1.03594  0
H  H14  1  0.71647646  0.52473406  0.57324586  1  0  0.098273  0  0.96049  0  0  0.108494  0  1.022049  0  0  0.111667  0  1.019601  0  0  0.103604  0.106196  0  1.023859  0
H  H15  1  0.28351945  0.47527390  0.07324269  1  0  0.098193  0  0.960526  0  0  0.108431  0  1.022074  0  0  0.111606  0  1.019622  0  0  0.103609  0.106143  0  1.023869  0
H  H16  1  0.40914506  0.38282911  0.76286830  1  0  0.107352  0  0.928176  0  0  0.117796  0  0.983736  0  0  0.1215  0  0.981145  0  0  0.109392  0.115108  0  0.985699  0
H  H17  1  0.59086259  0.61717177  0.26285987  1  0  0.10745  0  0.928117  0  0  0.117865  0  0.983688  0  0  0.121568  0  0.981097  0  0  0.109429  0.115179  0  0.985653  0
H  H18  1  0.38273938  0.54663566  0.81594101  1  0  0.093327  0  0.970025  0  0  0.103203  0  1.032507  0  0  0.105303  0  1.033207  0  0  0.099305  0.101712  0  1.032086  0
H  H19  1  0.61725424  0.45336389  0.31593592  1  0  0.093364  0  0.970156  0  0  0.103241  0  1.03262  0  0  0.105339  0  1.033324  0  0  0.099328  0.101749  0  1.032199  0
H  H20  1  0.05184160  0.99221039  0.26526806  1  0  0.119401  0  0.924898  0  0  0.127418  0  0.985695  0  0  0.131853  0  0.981426  0  0  0.112749  0.12417  0  0.988799  0
H  H21  1  0.94816657  0.00779191  0.76527021  1  0  0.119461  0  0.924826  0  0  0.12745  0  0.985656  0  0  0.131886  0  0.981388  0  0  0.112774  0.124211  0  0.988765  0
H  H22  1  0.94449587  0.20740618  0.42803940  1  0  0.094234  0  0.95561  0  0  0.104475  0  1.019366  0  0  0.108127  0  1.016076  0  0  0.104682  0.101817  0  1.021767  0
H  H23  1  0.05550947  0.79259049  0.92804506  1  0  0.094202  0  0.955575  0  0  0.104425  0  1.01933  0  0  0.108074  0  1.016051  0  0  0.104651  0.10177  0  1.021728  0
H  H24  1  0.02115227  0.28537861  0.18979222  1  0  0.105368  0  0.950985  0  0  0.116116  0  1.011268  0  0  0.119811  0  1.008075  0  0  0.108622  0.113445  0  1.01357  0
H  H25  1  0.97885856  0.71462783  0.68979776  1  0  0.10534  0  0.951205  0  0  0.116195  0  1.011362  0  0  0.119892  0  1.008167  0  0  0.108662  0.113524  0  1.013655  0
H  H26  1  0.81683336  0.33292574  0.43565734  1  0  0.095078  0  0.959218  0  0  0.105029  0  1.02157  0  0  0.107881  0  1.020449  0  0  0.097908  0.102993  0  1.022448  0
H  H27  1  0.18315576  0.66706188  0.93567064  1  0  0.095215  0  0.958954  0  0  0.105038  0  1.021434  0  0  0.107885  0  1.020324  0  0  0.097952  0.103001  0  1.022314  0
H  H28  1  0.84627767  0.50705780  0.47396921  1  0  0.094527  0  0.968061  0  0  0.103466  0  1.032348  0  0  0.106742  0  1.029722  0  0  0.099972  0.101088  0  1.034303  0
H  H29  1  0.15369921  0.49292295  0.97397782  1  0  0.094429  0  0.968227  0  0  0.103432  0  1.032435  0  0  0.106704  0  1.02981  0  0  0.09996  0.101047  0  1.034403  0
H  H30  1  0.16481480  0.59902318  0.27423802  1  0  0.097617  0  0.951767  0  0  0.105501  0  1.01492  0  0  0.108472  0  1.013276  0  0  0.101462  0.10337  0  1.016119  0
H  H31  1  0.83517254  0.40097967  0.77424248  1  0  0.097587  0  0.951884  0  0  0.105478  0  1.015019  0  0  0.108449  0  1.013375  0  0  0.10142  0.103342  0  1.016213  0
H  H32  1  0.12845377  0.42576627  0.23233242  1  0  0.081764  0  1.011412  0  0  0.092685  0  1.074269  0  0  0.09431  0  1.075523  0  0  0.093919  0.091505  0  1.073512  0
H  H33  1  0.87154129  0.57424207  0.73234218  1  0  0.081754  0  1.011348  0  0  0.0927  0  1.074186  0  0  0.094301  0  1.075463  0  0  0.093925  0.091517  0  1.073425  0
H  H34  1  0.69633127  0.10116277  0.01013126  1  0  0.432222  0  0.865117  0  0  0.402329  0  0.926994  0  0  0.412307  0  0.91245  0  0  0.290193  0.395282  0  0.937261  0
H  H35  1  0.30367755  0.89882458  0.51014175  1  0  0.432234  0  0.865157  0  0  0.402385  0  0.926942  0  0  0.412359  0  0.912405  0  0  0.290194  0.39534  0  0.937208  0
H  H36  1  0.75512229  0.17571230  0.93638935  1  0  0.410255  0  0.906391  0  0  0.376528  0  0.974931  0  0  0.389003  0  0.956833  0  0  0.277594  0.367748  0  0.98764  0
H  H37  1  0.24488512  0.82427453  0.43640092  1  0  0.410104  0  0.906614  0  0  0.376323  0  0.975284  0  0  0.3888  0  0.957183  0  0  0.2775  0.367542  0  0.987994  0
H  H38  1  0.27228434  0.77523291  0.09215693  1  0  0.426277  0  0.885814  0  0  0.390507  0  0.956181  0  0  0.403757  0  0.937419  0  0  0.281744  0.381222  0  0.969297  0
H  H39  1  0.72773004  0.22477380  0.59216276  1  0  0.426284  0  0.88578  0  0  0.390551  0  0.956097  0  0  0.403803  0  0.937328  0  0  0.281749  0.381266  0  0.969213  0
H  H40  1  0.21587232  0.86091378  0.14646377  1  0  0.443585  0  0.794918  0  0  0.427082  0  0.842832  0  0  0.435853  0  0.833448  0  0  0.329031  0.420781  0  0.84966  0
H  H41  1  0.78413945  0.13909006  0.64646834  1  0  0.44364  0  0.794737  0  0  0.427051  0  0.842811  0  0  0.43582  0  0.833432  0  0  0.329021  0.420753  0  0.849637  0
H  H42  1  0.38224911  0.14918862  0.91926678  1  0  0.454156  0  0.781735  0  0  0.435518  0  0.834548  0  0  0.443983  0  0.824933  0  0  0.338936  0.429467  0  0.841543  0
H  H43  1  0.61775614  0.85080828  0.41926604  1  0  0.454172  0  0.7817  0  0  0.435538  0  0.834513  0  0  0.444001  0  0.8249  0  0  0.338952  0.429492  0  0.841499  0
H  H44  1  0.45786602  0.22052157  0.98572303  1  0  0.448823  0  0.785269  0  0  0.432696  0  0.836301  0  0  0.440632  0  0.827485  0  0  0.34022  0.426957  0  0.842804  0
H  H45  1  0.54215218  0.77944771  0.48570833  1  0  0.448926  0  0.785237  0  0  0.432746  0  0.836347  0  0  0.440686  0  0.827517  0  0  0.340273  0.427002  0  0.842849  0
H  H46  1  0.87929484  0.77179199  0.07762934  1  0  0.43471  0  0.79899  0  0  0.421414  0  0.843718  0  0  0.429197  0  0.835686  0  0  0.335213  0.415782  0  0.849695  0
H  H47  1  0.12071710  0.22820843  0.57762444  1  0  0.434772  0  0.798984  0  0  0.42148  0  0.843694  0  0  0.42926  0  0.835664  0  0  0.335271  0.415849  0  0.849666  0
H  H48  1  0.93718456  0.87822280  0.03856387  1  0  0.438907  0  0.861258  0  0  0.40458  0  0.930185  0  0  0.415753  0  0.913953  0  0  0.295341  0.39668  0  0.941649  0
H  H49  1  0.06283620  0.12178230  0.53855194  1  0  0.438884  0  0.861296  0  0  0.404565  0  0.930211  0  0  0.415739  0  0.913979  0  0  0.295334  0.396666  0  0.941672  0
C  C50  1  0.48670023  0.85020805  0.84993195  1  0  -0.073058  0  3.739491  0  0  -0.047579  0  3.979877  0  0  -0.058758  0  4.00479  0  0  -0.014916  -0.040422  0  3.963144  0
C  C51  1  0.51329317  0.14979285  0.34993318  1  0  -0.073065  0  3.739615  0  0  -0.047579  0  3.979973  0  0  -0.058757  0  4.004886  0  0  -0.014941  -0.040431  0  3.963247  0
C  C52  1  0.44832134  0.91702943  0.79469038  1  0  -0.043807  0  3.668864  0  0  -0.08581  0  3.920591  0  0  -0.081543  0  3.938698  0  0  -0.068067  -0.088316  0  3.908285  0
C  C53  1  0.55168102  0.08297361  0.29469342  1  0  -0.04395  0  3.668815  0  0  -0.085908  0  3.920611  0  0  -0.081642  0  3.93872  0  0  -0.068116  -0.088408  0  3.908291  0
C  C54  1  0.44146889  0.89072463  0.71759115  1  0  -0.069337  0  3.783169  0  0  -0.04336  0  4.022233  0  0  -0.0542  0  4.047036  0  0  -0.018804  -0.036435  0  4.005557  0
C  C55  1  0.55853881  0.10927889  0.21759492  1  0  -0.068899  0  3.782865  0  0  -0.043004  0  4.022117  0  0  -0.053845  0  4.046928  0  0  -0.018623  -0.036072  0  4.00542  0
C  C56  1  0.46736235  0.79656739  0.69619500  1  0  -0.078226  0  3.674875  0  0  -0.115212  0  3.925234  0  0  -0.11335  0  3.943863  0  0  -0.073515  -0.116038  0  3.912557  0
C  C57  1  0.53263189  0.20343669  0.19619600  1  0  -0.07853  0  3.675186  0  0  -0.115474  0  3.925651  0  0  -0.113613  0  3.944281  0  0  -0.07361  -0.116309  0  3.912973  0
C  C58  1  0.50393474  0.72797861  0.75030368  1  0  0.046357  0  3.765917  0  0  0.063886  0  4.005827  0  0  0.060693  0  4.030565  0  0  -0.001494  0.065733  0  3.989032  0
C  C59  1  0.49605506  0.27202114  0.25030228  1  0  0.046566  0  3.765855  0  0  0.063977  0  4.005831  0  0  0.060786  0  4.03056  0  0  -0.001445  0.065826  0  3.989036  0
C  C60  1  0.51603307  0.75644216  0.82777862  1  0  -0.072701  0  3.636651  0  0  -0.111153  0  3.892207  0  0  -0.108663  0  3.910767  0  0  -0.066121  -0.112409  0  3.87946  0
C  C61  1  0.48395777  0.24355635  0.32777822  1  0  -0.072758  0  3.636789  0  0  -0.111156  0  3.892357  0  0  -0.108669  0  3.910918  0  0  -0.066145  -0.112414  0  3.879615  0
C  C62  1  0.48715519  0.88139005  0.93231246  1  0  0.69539  0  3.837733  0  0  0.643938  0  4.12389  0  0  0.680477  0  4.11602  0  0  0.229738  0.619038  0  4.128519  0
C  C63  1  0.51284402  0.11861171  0.43231363  1  0  0.695391  0  3.837656  0  0  0.643932  0  4.123797  0  0  0.680471  0  4.115929  0  0  0.229687  0.619031  0  4.128425  0
C  C64  1  0.41655562  0.96302753  0.65736790  1  0  0.67372  0  3.85942  0  0  0.619348  0  4.148601  0  0  0.654942  0  4.141024  0  0  0.219549  0.595052  0  4.153153  0
C  C65  1  0.58346201  0.03698121  0.15736894  1  0  0.673517  0  3.85932  0  0  0.61905  0  4.148715  0  0  0.654643  0  4.141143  0  0  0.219393  0.594751  0  4.153266  0
C  C66  1  0.52764112  0.62946812  0.72280901  1  0  0.055341  0  3.776385  0  0  0.069849  0  4.006365  0  0  0.071049  0  4.030944  0  0  -0.005027  0.069198  0  3.989639  0
C  C67  1  0.47234652  0.37053455  0.22280820  1  0  0.055289  0  3.776401  0  0  0.069975  0  4.006224  0  0  0.071176  0  4.030803  0  0  -0.004984  0.069329  0  3.989493  0
C  C68  1  0.61866484  0.62134648  0.65342449  1  0  -0.12854  0  3.754178  0  0  -0.147211  0  4.003297  0  0  -0.151698  0  4.024578  0  0  -0.093814  -0.144176  0  3.988788  0
C  C69  1  0.38132709  0.37866092  0.15342266  1  0  -0.128529  0  3.754228  0  0  -0.147264  0  4.00328  0  0  -0.151755  0  4.024566  0  0  -0.093842  -0.144221  0  3.988784  0
C  C70  1  0.64058316  0.52954663  0.62563981  1  0  -0.070737  0  3.752453  0  0  -0.093988  0  3.999151  0  0  -0.093426  0  4.019198  0  0  -0.084863  -0.094132  0  3.985457  0
C  C71  1  0.35940823  0.47046074  0.12563412  1  0  -0.070757  0  3.752584  0  0  -0.094056  0  3.999344  0  0  -0.093491  0  4.019395  0  0  -0.08487  -0.094196  0  3.985644  0
C  C72  1  0.56437751  0.44287780  0.66461644  1  0  -0.066549  0  3.757719  0  0  -0.044306  0  3.992835  0  0  -0.052695  0  4.01614  0  0  -0.016527  -0.038888  0  3.977112  0
C  C73  1  0.43561381  0.55712339  0.16461189  1  0  -0.066291  0  3.757671  0  0  -0.04403  0  3.9928  0  0  -0.052427  0  4.01611  0  0  -0.016482  -0.038606  0  3.977083  0
C  C74  1  0.47030003  0.45022344  0.73295385  1  0  -0.054441  0  3.721146  0  0  -0.079502  0  3.970156  0  0  -0.078473  0  3.989095  0  0  -0.078287  -0.079985  0  3.957261  0
C  C75  1  0.52969331  0.54977601  0.23294916  1  0  -0.054673  0  3.72136  0  0  -0.079694  0  3.970368  0  0  -0.078659  0  3.989303  0  0  -0.078337  -0.080182  0  3.95748  0
C  C76  1  0.45596183  0.54237636  0.76263947  1  0  -0.104026  0  3.721898  0  0  -0.121681  0  3.966923  0  0  -0.125625  0  3.988843  0  0  -0.083663  -0.119066  0  3.952011  0
C  C77  1  0.54403049  0.45762234  0.26263863  1  0  -0.10398  0  3.722161  0  0  -0.121697  0  3.967133  0  0  -0.125638  0  3.989051  0  0  -0.083643  -0.119074  0  3.95222  0
C  C78  1  0.57817354  0.34328152  0.63336507  1  0  0.662029  0  3.880156  0  0  0.611657  0  4.174335  0  0  0.646644  0  4.166966  0  0  0.215399  0.587902  0  4.178563  0
C  C79  1  0.42182139  0.65672417  0.13335597  1  0  0.662097  0  3.879753  0  0  0.611643  0  4.174059  0  0  0.646634  0  4.166677  0  0  0.215294  0.587877  0  4.178306  0
C  C80  1  0.04873030  0.13822637  0.22034571  1  0  -0.077566  0  3.768022  0  0  -0.053282  0  4.010298  0  0  -0.064575  0  4.035131  0  0  -0.018648  -0.046078  0  3.993615  0
C  C81  1  0.95128114  0.86177634  0.72035274  1  0  -0.07761  0  3.768142  0  0  -0.053374  0  4.010512  0  0  -0.064663  0  4.035345  0  0  -0.018693  -0.046175  0  3.993844  0
C  C82  1  0.03332802  0.06705386  0.27779697  1  0  -0.034078  0  3.663917  0  0  -0.076749  0  3.918823  0  0  -0.07172  0  3.935673  0  0  -0.066123  -0.079704  0  3.90725  0
C  C83  1  0.96667972  0.93295034  0.77779889  1  0  -0.033997  0  3.664159  0  0  -0.076641  0  3.919108  0  0  -0.071613  0  3.935953  0  0  -0.066084  -0.079608  0  3.90756  0
C  C84  1  0.98902368  0.09240373  0.35175992  1  0  -0.076058  0  3.785931  0  0  -0.051295  0  4.028194  0  0  -0.062501  0  4.052329  0  0  -0.018797  -0.044122  0  4.012028  0
C  C85  1  0.01097824  0.90759490  0.85175668  1  0  -0.076125  0  3.786097  0  0  -0.05141  0  4.028363  0  0  -0.062609  0  4.052491  0  0  -0.018835  -0.044235  0  4.012203  0
C  C86  1  0.97096108  0.18920347  0.36903165  1  0  -0.076664  0  3.671292  0  0  -0.113603  0  3.921962  0  0  -0.111202  0  3.940234  0  0  -0.070774  -0.114822  0  3.909546  0
C  C87  1  0.02904473  0.81079397  0.86903749  1  0  -0.076763  0  3.67117  0  0  -0.113606  0  3.921913  0  0  -0.11121  0  3.940178  0  0  -0.07084  -0.114829  0  3.909496  0
C  C88  1  0.98420179  0.26157821  0.31184859  1  0  0.046385  0  3.768832  0  0  0.06506  0  4.005183  0  0  0.061981  0  4.0297  0  0  -0.003222  0.066761  0  3.988644  0
C  C89  1  0.01580100  0.73842513  0.81185385  1  0  0.046707  0  3.768588  0  0  0.065172  0  4.005179  0  0  0.062096  0  4.029695  0  0  -0.00314  0.06688  0  3.988626  0
C  C90  1  0.01691438  0.23316102  0.23676532  1  0  -0.076931  0  3.654968  0  0  -0.113801  0  3.90656  0  0  -0.111405  0  3.925083  0  0  -0.068244  -0.115013  0  3.893945  0
C  C91  1  0.98309427  0.76684422  0.73677288  1  0  -0.077047  0  3.655549  0  0  -0.113944  0  3.907213  0  0  -0.111549  0  3.925735  0  0  -0.068277  -0.11515  0  3.894585  0
C  C92  1  0.10021095  0.11354741  0.14120266  1  0  0.693329  0  3.852475  0  0  0.640074  0  4.143042  0  0  0.676358  0  4.135133  0  0  0.228135  0.615388  0  4.147634  0
C  C93  1  0.89978880  0.88646029  0.64120740  1  0  0.693382  0  3.852393  0  0  0.640069  0  4.143051  0  0  0.676351  0  4.135145  0  0  0.228172  0.615373  0  4.147656  0
C  C94  1  0.95244236  0.01431563  0.41056028  1  0  0.68996  0  3.842586  0  0  0.632275  0  4.134818  0  0  0.668455  0  4.126327  0  0  0.221803  0.607563  0  4.140039  0
C  C95  1  0.04756779  0.98568444  0.91056160  1  0  0.6899  0  3.842529  0  0  0.632323  0  4.134632  0  0  0.668506  0  4.126138  0  0  0.221854  0.60761  0  4.139851  0
C  C96  1  0.97604753  0.36510892  0.33164572  1  0  0.049779  0  3.780084  0  0  0.064106  0  4.009752  0  0  0.06502  0  4.034586  0  0  -0.009823  0.063667  0  3.992882  0
C  C97  1  0.02394043  0.63488876  0.83165613  1  0  0.049722  0  3.779739  0  0  0.064227  0  4.009263  0  0  0.065143  0  4.034085  0  0  -0.009833  0.06378  0  3.992394  0
C  C98  1  0.89351210  0.39007296  0.39925899  1  0  -0.123963  0  3.75144  0  0  -0.143077  0  4.003766  0  0  -0.147237  0  4.025209  0  0  -0.093978  -0.140297  0  3.989154  0
C  C99  1  0.10647269  0.60991560  0.89927125  1  0  -0.124107  0  3.751443  0  0  -0.14317  0  4.003803  0  0  -0.147328  0  4.025239  0  0  -0.094088  -0.140392  0  3.989195  0
C  C100  1  0.90934367  0.48850080  0.42133344  1  0  -0.073219  0  3.755432  0  0  -0.097319  0  4.002843  0  0  -0.097041  0  4.023237  0  0  -0.087432  -0.097309  0  3.988965  0
C  C101  1  0.09063579  0.51148647  0.92134782  1  0  -0.073193  0  3.755497  0  0  -0.097307  0  4.00289  0  0  -0.097021  0  4.023277  0  0  -0.087388  -0.09729  0  3.989017  0
C  C102  1  0.01230602  0.56427568  0.37790426  1  0  -0.059167  0  3.765137  0  0  -0.034605  0  3.992918  0  0  -0.042935  0  4.016766  0  0  -0.018644  -0.029194  0  3.97681  0
C  C103  1  0.98766551  0.43571788  0.87791497  1  0  -0.058776  0  3.76504  0  0  -0.034351  0  3.992907  0  0  -0.042687  0  4.016759  0  0  -0.018538  -0.028938  0  3.9768  0
C  C104  1  0.08671914  0.54040177  0.30876975  1  0  -0.065073  0  3.752558  0  0  -0.089452  0  4.000282  0  0  -0.08926  0  4.02117  0  0  -0.084569  -0.089381  0  3.98609  0
C  C105  1  0.91325877  0.45959873  0.80878039  1  0  -0.065142  0  3.752532  0  0  -0.089505  0  4.000304  0  0  -0.089309  0  4.021185  0  0  -0.08452  -0.08943  0  3.986101  0
C  C106  1  0.06552537  0.44246995  0.28544402  1  0  -0.107052  0  3.743443  0  0  -0.125593  0  3.987342  0  0  -0.129618  0  4.010277  0  0  -0.089976  -0.122941  0  3.971827  0
C  C107  1  0.93445862  0.55753409  0.78545198  1  0  -0.106993  0  3.743103  0  0  -0.12558  0  3.986949  0  0  -0.129587  0  4.009894  0  0  -0.089933  -0.122924  0  3.971425  0
C  C108  1  0.05158367  0.66848839  0.40629456  1  0  0.663869  0  3.893924  0  0  0.616598  0  4.183357  0  0  0.651141  0  4.176059  0  0  0.210813  0.593123  0  4.187544  0
C  C109  1  0.94840510  0.33150368  0.90629998  1  0  0.66352  0  3.894345  0  0  0.616417  0  4.183589  0  0  0.650959  0  4.176294  0  0  0.210691  0.592931  0  4.187795  0
O  O110  1  0.56108351  0.83372256  0.98186256  1  0  -0.649593  0  2.044299  0  0  -0.581124  0  2.310316  0  0  -0.610072  0  2.29306  0  0  -0.316442  -0.56098  0  2.321602  0
O  O111  1  0.43891875  0.16628533  0.48186212  1  0  -0.649682  0  2.044103  0  0  -0.581182  0  2.310081  0  0  -0.610133  0  2.292826  0  0  -0.316438  -0.561033  0  2.321366  0
O  O112  1  0.77451427  0.11395972  0.96464487  1  0  -0.846883  0  1.897985  0  0  -0.78319  0  2.09513  0  0  -0.806873  0  2.060064  0  0  -0.586675  -0.76642  0  2.119319  0
O  O113  1  0.22548187  0.88601975  0.46465994  1  0  -0.846766  0  1.89821  0  0  -0.783101  0  2.095342  0  0  -0.806783  0  2.060278  0  0  -0.586579  -0.766318  0  2.119508  0
O  O114  1  0.40821623  0.95379051  0.94592023  1  0  -0.661483  0  2.136941  0  0  -0.59006  0  2.407397  0  0  -0.621097  0  2.395038  0  0  -0.315026  -0.568171  0  2.414897  0
O  O115  1  0.59178150  0.04621386  0.44592458  1  0  -0.661399  0  2.136949  0  0  -0.589957  0  2.407388  0  0  -0.620987  0  2.395018  0  0  -0.314953  -0.568087  0  2.414936  0
O  O116  1  0.27737080  0.85241281  0.09856539  1  0  -0.887246  0  1.939505  0  0  -0.820388  0  2.166647  0  0  -0.843655  0  2.130562  0  0  -0.560213  -0.803898  0  2.191547  0
O  O117  1  0.72265153  0.14759742  0.59856732  1  0  -0.887301  0  1.93934  0  0  -0.820387  0  2.166575  0  0  -0.84365  0  2.130484  0  0  -0.560205  -0.803911  0  2.191505  0
O  O118  1  0.37155313  0.04428829  0.67680332  1  0  -0.599418  0  2.018199  0  0  -0.529376  0  2.271721  0  0  -0.558537  0  2.257145  0  0  -0.297638  -0.509255  0  2.281287  0
O  O119  1  0.62848027  0.95572289  0.17680148  1  0  -0.599336  0  2.018193  0  0  -0.529271  0  2.271777  0  0  -0.558436  0  2.257213  0  0  -0.297614  -0.509153  0  2.281343  0
O  O120  1  0.36412818  0.16405784  0.97295949  1  0  -0.815735  0  1.875315  0  0  -0.768252  0  2.086847  0  0  -0.785478  0  2.057143  0  0  -0.542004  -0.756163  0  2.107649  0
O  O121  1  0.63586743  0.83592734  0.47295964  1  0  -0.81594  0  1.875236  0  0  -0.768369  0  2.086783  0  0  -0.785592  0  2.057069  0  0  -0.542111  -0.756273  0  2.107592  0
O  O122  1  0.44843577  0.94281842  0.58738519  1  0  -0.717165  0  2.129604  0  0  -0.643899  0  2.391002  0  0  -0.670839  0  2.37356  0  0  -0.328698  -0.625037  0  2.402496  0
O  O123  1  0.55157840  0.05719951  0.08738636  1  0  -0.717108  0  2.129502  0  0  -0.643731  0  2.390911  0  0  -0.670677  0  2.373473  0  0  -0.328576  -0.624869  0  2.402406  0
O  O124  1  0.87339388  0.84144480  0.08325436  1  0  -0.804729  0  1.885758  0  0  -0.745755  0  2.087482  0  0  -0.767103  0  2.055236  0  0  -0.56018  -0.730731  0  2.109903  0
O  O125  1  0.12661970  0.15855622  0.58324491  1  0  -0.804789  0  1.885817  0  0  -0.745836  0  2.087542  0  0  -0.767179  0  2.05529  0  0  -0.560216  -0.730812  0  2.10996  0
O  O126  1  0.71793485  0.33122159  0.59660769  1  0  -0.612847  0  1.928718  0  0  -0.560142  0  2.132004  0  0  -0.585056  0  2.120747  0  0  -0.322225  -0.542818  0  2.139258  0
O  O127  1  0.28207239  0.66878723  0.09659333  1  0  -0.612816  0  1.928636  0  0  -0.560034  0  2.131929  0  0  -0.584944  0  2.120671  0  0  -0.322086  -0.542712  0  2.139189  0
O  O128  1  0.44119506  0.27472976  0.64686296  1  0  -0.658255  0  2.040753  0  0  -0.587859  0  2.299114  0  0  -0.617529  0  2.282496  0  0  -0.329141  -0.567062  0  2.309859  0
O  O129  1  0.55880449  0.72527706  0.14686064  1  0  -0.658432  0  2.0407  0  0  -0.587991  0  2.29908  0  0  -0.617664  0  2.282456  0  0  -0.329171  -0.567192  0  2.309831  0
O  O130  1  0.17318337  0.03778591  0.13261945  1  0  -0.652636  0  2.08811  0  0  -0.581186  0  2.351855  0  0  -0.611883  0  2.339546  0  0  -0.310363  -0.559612  0  2.359415  0
O  O131  1  0.82682586  0.96221904  0.63262156  1  0  -0.652791  0  2.088484  0  0  -0.58121  0  2.352143  0  0  -0.611924  0  2.339879  0  0  -0.310361  -0.559623  0  2.359704  0
O  O132  1  0.07033164  0.17261386  0.08862728  1  0  -0.654008  0  2.103412  0  0  -0.582938  0  2.377748  0  0  -0.611585  0  2.359936  0  0  -0.317905  -0.562988  0  2.389374  0
O  O133  1  0.92965796  0.82738262  0.58862852  1  0  -0.653991  0  2.103105  0  0  -0.5829  0  2.377465  0  0  -0.611548  0  2.359655  0  0  -0.317917  -0.562944  0  2.389091  0
O  O134  1  0.91994400  0.92482345  0.38816301  1  0  -0.611616  0  2.016072  0  0  -0.540949  0  2.262553  0  0  -0.569528  0  2.248383  0  0  -0.30405  -0.521215  0  2.271865  0
O  O135  1  0.08006486  0.07517793  0.88816162  1  0  -0.611609  0  2.016132  0  0  -0.540923  0  2.262522  0  0  -0.569509  0  2.248353  0  0  -0.304055  -0.521189  0  2.271837  0
O  O136  1  0.94931758  0.03746038  0.48207051  1  0  -0.71159  0  2.12567  0  0  -0.634982  0  2.384997  0  0  -0.663474  0  2.368373  0  0  -0.322706  -0.615046  0  2.395927  0
O  O137  1  0.05069436  0.96253712  0.98207622  1  0  -0.711514  0  2.125644  0  0  -0.634983  0  2.384929  0  0  -0.663477  0  2.368306  0  0  -0.322686  -0.615046  0  2.395853  0
O  O138  1  0.92328090  0.69715850  0.44396799  1  0  -0.665373  0  2.017195  0  0  -0.597686  0  2.275768  0  0  -0.626853  0  2.258721  0  0  -0.33875  -0.577234  0  2.286772  0
O  O139  1  0.07670398  0.30283558  0.94397030  1  0  -0.665187  0  2.017565  0  0  -0.597537  0  2.276053  0  0  -0.626699  0  2.259002  0  0  -0.338708  -0.577083  0  2.287066  0
O  O140  1  0.20544932  0.72013774  0.39279055  1  0  -0.633305  0  1.913172  0  0  -0.582329  0  2.112454  0  0  -0.605967  0  2.100494  0  0  -0.334161  -0.565865  0  2.120292  0
O  O141  1  0.79453249  0.27985024  0.89279114  1  0  -0.633336  0  1.913017  0  0  -0.582446  0  2.112174  0  0  -0.606085  0  2.100216  0  0  -0.334141  -0.565974  0  2.120019  0
