# generated using pymatgen
data_K2Cd3H20(C5O6)4
_symmetry_space_group_name_H-M   'P 1'
_cell_length_a   8.22653761
_cell_length_b   14.12123576
_cell_length_c   14.12133392
_cell_angle_alpha   77.86686782
_cell_angle_beta   73.06718787
_cell_angle_gamma   73.06524482
_symmetry_Int_Tables_number   1
_chemical_formula_structural   K2Cd3H20(C5O6)4
_chemical_formula_sum   'K4 Cd6 H40 C40 O48'
_cell_volume   1487.14049573
_cell_formula_units_Z   2
loop_
 _symmetry_equiv_pos_site_id
 _symmetry_equiv_pos_as_xyz
  1  'x, y, z'
loop_
 _atom_site_type_symbol
 _atom_site_label
 _atom_site_symmetry_multiplicity
 _atom_site_fract_x
 _atom_site_fract_y
 _atom_site_fract_z
 _atom_site_occupancy
 _atom_site_hle17_bader_spin_density
 _atom_site_hle17_ddec_charge
 _atom_site_hle17_ddec_spin_density
 _atom_site_hle17_ddec_sum_bond_order
 _atom_site_hle17_magmom
 _atom_site_hse06_10hf_bader_spin_density
 _atom_site_hse06_10hf_ddec_charge
 _atom_site_hse06_10hf_ddec_spin_density
 _atom_site_hse06_10hf_ddec_sum_bond_order
 _atom_site_hse06_10hf_magmom
 _atom_site_hse06_bader_spin_density
 _atom_site_hse06_ddec_charge
 _atom_site_hse06_ddec_spin_density
 _atom_site_hse06_ddec_sum_bond_order
 _atom_site_hse06_magmom
 _atom_site_pbe_bader_spin_density
 _atom_site_pbe_cm5_charge
 _atom_site_pbe_ddec_charge
 _atom_site_pbe_ddec_spin_density
 _atom_site_pbe_ddec_sum_bond_order
 _atom_site_pbe_magmom
K  K0  1  0.50000440  0.62940003  0.37056829  1  0  0.923843  0  0.438279  0  0  0.88786  0  0.605163  0  0  0.9003  0  0.583645  0  0  0.721696  0.877969  0  0.621248  0
K  K1  1  0.50003922  0.87053763  0.12943606  1  0  0.923923  0  0.437755  0  0  0.888184  0  0.60414  0  0  0.900612  0  0.582633  0  0  0.721347  0.878359  0  0.620131  0
K  K2  1  0.50002333  0.37058341  0.62943966  1  0  0.92378  0  0.438399  0  0  0.887816  0  0.605317  0  0  0.900271  0  0.583777  0  0  0.721818  0.8779  0  0.621427  0
K  K3  1  0.49997354  0.12945047  0.87056147  1  0  0.923932  0  0.437779  0  0  0.888203  0  0.604164  0  0  0.900622  0  0.582667  0  0  0.721358  0.878393  0  0.620132  0
Cd  Cd4  1  0.00000961  0.74999033  0.25000687  1  0  1.225983  0  1.548209  0  0  1.049429  0  1.974624  0  0  1.114114  0  1.914613  0  0  0.799278  1.003304  0  2.015518  0
Cd  Cd5  1  0.99999290  0.25001002  0.74999234  1  0  1.226053  0  1.548123  0  0  1.04955  0  1.974506  0  0  1.114228  0  1.914494  0  0  0.799332  1.003426  0  2.015401  0
Cd  Cd6  1  0.79280768  0.95726584  0.45732775  1  0  1.302062  0  1.550357  0  0  1.125032  0  1.995085  0  0  1.182177  0  1.935616  0  0  0.800085  1.083333  0  2.03665  0
Cd  Cd7  1  0.20717610  0.54268777  0.04274349  1  0  1.302137  0  1.550368  0  0  1.125151  0  1.995089  0  0  1.182289  0  1.935624  0  0  0.80017  1.083461  0  2.036661  0
Cd  Cd8  1  0.20717747  0.04273933  0.54267602  1  0  1.30208  0  1.550492  0  0  1.125071  0  1.995263  0  0  1.182213  0  1.93579  0  0  0.800071  1.083377  0  2.036829  0
Cd  Cd9  1  0.79283373  0.45731465  0.95724602  1  0  1.302119  0  1.550562  0  0  1.125095  0  1.995326  0  0  1.182232  0  1.935859  0  0  0.800111  1.083406  0  2.036889  0
H  H10  1  0.38573526  0.43120883  0.43158222  1  0  0.443759  0  0.840137  0  0  0.417818  0  0.897779  0  0  0.42702  0  0.88408  0  0  0.295543  0.411257  0  0.90755  0
H  H11  1  0.61426296  0.56859688  0.56862085  1  0  0.443807  0  0.839948  0  0  0.417863  0  0.89773  0  0  0.427063  0  0.884033  0  0  0.295487  0.411296  0  0.907516  0
H  H12  1  0.24847146  0.06863054  0.06871573  1  0  0.445102  0  0.839027  0  0  0.419329  0  0.896016  0  0  0.428568  0  0.882234  0  0  0.295787  0.412729  0  0.905857  0
H  H13  1  0.75152856  0.93136103  0.93129384  1  0  0.44505  0  0.839077  0  0  0.419261  0  0.896101  0  0  0.428497  0  0.882324  0  0  0.295769  0.41266  0  0.905953  0
H  H14  1  0.21647611  0.49579754  0.49595238  1  0  0.388707  0  0.8976  0  0  0.362343  0  0.970754  0  0  0.369632  0  0.959805  0  0  0.291887  0.357184  0  0.97852  0
H  H15  1  0.78352890  0.50410541  0.50415624  1  0  0.388776  0  0.897375  0  0  0.362387  0  0.970681  0  0  0.369676  0  0.959731  0  0  0.29195  0.357229  0  0.978444  0
H  H16  1  0.20845034  0.00407250  0.00418323  1  0  0.385684  0  0.902991  0  0  0.358962  0  0.975963  0  0  0.366265  0  0.965  0  0  0.289613  0.35379  0  0.983742  0
H  H17  1  0.79155786  0.99589494  0.99584395  1  0  0.385639  0  0.903137  0  0  0.358934  0  0.975998  0  0  0.366234  0  0.965042  0  0  0.289648  0.353771  0  0.983762  0
H  H18  1  0.63606617  0.75134018  0.51542545  1  0  0.412486  0  0.890301  0  0  0.383191  0  0.952358  0  0  0.393067  0  0.937817  0  0  0.28185  0.376198  0  0.962652  0
H  H19  1  0.36397672  0.48456081  0.24866441  1  0  0.412671  0  0.889991  0  0  0.383399  0  0.952065  0  0  0.393277  0  0.937517  0  0  0.281852  0.376406  0  0.962358  0
H  H20  1  0.90276150  0.74839456  0.98456908  1  0  0.410797  0  0.892325  0  0  0.381851  0  0.954024  0  0  0.391693  0  0.939516  0  0  0.281388  0.374875  0  0.964305  0
H  H21  1  0.09723456  0.01541189  0.25159881  1  0  0.410892  0  0.892248  0  0  0.381986  0  0.953861  0  0  0.391821  0  0.939367  0  0  0.281447  0.375009  0  0.964147  0
H  H22  1  0.36387587  0.24866692  0.48462627  1  0  0.412604  0  0.890175  0  0  0.3833  0  0.952173  0  0  0.39316  0  0.937663  0  0  0.282085  0.37631  0  0.962462  0
H  H23  1  0.63608318  0.51540005  0.75133198  1  0  0.412481  0  0.890299  0  0  0.383137  0  0.952373  0  0  0.392994  0  0.937866  0  0  0.281848  0.376154  0  0.96265  0
H  H24  1  0.09723554  0.25159971  0.01543004  1  0  0.410749  0  0.892462  0  0  0.381821  0  0.95412  0  0  0.391665  0  0.939609  0  0  0.281365  0.374842  0  0.964409  0
H  H25  1  0.90276347  0.98458394  0.74840483  1  0  0.41084  0  0.892309  0  0  0.381917  0  0.953956  0  0  0.391752  0  0.939462  0  0  0.281427  0.37494  0  0.964241  0
H  H26  1  0.44234190  0.77602302  0.57981571  1  0  0.402513  0  0.890639  0  0  0.375938  0  0.954638  0  0  0.383835  0  0.943107  0  0  0.285186  0.370382  0  0.962756  0
H  H27  1  0.55773235  0.42023989  0.22387640  1  0  0.402253  0  0.891029  0  0  0.375844  0  0.954887  0  0  0.38374  0  0.943355  0  0  0.285006  0.370279  0  0.963024  0
H  H28  1  0.79816028  0.72386819  0.92002431  1  0  0.402905  0  0.888667  0  0  0.376788  0  0.953062  0  0  0.384651  0  0.941563  0  0  0.28494  0.37124  0  0.961184  0
H  H29  1  0.20183702  0.08000518  0.27605557  1  0  0.402937  0  0.888082  0  0  0.376774  0  0.952994  0  0  0.384633  0  0.941499  0  0  0.285006  0.371224  0  0.961129  0
H  H30  1  0.55754882  0.22412912  0.42012055  1  0  0.402632  0  0.890384  0  0  0.376064  0  0.954323  0  0  0.383946  0  0.942823  0  0  0.285481  0.370514  0  0.962432  0
H  H31  1  0.44237430  0.57982516  0.77597473  1  0  0.402658  0  0.890209  0  0  0.376011  0  0.954469  0  0  0.383905  0  0.942944  0  0  0.285351  0.370459  0  0.962583  0
H  H32  1  0.20184869  0.27614469  0.07995786  1  0  0.402924  0  0.888592  0  0  0.376768  0  0.953114  0  0  0.384631  0  0.941619  0  0  0.284887  0.371218  0  0.961241  0
H  H33  1  0.79814951  0.92000910  0.72393036  1  0  0.402919  0  0.888306  0  0  0.376766  0  0.953042  0  0  0.384628  0  0.941543  0  0  0.285006  0.371214  0  0.961176  0
H  H34  1  0.52302907  0.63931558  0.12836744  1  0  0.421245  0  0.872692  0  0  0.39508  0  0.929437  0  0  0.403759  0  0.916519  0  0  0.295175  0.388939  0  0.938588  0
H  H35  1  0.47698395  0.87161485  0.36068646  1  0  0.421372  0  0.872514  0  0  0.395188  0  0.929275  0  0  0.403864  0  0.91636  0  0  0.295234  0.389048  0  0.938423  0
H  H36  1  0.29095227  0.86068556  0.37151944  1  0  0.42115  0  0.872711  0  0  0.395178  0  0.929158  0  0  0.403825  0  0.916298  0  0  0.294983  0.389042  0  0.938305  0
H  H37  1  0.70906894  0.62847949  0.13928880  1  0  0.421381  0  0.872434  0  0  0.39551  0  0.928707  0  0  0.404155  0  0.915853  0  0  0.295155  0.389377  0  0.937849  0
H  H38  1  0.47696729  0.36068635  0.87162880  1  0  0.421237  0  0.872687  0  0  0.394969  0  0.929586  0  0  0.403647  0  0.91667  0  0  0.295116  0.388827  0  0.938737  0
H  H39  1  0.52301912  0.12839575  0.63931215  1  0  0.42126  0  0.872638  0  0  0.395107  0  0.929393  0  0  0.403786  0  0.916474  0  0  0.295203  0.388964  0  0.938546  0
H  H40  1  0.70906277  0.13930759  0.62847217  1  0  0.421279  0  0.872572  0  0  0.39536  0  0.928933  0  0  0.404009  0  0.916067  0  0  0.295086  0.389223  0  0.93808  0
H  H41  1  0.29092579  0.37152455  0.86070897  1  0  0.421309  0  0.87254  0  0  0.395446  0  0.928809  0  0  0.404092  0  0.915952  0  0  0.295121  0.389311  0  0.937955  0
H  H42  1  0.92603411  0.56610818  0.56609823  1  0  0.089819  0  0.961423  0  0  0.103959  0  1.020269  0  0  0.10753  0  1.017894  0  0  0.109862  0.10128  0  1.022375  0
H  H43  1  0.07396107  0.43390410  0.43389142  1  0  0.089825  0  0.961405  0  0  0.103959  0  1.020257  0  0  0.107532  0  1.01788  0  0  0.109859  0.101281  0  1.022361  0
H  H44  1  0.05814543  0.93392336  0.93391539  1  0  0.090328  0  0.96081  0  0  0.104318  0  1.019926  0  0  0.107946  0  1.017521  0  0  0.109817  0.101581  0  1.02206  0
H  H45  1  0.94184355  0.06608438  0.06608617  1  0  0.090274  0  0.961028  0  0  0.104305  0  1.02008  0  0  0.107908  0  1.017704  0  0  0.109781  0.101567  0  1.022215  0
H  H46  1  0.16256090  0.74289312  0.74289300  1  0  0.121057  0  0.930057  0  0  0.128577  0  0.992983  0  0  0.132406  0  0.990139  0  0  0.116269  0.125789  0  0.99512  0
H  H47  1  0.83745409  0.25710792  0.25709423  1  0  0.121182  0  0.929998  0  0  0.128691  0  0.992945  0  0  0.132544  0  0.990068  0  0  0.1163  0.1259  0  0.995087  0
H  H48  1  0.64783490  0.75690265  0.75690604  1  0  0.121404  0  0.930911  0  0  0.128337  0  0.994472  0  0  0.132247  0  0.991511  0  0  0.115832  0.125522  0  0.996649  0
H  H49  1  0.35215091  0.24310580  0.24308879  1  0  0.121474  0  0.930923  0  0  0.12843  0  0.994433  0  0  0.132338  0  0.991474  0  0  0.115843  0.125614  0  0.996614  0
C  C50  1  0.99305671  0.73119570  0.45476352  1  0  0.664754  0  3.912863  0  0  0.606536  0  4.214833  0  0  0.641208  0  4.207306  0  0  0.212942  0.582824  0  4.219127  0
C  C51  1  0.00694777  0.54523635  0.26881073  1  0  0.664871  0  3.913127  0  0  0.606543  0  4.21522  0  0  0.641219  0  4.207686  0  0  0.213003  0.582844  0  4.219489  0
C  C52  1  0.17879443  0.76872298  0.04515815  1  0  0.666658  0  3.908416  0  0  0.607513  0  4.211643  0  0  0.642218  0  4.204068  0  0  0.213595  0.583824  0  4.215949  0
C  C53  1  0.82119769  0.95484066  0.23128480  1  0  0.666654  0  3.908585  0  0  0.607439  0  4.211902  0  0  0.64214  0  4.204334  0  0  0.21357  0.583751  0  4.216205  0
C  C54  1  0.00691965  0.26882243  0.54523595  1  0  0.664933  0  3.913134  0  0  0.606651  0  4.215179  0  0  0.641335  0  4.207628  0  0  0.212997  0.582934  0  4.219485  0
C  C55  1  0.99308182  0.45476271  0.73117198  1  0  0.664988  0  3.913215  0  0  0.606673  0  4.215329  0  0  0.641359  0  4.207775  0  0  0.213052  0.582954  0  4.219637  0
C  C56  1  0.82120450  0.23127932  0.95483959  1  0  0.666641  0  3.908546  0  0  0.607467  0  4.2118  0  0  0.642179  0  4.204235  0  0  0.213639  0.583772  0  4.216104  0
C  C57  1  0.17878847  0.04516391  0.76871821  1  0  0.666369  0  3.908788  0  0  0.60732  0  4.211897  0  0  0.642029  0  4.204334  0  0  0.213569  0.583631  0  4.216198  0
C  C58  1  0.12385333  0.84553777  0.56186641  1  0  0.666884  0  3.886143  0  0  0.612472  0  4.179532  0  0  0.649171  0  4.170709  0  0  0.218024  0.587438  0  4.184907  0
C  C59  1  0.87616657  0.43813207  0.15445240  1  0  0.666821  0  3.885989  0  0  0.612356  0  4.17954  0  0  0.649055  0  4.170719  0  0  0.217976  0.587318  0  4.184912  0
C  C60  1  0.53092154  0.65438029  0.93805141  1  0  0.666641  0  3.885842  0  0  0.611432  0  4.179833  0  0  0.6481  0  4.170998  0  0  0.218521  0.586399  0  4.185209  0
C  C61  1  0.46906778  0.06195417  0.34561253  1  0  0.666452  0  3.88597  0  0  0.611258  0  4.179974  0  0  0.647932  0  4.171148  0  0  0.218462  0.586225  0  4.185348  0
C  C62  1  0.87612818  0.15447388  0.43811948  1  0  0.666688  0  3.885913  0  0  0.612142  0  4.179488  0  0  0.648836  0  4.170678  0  0  0.21783  0.587111  0  4.184859  0
C  C63  1  0.12386464  0.56187397  0.84553117  1  0  0.666646  0  3.886205  0  0  0.612249  0  4.179587  0  0  0.648947  0  4.170768  0  0  0.217959  0.587215  0  4.184959  0
C  C64  1  0.46905397  0.34561839  0.06194703  1  0  0.66636  0  3.88605  0  0  0.611163  0  4.180001  0  0  0.64783  0  4.171167  0  0  0.218466  0.58613  0  4.185379  0
C  C65  1  0.53093265  0.93805005  0.65438599  1  0  0.666355  0  3.886015  0  0  0.611175  0  4.17996  0  0  0.647841  0  4.171134  0  0  0.218471  0.586143  0  4.18533  0
C  C66  1  0.98112459  0.60420656  0.60420069  1  0  -0.114434  0  3.705525  0  0  -0.139862  0  3.948815  0  0  -0.144091  0  3.966126  0  0  -0.076797  -0.137327  0  3.937588  0
C  C67  1  0.01887316  0.39579916  0.39579335  1  0  -0.114361  0  3.705689  0  0  -0.139786  0  3.948844  0  0  -0.144018  0  3.966156  0  0  -0.076738  -0.137252  0  3.937625  0
C  C68  1  0.18940385  0.89576864  0.89576126  1  0  -0.113971  0  3.705456  0  0  -0.139364  0  3.947758  0  0  -0.143676  0  3.965114  0  0  -0.07739  -0.136686  0  3.936577  0
C  C69  1  0.81058879  0.10423753  0.10423653  1  0  -0.113878  0  3.705448  0  0  -0.139337  0  3.947683  0  0  -0.143646  0  3.965035  0  0  -0.077288  -0.136663  0  3.936506  0
C  C70  1  0.01722689  0.69615581  0.55899277  1  0  -0.002267  0  3.684517  0  0  0.007657  0  3.922736  0  0  0.009103  0  3.939407  0  0  0.013908  0.006773  0  3.911611  0
C  C71  1  0.98278444  0.44100644  0.30384204  1  0  -0.002474  0  3.684676  0  0  0.007616  0  3.922841  0  0  0.009061  0  3.93952  0  0  0.01384  0.006729  0  3.911707  0
C  C72  1  0.27214266  0.80377035  0.94091833  1  0  -0.002949  0  3.68321  0  0  0.007476  0  3.920382  0  0  0.008924  0  3.937078  0  0  0.014463  0.006464  0  3.909364  0
C  C73  1  0.72784327  0.05908352  0.19623278  1  0  -0.003003  0  3.683246  0  0  0.007474  0  3.92036  0  0  0.008961  0  3.936998  0  0  0.01442  0.006459  0  3.90935  0
C  C74  1  0.98277444  0.30385489  0.44099985  1  0  -0.002367  0  3.684907  0  0  0.007648  0  3.923068  0  0  0.009089  0  3.939738  0  0  0.013914  0.006756  0  3.911957  0
C  C75  1  0.01722357  0.55899743  0.69614599  1  0  -0.002394  0  3.684855  0  0  0.007545  0  3.923129  0  0  0.008985  0  3.939799  0  0  0.013911  0.006662  0  3.912006  0
C  C76  1  0.72784006  0.19623389  0.05908019  1  0  -0.002866  0  3.683291  0  0  0.007601  0  3.920408  0  0  0.009037  0  3.937118  0  0  0.014449  0.006614  0  3.909356  0
C  C77  1  0.27215056  0.94092097  0.80376799  1  0  -0.002755  0  3.68307  0  0  0.007569  0  3.920313  0  0  0.009004  0  3.937026  0  0  0.014477  0.006574  0  3.909272  0
C  C78  1  0.08383175  0.74691258  0.60904556  1  0  -0.08786  0  3.700465  0  0  -0.073431  0  3.938016  0  0  -0.082808  0  3.95835  0  0  -0.006665  -0.06764  0  3.924716  0
C  C79  1  0.91617925  0.39095359  0.25307757  1  0  -0.087805  0  3.700411  0  0  -0.073517  0  3.938181  0  0  -0.082912  0  3.958548  0  0  -0.006749  -0.067719  0  3.924872  0
C  C80  1  0.43946610  0.75295695  0.89080230  1  0  -0.086704  0  3.699517  0  0  -0.071328  0  3.935757  0  0  -0.080682  0  3.956078  0  0  -0.006505  -0.065456  0  3.922395  0
C  C81  1  0.56052490  0.10920044  0.24703962  1  0  -0.086573  0  3.699426  0  0  -0.071193  0  3.935601  0  0  -0.080561  0  3.95592  0  0  -0.006438  -0.065323  0  3.922241  0
C  C82  1  0.91616349  0.25309529  0.39094702  1  0  -0.087817  0  3.70058  0  0  -0.073409  0  3.938244  0  0  -0.082787  0  3.958587  0  0  -0.006731  -0.067616  0  3.924946  0
C  C83  1  0.08383776  0.60904799  0.74690743  1  0  -0.087783  0  3.700474  0  0  -0.073357  0  3.938046  0  0  -0.082736  0  3.958385  0  0  -0.006694  -0.067565  0  3.924744  0
C  C84  1  0.56052311  0.24704542  0.10919244  1  0  -0.086652  0  3.6996  0  0  -0.071292  0  3.935795  0  0  -0.080643  0  3.956123  0  0  -0.006451  -0.065432  0  3.922432  0
C  C85  1  0.43947504  0.89080127  0.75295736  1  0  -0.086651  0  3.699383  0  0  -0.071219  0  3.935566  0  0  -0.080568  0  3.955892  0  0  -0.006406  -0.065354  0  3.922203  0
C  C86  1  0.11391068  0.70307673  0.70307553  1  0  -0.01191  0  3.6204  0  0  -0.046791  0  3.867876  0  0  -0.04075  0  3.882655  0  0  -0.052783  -0.050554  0  3.858068  0
C  C87  1  0.88610474  0.29692428  0.29691321  1  0  -0.012025  0  3.620514  0  0  -0.046882  0  3.868083  0  0  -0.040856  0  3.882854  0  0  -0.052752  -0.050649  0  3.85828  0
C  C88  1  0.51970071  0.79679038  0.79679420  1  0  -0.014727  0  3.622227  0  0  -0.049782  0  3.869041  0  0  -0.043824  0  3.883888  0  0  -0.053781  -0.053522  0  3.859126  0
C  C89  1  0.48027988  0.20321520  0.20320359  1  0  -0.014904  0  3.622071  0  0  -0.049948  0  3.868898  0  0  -0.043994  0  3.883754  0  0  -0.053783  -0.053687  0  3.858984  0
O  O90  1  0.84298000  0.78070408  0.44098936  1  0  -0.670485  0  2.044713  0  0  -0.595492  0  2.283789  0  0  -0.625879  0  2.272397  0  0  -0.312799  -0.573786  0  2.290862  0
O  O91  1  0.15701204  0.55901300  0.21930260  1  0  -0.670474  0  2.044772  0  0  -0.595502  0  2.284034  0  0  -0.625888  0  2.272639  0  0  -0.312831  -0.573795  0  2.291099  0
O  O92  1  0.06463996  0.71911720  0.05887924  1  0  -0.669191  0  2.044585  0  0  -0.593962  0  2.284159  0  0  -0.624465  0  2.272873  0  0  -0.311591  -0.572164  0  2.291117  0
O  O93  1  0.93536400  0.94112530  0.28089041  1  0  -0.669154  0  2.044236  0  0  -0.594002  0  2.283977  0  0  -0.624444  0  2.272554  0  0  -0.311697  -0.572204  0  2.290929  0
O  O94  1  0.15698741  0.21930153  0.55902041  1  0  -0.670626  0  2.044939  0  0  -0.595687  0  2.284115  0  0  -0.626072  0  2.272711  0  0  -0.312866  -0.573977  0  2.291196  0
O  O95  1  0.84300797  0.44098198  0.78068829  1  0  -0.670602  0  2.044947  0  0  -0.595574  0  2.284045  0  0  -0.625956  0  2.272643  0  0  -0.312857  -0.573871  0  2.291127  0
O  O96  1  0.93536379  0.28088922  0.94112081  1  0  -0.66915  0  2.044309  0  0  -0.59399  0  2.284021  0  0  -0.624446  0  2.272616  0  0  -0.311642  -0.572198  0  2.290985  0
O  O97  1  0.06462882  0.05888327  0.71910966  1  0  -0.669054  0  2.04438  0  0  -0.593918  0  2.284004  0  0  -0.624377  0  2.272618  0  0  -0.311654  -0.572124  0  2.290962  0
O  O98  1  0.12388827  0.70137169  0.38438129  1  0  -0.627243  0  1.979476  0  0  -0.562711  0  2.222371  0  0  -0.593384  0  2.213068  0  0  -0.333159  -0.541094  0  2.228048  0
O  O99  1  0.87611153  0.61562240  0.29863885  1  0  -0.627287  0  1.979445  0  0  -0.562746  0  2.222442  0  0  -0.593424  0  2.213141  0  0  -0.333145  -0.54113  0  2.22811  0
O  O100  1  0.20928346  0.79867516  0.11552315  1  0  -0.629021  0  1.976517  0  0  -0.564366  0  2.220067  0  0  -0.595048  0  2.210747  0  0  -0.334059  -0.542746  0  2.225724  0
O  O101  1  0.79071616  0.88447438  0.20134276  1  0  -0.628914  0  1.976723  0  0  -0.56424  0  2.220307  0  0  -0.594919  0  2.210988  0  0  -0.333952  -0.542623  0  2.225964  0
O  O102  1  0.87610140  0.29865657  0.61561757  1  0  -0.627304  0  1.979732  0  0  -0.562804  0  2.222761  0  0  -0.593485  0  2.213454  0  0  -0.333244  -0.541181  0  2.228437  0
O  O103  1  0.12389891  0.38437904  0.70134240  1  0  -0.627362  0  1.979682  0  0  -0.562871  0  2.22278  0  0  -0.593549  0  2.213471  0  0  -0.333243  -0.541248  0  2.228454  0
O  O104  1  0.79071684  0.20133655  0.88447622  1  0  -0.628987  0  1.976779  0  0  -0.564352  0  2.220386  0  0  -0.59503  0  2.211062  0  0  -0.334058  -0.542735  0  2.226047  0
O  O105  1  0.20928436  0.11553023  0.79865052  1  0  -0.628857  0  1.976864  0  0  -0.564195  0  2.220321  0  0  -0.594873  0  2.210998  0  0  -0.333976  -0.54258  0  2.22598  0
O  O106  1  0.07739423  0.88983245  0.48176702  1  0  -0.687469  0  2.059619  0  0  -0.616616  0  2.310804  0  0  -0.644757  0  2.295989  0  0  -0.321948  -0.596684  0  2.320327  0
O  O107  1  0.92260143  0.51823689  0.11016707  1  0  -0.687513  0  2.059624  0  0  -0.616652  0  2.310811  0  0  -0.644779  0  2.295992  0  0  -0.321965  -0.596772  0  2.320446  0
O  O108  1  0.44875603  0.61018854  0.01824951  1  0  -0.686847  0  2.060266  0  0  -0.616176  0  2.312276  0  0  -0.644367  0  2.297637  0  0  -0.322101  -0.59625  0  2.321788  0
O  O109  1  0.55124738  0.98175193  0.38980759  1  0  -0.686847  0  2.060233  0  0  -0.616118  0  2.312216  0  0  -0.644321  0  2.297577  0  0  -0.322052  -0.59619  0  2.321727  0
O  O110  1  0.92258875  0.11017806  0.51822710  1  0  -0.687477  0  2.059301  0  0  -0.616517  0  2.310423  0  0  -0.644663  0  2.295615  0  0  -0.321873  -0.596603  0  2.319984  0
O  O111  1  0.07740854  0.48176325  0.88981940  1  0  -0.687429  0  2.059392  0  0  -0.616587  0  2.31053  0  0  -0.64473  0  2.295721  0  0  -0.321916  -0.596644  0  2.320033  0
O  O112  1  0.55124605  0.38981878  0.98174530  1  0  -0.686849  0  2.060112  0  0  -0.616125  0  2.312103  0  0  -0.644325  0  2.297466  0  0  -0.322098  -0.596195  0  2.321617  0
O  O113  1  0.44875365  0.01824957  0.61018339  1  0  -0.686822  0  2.060186  0  0  -0.616135  0  2.312226  0  0  -0.644334  0  2.29759  0  0  -0.322096  -0.596209  0  2.321742  0
O  O114  1  0.20780331  0.88098281  0.60350638  1  0  -0.650743  0  2.046148  0  0  -0.580025  0  2.29791  0  0  -0.611272  0  2.287484  0  0  -0.309362  -0.558113  0  2.304406  0
O  O115  1  0.79222654  0.39648627  0.11900232  1  0  -0.650536  0  2.045986  0  0  -0.579778  0  2.297783  0  0  -0.611026  0  2.287366  0  0  -0.309216  -0.557842  0  2.304238  0
O  O116  1  0.69199631  0.61891513  0.89643344  1  0  -0.65158  0  2.046512  0  0  -0.58005  0  2.297811  0  0  -0.611446  0  2.28769  0  0  -0.309732  -0.558066  0  2.304191  0
O  O117  1  0.30800342  0.10357331  0.38107736  1  0  -0.651403  0  2.046428  0  0  -0.579988  0  2.297846  0  0  -0.61134  0  2.287605  0  0  -0.309747  -0.558003  0  2.304227  0
O  O118  1  0.79217775  0.11903101  0.39648329  1  0  -0.650671  0  2.045929  0  0  -0.579883  0  2.297673  0  0  -0.611133  0  2.287278  0  0  -0.309268  -0.557952  0  2.304116  0
O  O119  1  0.20780324  0.60350956  0.88097885  1  0  -0.650617  0  2.046256  0  0  -0.579918  0  2.298024  0  0  -0.611153  0  2.287596  0  0  -0.309378  -0.558025  0  2.304555  0
O  O120  1  0.30798751  0.38107299  0.10354612  1  0  -0.651311  0  2.046782  0  0  -0.579806  0  2.298059  0  0  -0.611188  0  2.287932  0  0  -0.309683  -0.557823  0  2.304439  0
O  O121  1  0.69201256  0.89644507  0.61894083  1  0  -0.651291  0  2.046337  0  0  -0.57984  0  2.297636  0  0  -0.611234  0  2.28752  0  0  -0.309723  -0.557854  0  2.30401  0
O  O122  1  0.34339268  0.47980823  0.47980481  1  0  -0.86532  0  1.826841  0  0  -0.825017  0  1.99937  0  0  -0.841807  0  1.974324  0  0  -0.710047  -0.812824  0  2.016856  0
O  O123  1  0.65661197  0.52020641  0.52018861  1  0  -0.865424  0  1.826454  0  0  -0.825193  0  1.9991  0  0  -0.841953  0  1.974009  0  0  -0.710085  -0.812999  0  2.016593  0
O  O124  1  0.30307915  0.02027360  0.02026087  1  0  -0.864111  0  1.830728  0  0  -0.823911  0  2.001004  0  0  -0.8407  0  1.975931  0  0  -0.707843  -0.811738  0  2.018598  0
O  O125  1  0.69692624  0.97972377  0.97974054  1  0  -0.863993  0  1.83097  0  0  -0.823782  0  2.001291  0  0  -0.840569  0  1.976225  0  0  -0.707857  -0.811624  0  2.018866  0
O  O126  1  0.53131629  0.72470632  0.54349821  1  0  -0.845533  0  1.788938  0  0  -0.800097  0  1.944262  0  0  -0.816761  0  1.917206  0  0  -0.617186  -0.788187  0  1.963233  0
O  O127  1  0.46877401  0.45648248  0.27525400  1  0  -0.845618  0  1.788572  0  0  -0.800469  0  1.943471  0  0  -0.817124  0  1.916423  0  0  -0.617287  -0.788555  0  1.962431  0
O  O128  1  0.79937023  0.77503942  0.95656512  1  0  -0.844448  0  1.788279  0  0  -0.799833  0  1.943128  0  0  -0.816394  0  1.916232  0  0  -0.616671  -0.787974  0  1.962013  0
O  O129  1  0.20063455  0.04340213  0.22493033  1  0  -0.84447  0  1.787753  0  0  -0.79983  0  1.942921  0  0  -0.816394  0  1.916031  0  0  -0.616676  -0.787982  0  1.961796  0
O  O130  1  0.46859823  0.27533035  0.45660936  1  0  -0.845637  0  1.789376  0  0  -0.800092  0  1.944975  0  0  -0.816749  0  1.917941  0  0  -0.617495  -0.788183  0  1.963927  0
O  O131  1  0.53132314  0.54342913  0.72470498  1  0  -0.845655  0  1.788719  0  0  -0.800049  0  1.944497  0  0  -0.816708  0  1.917467  0  0  -0.617351  -0.788139  0  1.963439  0
O  O132  1  0.20060345  0.22495018  0.04344966  1  0  -0.844453  0  1.788223  0  0  -0.799826  0  1.943152  0  0  -0.816397  0  1.916243  0  0  -0.616622  -0.787973  0  1.962037  0
O  O133  1  0.79937743  0.95658108  0.77507462  1  0  -0.844454  0  1.787957  0  0  -0.799812  0  1.94303  0  0  -0.816371  0  1.916141  0  0  -0.616694  -0.787957  0  1.961914  0
O  O134  1  0.58634892  0.66349836  0.16352437  1  0  -0.883749  0  1.794876  0  0  -0.844684  0  1.948843  0  0  -0.860814  0  1.921768  0  0  -0.707699  -0.833043  0  1.967833  0
O  O135  1  0.41367217  0.83645448  0.33650267  1  0  -0.883609  0  1.794813  0  0  -0.844409  0  1.948833  0  0  -0.860568  0  1.921814  0  0  -0.707497  -0.832778  0  1.967838  0
O  O136  1  0.41364149  0.33649314  0.83648444  1  0  -0.883682  0  1.794918  0  0  -0.844537  0  1.94899  0  0  -0.86068  0  1.921934  0  0  -0.707644  -0.832903  0  1.967992  0
O  O137  1  0.58635266  0.16353408  0.66350835  1  0  -0.883611  0  1.794883  0  0  -0.844567  0  1.948803  0  0  -0.860707  0  1.921741  0  0  -0.707632  -0.832932  0  1.967808  0
