# generated using pymatgen
data_CdH8C6SN2ClO
_symmetry_space_group_name_H-M   'P 1'
_cell_length_a   9.57378302
_cell_length_b   10.46051491
_cell_length_c   11.03676576
_cell_angle_alpha   90.00028866
_cell_angle_beta   89.99961087
_cell_angle_gamma   113.34013880
_symmetry_Int_Tables_number   1
_chemical_formula_structural   CdH8C6SN2ClO
_chemical_formula_sum   'Cd4 H32 C24 S4 N8 Cl4 O4'
_cell_volume   1014.84828035
_cell_formula_units_Z   4
loop_
 _symmetry_equiv_pos_site_id
 _symmetry_equiv_pos_as_xyz
  1  'x, y, z'
loop_
 _atom_site_type_symbol
 _atom_site_label
 _atom_site_symmetry_multiplicity
 _atom_site_fract_x
 _atom_site_fract_y
 _atom_site_fract_z
 _atom_site_occupancy
 _atom_site_hle17_bader_spin_density
 _atom_site_hle17_ddec_charge
 _atom_site_hle17_ddec_spin_density
 _atom_site_hle17_ddec_sum_bond_order
 _atom_site_hle17_magmom
 _atom_site_hse06_10hf_bader_spin_density
 _atom_site_hse06_10hf_ddec_charge
 _atom_site_hse06_10hf_ddec_spin_density
 _atom_site_hse06_10hf_ddec_sum_bond_order
 _atom_site_hse06_10hf_magmom
 _atom_site_hse06_bader_spin_density
 _atom_site_hse06_ddec_charge
 _atom_site_hse06_ddec_spin_density
 _atom_site_hse06_ddec_sum_bond_order
 _atom_site_hse06_magmom
 _atom_site_pbe_bader_spin_density
 _atom_site_pbe_cm5_charge
 _atom_site_pbe_ddec_charge
 _atom_site_pbe_ddec_spin_density
 _atom_site_pbe_ddec_sum_bond_order
 _atom_site_pbe_magmom
Cd  Cd0  1  0.64482260  0.63994042  0.89901300  1  0  1.021249  0  1.875958  0  0  0.840295  0  2.337913  0  0  0.886504  0  2.295387  0  0  0.690455  0.80748  0  2.366506  0
Cd  Cd1  1  0.35517698  0.86006177  0.39901645  1  0  1.02131  0  1.875921  0  0  0.840341  0  2.337884  0  0  0.886554  0  2.295358  0  0  0.690481  0.807528  0  2.366476  0
Cd  Cd2  1  0.35516634  0.36005690  0.10098048  1  0  1.021267  0  1.875851  0  0  0.840318  0  2.33778  0  0  0.886528  0  2.295257  0  0  0.690491  0.807506  0  2.366374  0
Cd  Cd3  1  0.64482779  0.13993594  0.60098066  1  0  1.021295  0  1.875904  0  0  0.840351  0  2.337839  0  0  0.88656  0  2.295314  0  0  0.69047  0.807535  0  2.36643  0
H  H4  1  0.73284652  0.39162207  0.79171079  1  0  0.064211  0  0.965595  0  0  0.075258  0  1.035686  0  0  0.076918  0  1.032659  0  0  0.118525  0.073951  0  1.038082  0
H  H5  1  0.26714635  0.10837133  0.29171355  1  0  0.064282  0  0.965884  0  0  0.07535  0  1.035917  0  0  0.077021  0  1.032891  0  0  0.118628  0.074048  0  1.038305  0
H  H6  1  0.26715169  0.60837238  0.20828723  1  0  0.064256  0  0.965803  0  0  0.075322  0  1.035838  0  0  0.076989  0  1.032814  0  0  0.118602  0.07402  0  1.038228  0
H  H7  1  0.73284218  0.89163011  0.70828536  1  0  0.064228  0  0.966005  0  0  0.0753  0  1.036028  0  0  0.076969  0  1.033009  0  0  0.118627  0.074  0  1.038411  0
H  H8  1  0.48883474  0.70031111  0.62706346  1  0  0.112097  0  0.959699  0  0  0.122724  0  1.024099  0  0  0.125562  0  1.022518  0  0  0.099645  0.120463  0  1.02526  0
H  H9  1  0.51116853  0.79969238  0.12706389  1  0  0.112113  0  0.959639  0  0  0.122774  0  1.024006  0  0  0.125615  0  1.022421  0  0  0.099673  0.120513  0  1.025169  0
H  H10  1  0.51116705  0.29967931  0.37292821  1  0  0.112172  0  0.959363  0  0  0.122789  0  1.023797  0  0  0.125628  0  1.022219  0  0  0.099703  0.120526  0  1.024962  0
H  H11  1  0.48882910  0.20031855  0.87293321  1  0  0.112099  0  0.959548  0  0  0.122736  0  1.023953  0  0  0.125577  0  1.022373  0  0  0.099656  0.120475  0  1.025115  0
H  H12  1  0.99195751  0.65024785  0.10968656  1  0  0.140911  0  0.963682  0  0  0.154362  0  1.03236  0  0  0.156451  0  1.031692  0  0  0.092609  0.152669  0  1.033149  0
H  H13  1  0.00804441  0.84975968  0.60968605  1  0  0.140853  0  0.963673  0  0  0.154349  0  1.032329  0  0  0.156418  0  1.031679  0  0  0.092602  0.152655  0  1.033119  0
H  H14  1  0.00802825  0.34974424  0.89031236  1  0  0.140874  0  0.963669  0  0  0.15434  0  1.032357  0  0  0.156423  0  1.03169  0  0  0.092621  0.152648  0  1.033147  0
H  H15  1  0.99196524  0.15024743  0.39032102  1  0  0.140815  0  0.963741  0  0  0.154259  0  1.03244  0  0  0.156355  0  1.031763  0  0  0.092576  0.15257  0  1.03323  0
H  H16  1  0.11359970  0.82753899  0.06941147  1  0  0.16054  0  0.919097  0  0  0.18019  0  0.97008  0  0  0.182441  0  0.969604  0  0  0.106781  0.178536  0  0.970285  0
H  H17  1  0.88639784  0.67246728  0.56941309  1  0  0.160502  0  0.919088  0  0  0.180156  0  0.970088  0  0  0.182406  0  0.969614  0  0  0.106775  0.178502  0  0.97029  0
H  H18  1  0.88638691  0.17245518  0.93058655  1  0  0.160563  0  0.919097  0  0  0.18023  0  0.97006  0  0  0.18248  0  0.969584  0  0  0.10676  0.178577  0  0.970262  0
H  H19  1  0.11360885  0.32753769  0.43059217  1  0  0.160519  0  0.919057  0  0  0.180164  0  0.970064  0  0  0.182414  0  0.969589  0  0  0.106775  0.178511  0  0.970266  0
H  H20  1  0.18493983  0.69172497  0.06189786  1  0  0.138541  0  0.968711  0  0  0.153278  0  1.038341  0  0  0.154627  0  1.03879  0  0  0.094504  0.152097  0  1.038445  0
H  H21  1  0.81505755  0.80828333  0.56190146  1  0  0.138627  0  0.968645  0  0  0.153401  0  1.038251  0  0  0.154751  0  1.038698  0  0  0.094567  0.152218  0  1.038354  0
H  H22  1  0.81504574  0.30827433  0.93810196  1  0  0.138655  0  0.968789  0  0  0.15345  0  1.038339  0  0  0.1548  0  1.038787  0  0  0.094611  0.152269  0  1.038438  0
H  H23  1  0.18494998  0.19171857  0.43810561  1  0  0.138593  0  0.968844  0  0  0.153374  0  1.038398  0  0  0.15472  0  1.038851  0  0  0.094574  0.152193  0  1.038501  0
H  H24  1  0.17654272  0.78233734  0.72669159  1  0  0.145637  0  0.94211  0  0  0.165512  0  0.997133  0  0  0.167348  0  0.996402  0  0  0.097847  0.163929  0  0.99809  0
H  H25  1  0.82345777  0.71766125  0.22668979  1  0  0.145644  0  0.942109  0  0  0.165513  0  0.997134  0  0  0.167349  0  0.996402  0  0  0.097836  0.16393  0  0.998093  0
H  H26  1  0.82345929  0.21765618  0.27331095  1  0  0.145618  0  0.942105  0  0  0.165502  0  0.997112  0  0  0.167339  0  0.996379  0  0  0.097855  0.16392  0  0.998071  0
H  H27  1  0.17654788  0.28234885  0.77331547  1  0  0.145678  0  0.942023  0  0  0.165529  0  0.997047  0  0  0.167365  0  0.996315  0  0  0.097883  0.163949  0  0.998007  0
H  H28  1  0.28294931  0.75019869  0.84873692  1  0  0.150783  0  0.952847  0  0  0.168106  0  1.012016  0  0  0.169422  0  1.013058  0  0  0.096841  0.167022  0  1.011385  0
H  H29  1  0.71704785  0.74979916  0.34873590  1  0  0.150783  0  0.952869  0  0  0.168116  0  1.012011  0  0  0.169432  0  1.013053  0  0  0.096856  0.167034  0  1.011375  0
H  H30  1  0.71704447  0.24979257  0.15126744  1  0  0.150814  0  0.952874  0  0  0.168162  0  1.011998  0  0  0.169478  0  1.01304  0  0  0.096885  0.167079  0  1.011364  0
H  H31  1  0.28296265  0.25021002  0.65127027  1  0  0.150838  0  0.952859  0  0  0.168155  0  1.012012  0  0  0.169473  0  1.013052  0  0  0.096849  0.167073  0  1.01138  0
H  H32  1  0.22823778  0.89687842  0.85555011  1  0  0.151926  0  0.93583  0  0  0.169949  0  0.991558  0  0  0.171918  0  0.991698  0  0  0.102707  0.16847  0  0.991762  0
H  H33  1  0.77176059  0.60311743  0.35555079  1  0  0.151991  0  0.93577  0  0  0.169975  0  0.991539  0  0  0.171948  0  0.991676  0  0  0.102719  0.168495  0  0.991737  0
H  H34  1  0.77175663  0.10311183  0.14445152  1  0  0.152009  0  0.935762  0  0  0.169971  0  0.991552  0  0  0.171945  0  0.991686  0  0  0.102729  0.168491  0  0.991757  0
H  H35  1  0.22824461  0.39688648  0.64445356  1  0  0.152046  0  0.935737  0  0  0.170024  0  0.991497  0  0  0.171998  0  0.991629  0  0  0.10274  0.168544  0  0.991701  0
C  C36  1  0.56573604  0.41345958  0.54412974  1  0  0.143574  0  3.856523  0  0  0.139263  0  4.102846  0  0  0.143327  0  4.127967  0  0  0.07113  0.136193  0  4.085725  0
C  C37  1  0.43426441  0.08654767  0.04413958  1  0  0.143766  0  3.856249  0  0  0.139293  0  4.102784  0  0  0.143359  0  4.127906  0  0  0.071176  0.136221  0  4.085666  0
C  C38  1  0.43425099  0.58653563  0.45585921  1  0  0.14377  0  3.856294  0  0  0.139264  0  4.102825  0  0  0.143332  0  4.127943  0  0  0.071125  0.13619  0  4.085709  0
C  C39  1  0.56574673  0.91346565  0.95586387  1  0  0.143858  0  3.856203  0  0  0.139395  0  4.102704  0  0  0.143462  0  4.127822  0  0  0.071209  0.136325  0  4.085587  0
C  C40  1  0.67332229  0.41820313  0.71856641  1  0  0.239393  0  3.788666  0  0  0.184098  0  4.058986  0  0  0.202342  0  4.071552  0  0  0.125702  0.171795  0  4.050203  0
C  C41  1  0.32667341  0.08179836  0.21857595  1  0  0.239146  0  3.78864  0  0  0.183835  0  4.058983  0  0  0.202067  0  4.071556  0  0  0.125503  0.171531  0  4.050211  0
C  C42  1  0.32667043  0.58178810  0.28142798  1  0  0.2392  0  3.788798  0  0  0.183905  0  4.059108  0  0  0.202141  0  4.07168  0  0  0.1256  0.1716  0  4.050337  0
C  C43  1  0.67332822  0.91820958  0.78142388  1  0  0.239259  0  3.788703  0  0  0.18396  0  4.059019  0  0  0.20219  0  4.071599  0  0  0.125592  0.171656  0  4.050241  0
C  C44  1  0.55959287  0.52593628  0.61572709  1  0  0.148205  0  3.846202  0  0  0.145081  0  4.091379  0  0  0.148638  0  4.117452  0  0  0.073686  0.142881  0  4.073588  0
C  C45  1  0.44041891  0.97406739  0.11573149  1  0  0.148313  0  3.846279  0  0  0.145241  0  4.091456  0  0  0.148798  0  4.117526  0  0  0.073855  0.143042  0  4.073671  0
C  C46  1  0.44041779  0.47405539  0.38426639  1  0  0.148267  0  3.846275  0  0  0.145282  0  4.091324  0  0  0.148841  0  4.117391  0  0  0.073914  0.143083  0  4.073541  0
C  C47  1  0.55959580  0.02594190  0.88427015  1  0  0.147954  0  3.846481  0  0  0.144905  0  4.091622  0  0  0.148462  0  4.117694  0  0  0.073668  0.142707  0  4.073831  0
C  C48  1  0.49368416  0.61491989  0.57303383  1  0  -0.24401  0  3.754166  0  0  -0.264313  0  4.00674  0  0  -0.26876  0  4.02587  0  0  -0.109538  -0.261239  0  3.9941  0
C  C49  1  0.50631801  0.88509268  0.07303832  1  0  -0.244226  0  3.75448  0  0  -0.264575  0  4.007056  0  0  -0.269015  0  4.026181  0  0  -0.109752  -0.261501  0  3.99442  0
C  C50  1  0.50630986  0.38508477  0.42696147  1  0  -0.244188  0  3.754637  0  0  -0.264569  0  4.007152  0  0  -0.269016  0  4.026285  0  0  -0.109769  -0.261497  0  3.994516  0
C  C51  1  0.49368913  0.11492363  0.92696603  1  0  -0.244026  0  3.754273  0  0  -0.264358  0  4.00683  0  0  -0.2688  0  4.025963  0  0  -0.109603  -0.261283  0  3.994192  0
C  C52  1  0.08480171  0.71684742  0.05138698  1  0  -0.426754  0  3.575341  0  0  -0.500849  0  3.828745  0  0  -0.504006  0  3.834062  0  0  -0.238831  -0.498434  0  3.82551  0
C  C53  1  0.91519784  0.78316090  0.55138534  1  0  -0.426769  0  3.575242  0  0  -0.500946  0  3.828706  0  0  -0.504083  0  3.834036  0  0  -0.238893  -0.498528  0  3.825468  0
C  C54  1  0.91518321  0.28314774  0.94861465  1  0  -0.426882  0  3.575522  0  0  -0.501058  0  3.82898  0  0  -0.504208  0  3.8343  0  0  -0.23893  -0.498644  0  3.825743  0
C  C55  1  0.08481349  0.21684521  0.44862082  1  0  -0.426666  0  3.575381  0  0  -0.500815  0  3.828903  0  0  -0.503975  0  3.834215  0  0  -0.238866  -0.498404  0  3.825668  0
C  C56  1  0.19561162  0.78914847  0.82475832  1  0  -0.421262  0  3.57222  0  0  -0.489813  0  3.812726  0  0  -0.493321  0  3.818676  0  0  -0.236096  -0.487175  0  3.809166  0
C  C57  1  0.80438991  0.71084942  0.32475842  1  0  -0.421375  0  3.572172  0  0  -0.489883  0  3.812682  0  0  -0.493393  0  3.818624  0  0  -0.236117  -0.487241  0  3.809122  0
C  C58  1  0.80438680  0.21084393  0.17524422  1  0  -0.421449  0  3.572253  0  0  -0.489954  0  3.812753  0  0  -0.493465  0  3.818691  0  0  -0.236219  -0.487317  0  3.809195  0
C  C59  1  0.19562037  0.28915667  0.67524866  1  0  -0.421569  0  3.572156  0  0  -0.490022  0  3.812617  0  0  -0.493533  0  3.818551  0  0  -0.236215  -0.487387  0  3.809063  0
S  S60  1  0.02116198  0.68018412  0.89702431  1  0  0.677638  0  3.592609  0  0  0.657224  0  4.030485  0  0  0.672152  0  4.02905  0  0  0.27052  0.646614  0  4.030736  0
S  S61  1  0.97883633  0.81981494  0.39702662  1  0  0.677765  0  3.592703  0  0  0.657324  0  4.030619  0  0  0.672255  0  4.029172  0  0  0.270556  0.646712  0  4.030874  0
S  S62  1  0.97882926  0.31980604  0.10297279  1  0  0.677758  0  3.592838  0  0  0.657309  0  4.030746  0  0  0.67224  0  4.029305  0  0  0.270531  0.646698  0  4.030999  0
S  S63  1  0.02117435  0.18018704  0.60298136  1  0  0.677757  0  3.592582  0  0  0.657311  0  4.030465  0  0  0.67224  0  4.029031  0  0  0.270592  0.646701  0  4.03072  0
N  N64  1  0.63856199  0.34736030  0.61330543  1  0  -0.470576  0  3.241924  0  0  -0.387116  0  3.520052  0  0  -0.411552  0  3.534363  0  0  -0.388967  -0.369358  0  3.508638  0
N  N65  1  0.36144538  0.15264218  0.11330876  1  0  -0.470458  0  3.241773  0  0  -0.386937  0  3.519911  0  0  -0.411375  0  3.534229  0  0  -0.388921  -0.369182  0  3.508503  0
N  N66  1  0.36144700  0.65263752  0.38669077  1  0  -0.470508  0  3.241902  0  0  -0.386989  0  3.520057  0  0  -0.411428  0  3.534374  0  0  -0.388947  -0.369232  0  3.50865  0
N  N67  1  0.63855583  0.84736471  0.88668925  1  0  -0.470523  0  3.241719  0  0  -0.387008  0  3.519869  0  0  -0.411452  0  3.534192  0  0  -0.388954  -0.369254  0  3.508461  0
N  N68  1  0.62901927  0.52473998  0.72599107  1  0  -0.482521  0  3.254251  0  0  -0.401429  0  3.533912  0  0  -0.426411  0  3.550745  0  0  -0.387329  -0.384446  0  3.522193  0
N  N69  1  0.37098670  0.97525667  0.22599316  1  0  -0.482467  0  3.254115  0  0  -0.401381  0  3.533762  0  0  -0.426367  0  3.550602  0  0  -0.387293  -0.384388  0  3.522019  0
N  N70  1  0.37097282  0.47525226  0.27400604  1  0  -0.482482  0  3.254317  0  0  -0.401425  0  3.533946  0  0  -0.426404  0  3.550779  0  0  -0.387392  -0.384439  0  3.522226  0
N  N71  1  0.62902020  0.02475140  0.77400485  1  0  -0.482389  0  3.254211  0  0  -0.401305  0  3.533839  0  0  -0.426287  0  3.550675  0  0  -0.387333  -0.384326  0  3.522129  0
Cl  Cl72  1  0.66867107  0.48124131  0.06214420  1  0  -0.594691  0  0.948068  0  0  -0.523563  0  1.231175  0  0  -0.542446  0  1.208903  0  0  -0.301663  -0.50972  0  1.246177  0
Cl  Cl73  1  0.33132500  0.01875043  0.56216285  1  0  -0.59473  0  0.948096  0  0  -0.523609  0  1.231237  0  0  -0.542495  0  1.20897  0  0  -0.301678  -0.509764  0  1.246238  0
Cl  Cl74  1  0.33131809  0.51875911  0.93784294  1  0  -0.594712  0  0.948011  0  0  -0.523609  0  1.231153  0  0  -0.542492  0  1.208885  0  0  -0.301693  -0.509763  0  1.246159  0
Cl  Cl75  1  0.66868040  0.98124627  0.43784331  1  0  -0.594706  0  0.948082  0  0  -0.523593  0  1.231222  0  0  -0.542477  0  1.208959  0  0  -0.301679  -0.509751  0  1.246228  0
O  O76  1  0.91415599  0.75445489  0.87636907  1  0  -0.654958  0  1.933677  0  0  -0.588292  0  2.200133  0  0  -0.61118  0  2.190996  0  0  -0.378539  -0.571767  0  2.205307  0
O  O77  1  0.08584373  0.74554208  0.37637990  1  0  -0.655045  0  1.933754  0  0  -0.58832  0  2.200141  0  0  -0.611226  0  2.191045  0  0  -0.378544  -0.571797  0  2.205315  0
O  O78  1  0.08583504  0.24553218  0.12361807  1  0  -0.654964  0  1.933731  0  0  -0.588243  0  2.200101  0  0  -0.611154  0  2.191019  0  0  -0.378495  -0.571718  0  2.205275  0
O  O79  1  0.91416505  0.25445779  0.62363623  1  0  -0.655051  0  1.933604  0  0  -0.588343  0  2.199993  0  0  -0.611251  0  2.190906  0  0  -0.378558  -0.571817  0  2.205162  0
