# generated using pymatgen
data_CuH4C5NCl
_symmetry_space_group_name_H-M   'P 1'
_cell_length_a   3.68663317
_cell_length_b   11.22389508
_cell_length_c   12.66497454
_cell_angle_alpha   89.99821068
_cell_angle_beta   89.99867554
_cell_angle_gamma   92.22361336
_symmetry_Int_Tables_number   1
_chemical_formula_structural   CuH4C5NCl
_chemical_formula_sum   'Cu4 H16 C20 N4 Cl4'
_cell_volume   523.66156986
_cell_formula_units_Z   4
loop_
 _symmetry_equiv_pos_site_id
 _symmetry_equiv_pos_as_xyz
  1  'x, y, z'
loop_
 _atom_site_type_symbol
 _atom_site_label
 _atom_site_symmetry_multiplicity
 _atom_site_fract_x
 _atom_site_fract_y
 _atom_site_fract_z
 _atom_site_occupancy
 _atom_site_hle17_bader_spin_density
 _atom_site_hle17_ddec_charge
 _atom_site_hle17_ddec_spin_density
 _atom_site_hle17_ddec_sum_bond_order
 _atom_site_hle17_magmom
 _atom_site_hse06_10hf_bader_spin_density
 _atom_site_hse06_10hf_ddec_charge
 _atom_site_hse06_10hf_ddec_spin_density
 _atom_site_hse06_10hf_ddec_sum_bond_order
 _atom_site_hse06_10hf_magmom
 _atom_site_hse06_bader_spin_density
 _atom_site_hse06_ddec_charge
 _atom_site_hse06_ddec_spin_density
 _atom_site_hse06_ddec_sum_bond_order
 _atom_site_hse06_magmom
 _atom_site_pbe_bader_spin_density
 _atom_site_pbe_cm5_charge
 _atom_site_pbe_ddec_charge
 _atom_site_pbe_ddec_spin_density
 _atom_site_pbe_ddec_sum_bond_order
 _atom_site_pbe_magmom
Cu  Cu0  1  0.71174956  0.94888096  0.57126381  1  0  0.38976  0  1.999731  0  0  0.296225  0  2.499414  0  0  0.301703  0  2.444326  0  0  0.347834  0.295054  0  2.535024  0
Cu  Cu1  1  0.28831409  0.55115969  0.07128403  1  0  0.389775  0  1.999713  0  0  0.29625  0  2.499409  0  0  0.301764  0  2.444343  0  0  0.347834  0.295069  0  2.534996  0
Cu  Cu2  1  0.28825415  0.05113207  0.42872081  1  0  0.389698  0  1.999602  0  0  0.296185  0  2.49926  0  0  0.301734  0  2.444193  0  0  0.347797  0.295007  0  2.534827  0
Cu  Cu3  1  0.71167915  0.44884092  0.92872903  1  0  0.389817  0  1.999796  0  0  0.296258  0  2.499528  0  0  0.301803  0  2.444435  0  0  0.347855  0.295069  0  2.535193  0
H  H4  1  0.87936800  0.13914256  0.72607460  1  0  0.077235  0  0.945745  0  0  0.086946  0  1.009215  0  0  0.089485  0  1.007476  0  0  0.106861  0.085025  0  1.010613  0
H  H5  1  0.12067235  0.36088796  0.22608425  1  0  0.077292  0  0.946034  0  0  0.086973  0  1.009528  0  0  0.089509  0  1.007795  0  0  0.106852  0.085044  0  1.010932  0
H  H6  1  0.12062862  0.86086160  0.27392345  1  0  0.077284  0  0.945878  0  0  0.086987  0  1.009373  0  0  0.089517  0  1.007644  0  0  0.106861  0.085065  0  1.01077  0
H  H7  1  0.87934494  0.63911069  0.77393433  1  0  0.077249  0  0.945813  0  0  0.086917  0  1.009347  0  0  0.089463  0  1.007597  0  0  0.10679  0.084981  0  1.010762  0
H  H8  1  0.80062179  0.16801772  0.91781115  1  0  0.105219  0  0.990563  0  0  0.112526  0  1.058949  0  0  0.116533  0  1.056796  0  0  0.092986  0.109402  0  1.060943  0
H  H9  1  0.19939277  0.33197916  0.41781946  1  0  0.105067  0  0.990675  0  0  0.112403  0  1.059035  0  0  0.116383  0  1.056919  0  0  0.092909  0.109286  0  1.061006  0
H  H10  1  0.19937369  0.83196592  0.08218690  1  0  0.105163  0  0.990459  0  0  0.112546  0  1.058787  0  0  0.116529  0  1.056662  0  0  0.092999  0.109426  0  1.060764  0
H  H11  1  0.80065957  0.66801833  0.58219438  1  0  0.10518  0  0.990471  0  0  0.11253  0  1.058816  0  0  0.116514  0  1.056689  0  0  0.092995  0.109419  0  1.060783  0
H  H12  1  0.26375647  0.81677591  0.92651626  1  0  0.108372  0  0.991235  0  0  0.118547  0  1.052432  0  0  0.121429  0  1.05242  0  0  0.092262  0.116316  0  1.052735  0
H  H13  1  0.73620056  0.68322569  0.42653834  1  0  0.108365  0  0.991542  0  0  0.118594  0  1.052606  0  0  0.121475  0  1.052591  0  0  0.092327  0.116359  0  1.052917  0
H  H14  1  0.73619803  0.18320624  0.07346363  1  0  0.108371  0  0.991589  0  0  0.118619  0  1.052631  0  0  0.121488  0  1.052631  0  0  0.092333  0.116401  0  1.052913  0
H  H15  1  0.26379927  0.31678112  0.57347155  1  0  0.108272  0  0.991445  0  0  0.118587  0  1.052434  0  0  0.121471  0  1.05242  0  0  0.092287  0.116353  0  1.052743  0
H  H16  1  0.36518094  0.80484213  0.73519946  1  0  0.073948  0  0.942577  0  0  0.082566  0  1.010037  0  0  0.085437  0  1.007266  0  0  0.108404  0.080446  0  1.012179  0
H  H17  1  0.63483437  0.69519286  0.23522350  1  0  0.073753  0  0.942605  0  0  0.082497  0  1.009952  0  0  0.085359  0  1.0072  0  0  0.108362  0.080382  0  1.012084  0
H  H18  1  0.63482060  0.19515931  0.26477727  1  0  0.073754  0  0.942547  0  0  0.082403  0  1.009965  0  0  0.085264  0  1.007211  0  0  0.108365  0.080287  0  1.012099  0
H  H19  1  0.36514345  0.30481233  0.76478797  1  0  0.073753  0  0.942669  0  0  0.082452  0  1.01006  0  0  0.085321  0  1.007295  0  0  0.108303  0.080337  0  1.012206  0
C  C20  1  0.74480291  0.07012379  0.77435327  1  0  0.11122  0  3.707096  0  0  0.08312  0  3.958396  0  0  0.089462  0  3.974465  0  0  0.032156  0.078487  0  3.948678  0
C  C21  1  0.25522530  0.42988987  0.27435690  1  0  0.111054  0  3.706514  0  0  0.082911  0  3.957851  0  0  0.089285  0  3.973857  0  0  0.032058  0.078273  0  3.94814  0
C  C22  1  0.25518611  0.92986882  0.22564715  1  0  0.110994  0  3.706571  0  0  0.082818  0  3.958009  0  0  0.08921  0  3.97399  0  0  0.032008  0.078173  0  3.948293  0
C  C23  1  0.74477810  0.57010709  0.72565615  1  0  0.111427  0  3.706502  0  0  0.083347  0  3.957688  0  0  0.089661  0  3.973803  0  0  0.032269  0.07871  0  3.947976  0
C  C24  1  0.69781602  0.08517507  0.88205578  1  0  -0.150717  0  3.702517  0  0  -0.168992  0  3.949925  0  0  -0.175594  0  3.969685  0  0  -0.086106  -0.164863  0  3.937156  0
C  C25  1  0.30221458  0.41483550  0.38207212  1  0  -0.150588  0  3.702296  0  0  -0.16879  0  3.949705  0  0  -0.175383  0  3.9695  0  0  -0.085973  -0.164658  0  3.936908  0
C  C26  1  0.30218671  0.91481833  0.11793438  1  0  -0.150623  0  3.702289  0  0  -0.168861  0  3.949646  0  0  -0.175457  0  3.969443  0  0  -0.086034  -0.164728  0  3.93686  0
C  C27  1  0.69781726  0.58516839  0.61794646  1  0  -0.15096  0  3.702485  0  0  -0.16931  0  3.949988  0  0  -0.175881  0  3.969736  0  0  -0.086198  -0.165179  0  3.937198  0
C  C28  1  0.52557368  0.99413346  0.94255476  1  0  0.090361  0  3.729911  0  0  0.101812  0  3.960242  0  0  0.106999  0  3.978515  0  0  0.007138  0.098394  0  3.947894  0
C  C29  1  0.47442525  0.50586634  0.44256623  1  0  0.090588  0  3.729754  0  0  0.101771  0  3.960327  0  0  0.106944  0  3.978612  0  0  0.006976  0.098359  0  3.947969  0
C  C30  1  0.47439454  0.00584948  0.05743855  1  0  0.090472  0  3.730016  0  0  0.101732  0  3.960534  0  0  0.106901  0  3.97882  0  0  0.006945  0.09832  0  3.948185  0
C  C31  1  0.52559150  0.49414391  0.55744524  1  0  0.090542  0  3.729766  0  0  0.101999  0  3.960113  0  0  0.107192  0  3.97837  0  0  0.007105  0.098584  0  3.947768  0
C  C32  1  0.40418702  0.89145798  0.88722369  1  0  -0.13952  0  3.694997  0  0  -0.15838  0  3.939825  0  0  -0.164716  0  3.960626  0  0  -0.085393  -0.15438  0  3.926154  0
C  C33  1  0.59581852  0.60855542  0.38724251  1  0  -0.139508  0  3.694924  0  0  -0.158283  0  3.939733  0  0  -0.164618  0  3.960547  0  0  -0.085438  -0.154282  0  3.926047  0
C  C34  1  0.59580893  0.10854261  0.11275620  1  0  -0.139508  0  3.695157  0  0  -0.158379  0  3.939991  0  0  -0.164711  0  3.960805  0  0  -0.085439  -0.154376  0  3.926309  0
C  C35  1  0.40418673  0.39145135  0.61276580  1  0  -0.139516  0  3.69467  0  0  -0.158461  0  3.939464  0  0  -0.164796  0  3.960258  0  0  -0.085454  -0.154461  0  3.925797  0
C  C36  1  0.45994669  0.88346312  0.77936314  1  0  0.115513  0  3.698245  0  0  0.085906  0  3.954926  0  0  0.092812  0  3.969357  0  0  0.031888  0.080634  0  3.946681  0
C  C37  1  0.54006020  0.61655870  0.27938609  1  0  0.115414  0  3.698136  0  0  0.085672  0  3.954905  0  0  0.092585  0  3.969322  0  0  0.031724  0.0804  0  3.946653  0
C  C38  1  0.54005368  0.11653209  0.22061596  1  0  0.115462  0  3.698361  0  0  0.085829  0  3.955125  0  0  0.092754  0  3.969519  0  0  0.031791  0.080551  0  3.946884  0
C  C39  1  0.45991679  0.38344203  0.72062933  1  0  0.115599  0  3.697887  0  0  0.085899  0  3.954614  0  0  0.092795  0  3.969062  0  0  0.031909  0.080614  0  3.946378  0
N  N40  1  0.63054027  0.97052617  0.72201973  1  0  -0.286225  0  3.404734  0  0  -0.216414  0  3.708673  0  0  -0.225417  0  3.713707  0  0  -0.373877  -0.211055  0  3.704961  0
N  N41  1  0.36950352  0.52951087  0.22203286  1  0  -0.285963  0  3.404054  0  0  -0.21614  0  3.708047  0  0  -0.225166  0  3.713128  0  0  -0.373612  -0.21078  0  3.70431  0
N  N42  1  0.36948495  0.02948580  0.27796569  1  0  -0.285842  0  3.404122  0  0  -0.216011  0  3.707969  0  0  -0.225057  0  3.71308  0  0  -0.373589  -0.210637  0  3.704216  0
N  N43  1  0.63049581  0.47049327  0.77798019  1  0  -0.286169  0  3.404137  0  0  -0.216323  0  3.708086  0  0  -0.225334  0  3.713137  0  0  -0.373701  -0.210931  0  3.704364  0
Cl  Cl44  1  0.81598543  0.15261313  0.50091272  1  0  -0.495154  0  1.48565  0  0  -0.423863  0  1.885026  0  0  -0.438152  0  1.845009  0  0  -0.274077  -0.413476  0  1.911724  0
Cl  Cl45  1  0.18394091  0.34740153  0.00095940  1  0  -0.49526  0  1.48579  0  0  -0.423906  0  1.885106  0  0  -0.438208  0  1.84511  0  0  -0.274102  -0.413509  0  1.911833  0
Cl  Cl46  1  0.18400695  0.84739731  0.49907033  1  0  -0.495182  0  1.485612  0  0  -0.42383  0  1.884883  0  0  -0.438112  0  1.844872  0  0  -0.274106  -0.413442  0  1.911597  0
Cl  Cl47  1  0.81605233  0.65259908  0.99904812  1  0  -0.495239  0  1.485851  0  0  -0.423884  0  1.885179  0  0  -0.438181  0  1.845183  0  0  -0.274083  -0.413473  0  1.911847  0
