# generated using pymatgen
data_ZnH44C56(NO3)4
_symmetry_space_group_name_H-M   'P 1'
_cell_length_a   11.75660977
_cell_length_b   11.94790030
_cell_length_c   24.80537624
_cell_angle_alpha   90.52430519
_cell_angle_beta   90.00023972
_cell_angle_gamma   119.47123540
_symmetry_Int_Tables_number   1
_chemical_formula_structural   ZnH44C56(NO3)4
_chemical_formula_sum   'Zn2 H88 C112 N8 O24'
_cell_volume   3033.30143091
_cell_formula_units_Z   2
loop_
 _symmetry_equiv_pos_site_id
 _symmetry_equiv_pos_as_xyz
  1  'x, y, z'
loop_
 _atom_site_type_symbol
 _atom_site_label
 _atom_site_symmetry_multiplicity
 _atom_site_fract_x
 _atom_site_fract_y
 _atom_site_fract_z
 _atom_site_occupancy
 _atom_site_pbe_bader_charge
 _atom_site_pbe_bader_spin_density
 _atom_site_pbe_cm5_charge
 _atom_site_pbe_ddec_charge
 _atom_site_pbe_ddec_spin_density
 _atom_site_pbe_ddec_sum_bond_order
 _atom_site_pbe_magmom
Zn  Zn0  1  0.50000300  0.50000207  0.99999978  1  1.266564  0  0.712587  0.734544  0  2.394491  0
Zn  Zn1  1  0.00000010  0.50000145  0.49999954  1  1.262463  0  0.712576  0.734516  0  2.394433  0
H  H2  1  0.33907683  0.69242976  0.15590949  1  0.098843  0  0.109671  0.132683  0  0.997008  0
H  H3  1  0.64665750  0.30757942  0.34408884  1  0.100806  0  0.109661  0.132682  0  0.99698  0
H  H4  1  0.66092472  0.30757411  0.84408817  1  0.098773  0  0.109656  0.132679  0  0.996916  0
H  H5  1  0.35334395  0.69242254  0.65591083  1  0.100804  0  0.109671  0.132678  0  0.996983  0
H  H6  1  0.13845205  0.18799497  0.13598434  1  0.062376  0  0.105389  0.125005  0  1.006185  0
H  H7  1  0.95045635  0.81201033  0.36401247  1  0.075004  0  0.105369  0.124958  0  1.006228  0
H  H8  1  0.86154769  0.81200698  0.86401292  1  0.062491  0  0.105377  0.124987  0  1.006271  0
H  H9  1  0.04954644  0.18799260  0.63598761  1  0.075351  0  0.105391  0.125009  0  1.006206  0
H  H10  1  0.17449274  0.03001884  0.06831967  1  0.032989  0  0.099545  0.116171  0  1.046497  0
H  H11  1  0.14446954  0.96998713  0.43167959  1  0.101585  0  0.09957  0.116179  0  1.046489  0
H  H12  1  0.82550493  0.96998407  0.93167718  1  0.032898  0  0.099555  0.116131  0  1.046494  0
H  H13  1  0.85553033  0.03001677  0.56832130  1  0.101634  0  0.099557  0.116151  0  1.046537  0
H  H14  1  0.47503759  0.09984293  0.89583150  1  0.080774  0  0.103923  0.122612  0  1.013506  0
H  H15  1  0.37519198  0.90015820  0.60416937  1  0.074603  0  0.103942  0.122623  0  1.013461  0
H  H16  1  0.52496349  0.90015998  0.10416656  1  0.080802  0  0.103941  0.122648  0  1.013464  0
H  H17  1  0.62480692  0.09984377  0.39583071  1  0.074451  0  0.10395  0.122638  0  1.013471  0
H  H18  1  0.06623594  0.45371223  0.11697781  1  0.090231  0  0.098985  0.104087  0  1.03819  0
H  H19  1  0.61253072  0.54629028  0.38302140  1  0.099937  0  0.098977  0.104039  0  1.038325  0
H  H20  1  0.93376382  0.54628974  0.88302307  1  0.090207  0  0.098979  0.104088  0  1.0382  0
H  H21  1  0.38746929  0.45370880  0.61697786  1  0.099915  0  0.098981  0.104105  0  1.038237  0
H  H22  1  0.35433709  0.41714007  0.21092658  1  0.060679  0  0.100117  0.105645  0  1.01517  0
H  H23  1  0.93719815  0.58285752  0.28907121  1  0.062021  0  0.100121  0.105643  0  1.015197  0
H  H24  1  0.64566266  0.58286190  0.78907309  1  0.061076  0  0.100122  0.105648  0  1.015165  0
H  H25  1  0.06280234  0.41714252  0.71092805  1  0.062055  0  0.100131  0.105641  0  1.01518  0
H  H26  1  0.93500455  0.42202607  0.19930266  1  0.066548  0  0.108055  0.127794  0  0.986502  0
H  H27  1  0.51297955  0.57797292  0.30069691  1  0.068558  0  0.108049  0.127769  0  0.986486  0
H  H28  1  0.06499546  0.57797302  0.80069822  1  0.06654  0  0.108042  0.127757  0  0.986513  0
H  H29  1  0.48701913  0.42202520  0.69930275  1  0.068518  0  0.108045  0.127772  0  0.986527  0
H  H30  1  0.22682833  0.38894228  0.29331365  1  0.068567  0  0.102505  0.118663  0  1.020974  0
H  H31  1  0.83788291  0.61105170  0.20668229  1  0.053486  0  0.102474  0.118622  0  1.021002  0
H  H32  1  0.77317071  0.61105487  0.70668520  1  0.068539  0  0.102496  0.118714  0  1.02091  0
H  H33  1  0.16211758  0.38894834  0.79331657  1  0.053499  0  0.102476  0.118635  0  1.021045  0
H  H34  1  0.07043296  0.30579367  0.34679244  1  0.070966  0  0.116083  0.103998  0  0.977284  0
H  H35  1  0.76463604  0.69420641  0.15320974  1  0.057172  0  0.116075  0.103992  0  0.97734  0
H  H36  1  0.92956598  0.69420158  0.65320922  1  0.071019  0  0.116105  0.104013  0  0.977271  0
H  H37  1  0.23536323  0.30579460  0.84679034  1  0.057173  0  0.116088  0.104016  0  0.977304  0
H  H38  1  0.93847752  0.32495907  0.37047412  1  0.119646  0  0.116911  0.110945  0  1.035671  0
H  H39  1  0.61351913  0.67504757  0.12952476  1  0.110321  0  0.116924  0.110901  0  1.035582  0
H  H40  1  0.06152397  0.67503616  0.62952553  1  0.119464  0  0.11691  0.11095  0  1.035651  0
H  H41  1  0.38648051  0.32495247  0.87047490  1  0.110335  0  0.116927  0.110908  0  1.035589  0
H  H42  1  0.31487786  0.78488225  0.33569252  1  0.06303  0  0.111844  0.120333  0  0.965441  0
H  H43  1  0.52999420  0.21511965  0.16430927  1  0.061576  0  0.111813  0.120291  0  0.965424  0
H  H44  1  0.68511805  0.21511203  0.66430834  1  0.062907  0  0.111833  0.120297  0  0.965394  0
H  H45  1  0.47000544  0.78488039  0.83569080  1  0.06157  0  0.111833  0.12032  0  0.965419  0
H  H46  1  0.36195731  0.70001450  0.38251215  1  0.099354  0  0.105121  0.115629  0  1.008061  0
H  H47  1  0.66194180  0.29998761  0.11748902  1  0.099682  0  0.105122  0.115615  0  1.008073  0
H  H48  1  0.63804186  0.29998459  0.61748872  1  0.099056  0  0.105121  0.115634  0  1.008072  0
H  H49  1  0.33806050  0.70001436  0.88251106  1  0.099689  0  0.105097  0.115608  0  1.008056  0
H  H50  1  0.23878132  0.74070946  0.40100131  1  0.096757  0  0.101528  0.108174  0  1.044649  0
H  H51  1  0.49806925  0.25928962  0.09899916  1  0.092474  0  0.101505  0.108114  0  1.044696  0
H  H52  1  0.76121411  0.25928386  0.59899914  1  0.096794  0  0.101541  0.108198  0  1.044644  0
H  H53  1  0.50193124  0.74071042  0.90100051  1  0.092456  0  0.101477  0.108081  0  1.044707  0
H  H54  1  0.38908241  0.99253066  0.04849085  1  0.050839  0  0.100154  0.101528  0  1.001687  0
H  H55  1  0.39654865  0.00746218  0.45150844  1  0.044126  0  0.100208  0.101615  0  1.001622  0
H  H56  1  0.61091638  0.00746939  0.95150962  1  0.050863  0  0.100128  0.101502  0  1.001696  0
H  H57  1  0.60344849  0.99253117  0.54849524  1  0.044328  0  0.100178  0.101578  0  1.001646  0
H  H58  1  0.20582166  0.02868504  0.90472593  1  0.053818  0  0.099968  0.101359  0  0.997579  0
H  H59  1  0.17714034  0.97132247  0.59527248  1  0.062877  0  0.099972  0.101351  0  0.997555  0
H  H60  1  0.79417857  0.97131789  0.09527415  1  0.053807  0  0.099991  0.101359  0  0.997589  0
H  H61  1  0.82285784  0.02868144  0.40473003  1  0.06282  0  0.099951  0.101303  0  0.997544  0
H  H62  1  0.28883173  0.75951964  0.03308793  1  0.085475  0  0.098332  0.112489  0  1.05683  0
H  H63  1  0.52931244  0.24047384  0.46691058  1  0.091612  0  0.098331  0.112435  0  1.056933  0
H  H64  1  0.71116500  0.24048137  0.96691294  1  0.085525  0  0.098329  0.11248  0  1.056849  0
H  H65  1  0.47068725  0.75951948  0.53309027  1  0.091598  0  0.098324  0.112433  0  1.056906  0
H  H66  1  0.10456694  0.79261215  0.88818508  1  0.114968  0  0.105995  0.121643  0  1.011414  0
H  H67  1  0.31196447  0.20739408  0.61181376  1  0.093838  0  0.106012  0.121642  0  1.011404  0
H  H68  1  0.89543063  0.20738887  0.11181620  1  0.114922  0  0.106041  0.121675  0  1.011442  0
H  H69  1  0.68804061  0.79261174  0.38818713  1  0.094127  0  0.10603  0.121685  0  1.01136  0
H  H70  1  0.11419444  0.54367442  0.01986433  1  0.097479  0  0.112552  0.101411  0  0.994866  0
H  H71  1  0.57052875  0.45631935  0.48013124  1  0.093634  0  0.112527  0.101366  0  0.994724  0
H  H72  1  0.88580787  0.45632754  0.98013575  1  0.097388  0  0.112515  0.101329  0  0.994835  0
H  H73  1  0.42948234  0.54367298  0.51986559  1  0.093475  0  0.112509  0.101335  0  0.994822  0
H  H74  1  0.26193965  0.58624356  0.98461130  1  0.110293  0  0.117275  0.116724  0  1.002525  0
H  H75  1  0.67570068  0.41374807  0.51538842  1  0.117726  0  0.11725  0.116711  0  1.002566  0
H  H76  1  0.73805999  0.41375648  0.01538837  1  0.110375  0  0.11728  0.116692  0  1.002543  0
H  H77  1  0.32430556  0.58624814  0.48461325  1  0.117585  0  0.117256  0.116713  0  1.002544  0
H  H78  1  0.04591276  0.14903774  0.99996878  1  0.082923  0  0.101843  0.112757  0  1.013604  0
H  H79  1  0.89687050  0.85095959  0.50002815  1  0.08994  0  0.101804  0.112768  0  1.013542  0
H  H80  1  0.95408699  0.85096423  0.00003090  1  0.082877  0  0.10181  0.112703  0  1.013611  0
H  H81  1  0.10312696  0.14903950  0.49997232  1  0.089999  0  0.101771  0.112711  0  1.013594  0
H  H82  1  0.11965770  0.21035378  0.93556537  1  0.048458  0  0.098576  0.099945  0  1.004699  0
H  H83  1  0.90929652  0.78963985  0.56443364  1  0.063878  0  0.098601  0.100019  0  1.004651  0
H  H84  1  0.88034230  0.78964529  0.06443348  1  0.04851  0  0.098579  0.099938  0  1.004746  0
H  H85  1  0.09069914  0.21035732  0.43556763  1  0.063838  0  0.098586  0.099987  0  1.004729  0
H  H86  1  0.95306211  0.17066195  0.94714252  1  0.042635  0  0.096817  0.096969  0  1.031458  0
H  H87  1  0.78238853  0.82932873  0.55285437  1  0.046252  0  0.096799  0.096984  0  1.031412  0
H  H88  1  0.04693898  0.82934097  0.05285715  1  0.04263  0  0.096812  0.096965  0  1.031435  0
H  H89  1  0.21760471  0.17066362  0.44714568  1  0.046181  0  0.096813  0.096996  0  1.031362  0
C  C90  1  0.39393753  0.69435849  0.12041351  1  -0.065429  0  -0.099875  -0.173458  0  3.961182  0
C  C91  1  0.69958054  0.30564582  0.37958531  1  -0.061841  0  -0.099902  -0.173487  0  3.96124  0
C  C92  1  0.60606610  0.30564443  0.87958495  1  -0.065469  0  -0.099873  -0.173462  0  3.961153  0
C  C93  1  0.30041921  0.69435615  0.62041476  1  -0.061823  0  -0.09989  -0.173433  0  3.961166  0
C  C94  1  0.38047188  0.58191108  0.09218438  1  0.363676  0  0.086039  0.170808  0  4.055254  0
C  C95  1  0.79856267  0.41809048  0.40781412  1  0.422408  0  0.08602  0.170768  0  4.055195  0
C  C96  1  0.61952909  0.41808993  0.90781529  1  0.403907  0  0.08597  0.170675  0  4.055142  0
C  C97  1  0.20143623  0.58191148  0.59218555  1  0.422413  0  0.086037  0.170733  0  4.055228  0
C  C98  1  0.29928498  0.45454360  0.10892174  1  0.063588  0  0.005508  -0.053457  0  3.913172  0
C  C99  1  0.84474571  0.54546021  0.39107673  1  0.042675  0  0.005431  -0.05346  0  3.913197  0
C  C100  1  0.70071525  0.54545932  0.89107713  1  0.023716  0  0.005473  -0.053405  0  3.913154  0
C  C101  1  0.15525622  0.45454270  0.60892213  1  0.042716  0  0.005477  -0.053384  0  3.913216  0
C  C102  1  0.29060953  0.34410297  0.08429864  1  0.436497  0  0.090456  0.186021  0  4.042747  0
C  C103  1  0.94650537  0.65589996  0.41570033  1  0.39123  0  0.090461  0.18595  0  4.042892  0
C  C104  1  0.70939276  0.65589898  0.91569902  1  0.436741  0  0.090427  0.185989  0  4.042842  0
C  C105  1  0.05349257  0.34410008  0.58429974  1  0.391221  0  0.090429  0.185942  0  4.042862  0
C  C106  1  0.20453824  0.21404356  0.10197615  1  -0.071765  0  -0.10068  -0.173927  0  3.968279  0
C  C107  1  0.99049378  0.78596072  0.39802157  1  -0.055977  0  -0.100622  -0.173789  0  3.968318  0
C  C108  1  0.79546028  0.78595935  0.89802151  1  -0.072531  0  -0.100633  -0.173896  0  3.968338  0
C  C109  1  0.00950598  0.21404125  0.60197891  1  -0.056302  0  -0.100654  -0.173915  0  3.968301  0
C  C110  1  0.22246610  0.13408883  0.06755255  1  -0.03206  0  -0.10934  -0.197244  0  3.998203  0
C  C111  1  0.08837264  0.86591624  0.43244549  1  -0.091795  0  -0.109384  -0.19731  0  3.998305  0
C  C112  1  0.77753451  0.86591313  0.93244712  1  -0.031429  0  -0.109334  -0.197173  0  3.99821  0
C  C113  1  0.91162626  0.13408573  0.56755418  1  -0.092046  0  -0.10939  -0.197232  0  3.998329  0
C  C114  1  0.32070057  0.21482250  0.02895932  1  0.421857  0  0.087602  0.175834  0  4.063532  0
C  C115  1  0.10587434  0.78518341  0.47104167  1  0.441131  0  0.087574  0.175875  0  4.063387  0
C  C116  1  0.67930392  0.78518044  0.97104197  1  0.421744  0  0.087565  0.175885  0  4.06347  0
C  C117  1  0.89412324  0.21481761  0.52895921  1  0.441621  0  0.087567  0.175821  0  4.063578  0
C  C118  1  0.36726089  0.16946632  0.98646193  1  0.040812  0  -0.000588  -0.070488  0  3.934675  0
C  C119  1  0.19779089  0.83053753  0.51353786  1  0.063119  0  -0.00065  -0.070623  0  3.93461  0
C  C120  1  0.63274226  0.83053564  0.01353734  1  0.040802  0  -0.000577  -0.070572  0  3.934705  0
C  C121  1  0.80220425  0.16946541  0.48646423  1  0.062809  0  -0.000574  -0.070518  0  3.934615  0
C  C122  1  0.46658443  0.24785300  0.95021362  1  0.404857  0  0.0848  0.1698  0  4.064542  0
C  C123  1  0.21872886  0.75214876  0.54978790  1  0.414557  0  0.084872  0.16994  0  4.064515  0
C  C124  1  0.53341798  0.75215089  0.04978646  1  0.404955  0  0.08487  0.17001  0  4.064478  0
C  C125  1  0.78127005  0.24785322  0.45021379  1  0.414567  0  0.084841  0.169894  0  4.064519  0
C  C126  1  0.51162163  0.20050881  0.90574833  1  -0.095699  0  -0.106056  -0.189037  0  3.989846  0
C  C127  1  0.31110939  0.79949065  0.59425130  1  -0.099437  0  -0.106091  -0.189092  0  3.989895  0
C  C128  1  0.48838163  0.79949506  0.09425014  1  -0.095849  0  -0.10615  -0.189192  0  3.98982  0
C  C129  1  0.68888989  0.20051036  0.40574918  1  -0.099211  0  -0.106096  -0.189098  0  3.989862  0
C  C130  1  0.21903446  0.43556420  0.15810304  1  0.017398  0  -0.022375  0.045814  0  4.043892  0
C  C131  1  0.78347518  0.56444001  0.34189569  1  0.036343  0  -0.022322  0.045903  0  4.043859  0
C  C132  1  0.78096396  0.56443680  0.84189663  1  0.017402  0  -0.022296  0.045861  0  4.04374  0
C  C133  1  0.21652568  0.43555907  0.65810397  1  0.036552  0  -0.022362  0.045712  0  4.043854  0
C  C134  1  0.10120413  0.43819164  0.15534804  1  -0.103231  0  -0.091468  -0.115334  0  4.001281  0
C  C135  1  0.66301473  0.56180717  0.34465084  1  -0.100977  0  -0.091513  -0.115382  0  4.001361  0
C  C136  1  0.89879781  0.56181129  0.84465285  1  -0.103314  0  -0.091502  -0.115396  0  4.001153  0
C  C137  1  0.33698516  0.43818998  0.65534801  1  -0.101161  0  -0.091489  -0.115347  0  4.001281  0
C  C138  1  0.26135613  0.41636761  0.20815098  1  -0.029229  0  -0.092123  -0.107434  0  3.99765  0
C  C139  1  0.84498960  0.58362984  0.29184824  1  -0.028302  0  -0.092134  -0.107548  0  3.997882  0
C  C140  1  0.73864181  0.58363243  0.79184869  1  -0.029669  0  -0.092169  -0.107467  0  3.997619  0
C  C141  1  0.15501042  0.41636925  0.70815263  1  -0.028346  0  -0.09212  -0.107419  0  3.997689  0
C  C142  1  0.02683632  0.42041512  0.20135538  1  0.024146  0  -0.105661  -0.195804  0  3.992218  0
C  C143  1  0.60641954  0.57958013  0.29864336  1  0.010549  0  -0.105676  -0.195812  0  3.992169  0
C  C144  1  0.97316225  0.57958108  0.79864548  1  0.024291  0  -0.105649  -0.195728  0  3.992116  0
C  C145  1  0.39358143  0.42042087  0.70135631  1  0.010572  0  -0.105676  -0.195793  0  3.992085  0
C  C146  1  0.18859524  0.39992172  0.25487867  1  0.013252  0  -0.118097  -0.229708  0  4.028722  0
C  C147  1  0.78867079  0.60007409  0.24512001  1  0.008147  0  -0.117978  -0.229526  0  4.028693  0
C  C148  1  0.81140622  0.60008025  0.74512140  1  0.013245  0  -0.118093  -0.229787  0  4.028647  0
C  C149  1  0.21132960  0.39992404  0.75488046  1  0.008171  0  -0.118054  -0.229656  0  4.028729  0
C  C150  1  0.07028461  0.40100508  0.25116483  1  0.376221  0  0.075939  0.245699  0  4.083372  0
C  C151  1  0.66928175  0.59899204  0.24883402  1  0.379355  0  0.075927  0.245736  0  4.083352  0
C  C152  1  0.92971178  0.59899017  0.74883603  1  0.376057  0  0.075996  0.245743  0  4.083217  0
C  C153  1  0.33071815  0.40100511  0.75116563  1  0.379344  0  0.075945  0.245712  0  4.083277  0
C  C154  1  0.02771599  0.36998971  0.34625703  1  0.450435  0  -0.059221  -0.135007  0  3.933498  0
C  C155  1  0.65772433  0.63001275  0.15374300  1  0.469783  0  -0.05924  -0.135022  0  3.933421  0
C  C156  1  0.97228572  0.63000937  0.65374224  1  0.450669  0  -0.059274  -0.135032  0  3.933347  0
C  C157  1  0.34227531  0.36998729  0.84625667  1  0.469784  0  -0.059237  -0.135015  0  3.933411  0
C  C158  1  0.12327074  0.49374814  0.37496586  1  1.510413  0  0.240568  0.535176  0  4.054725  0
C  C159  1  0.62952334  0.50625463  0.12503343  1  1.517068  0  0.240561  0.535223  0  4.054599  0
C  C160  1  0.87672809  0.50624519  0.62503581  1  1.510303  0  0.240581  0.535051  0  4.054627  0
C  C161  1  0.37047849  0.49374637  0.87496624  1  1.517074  0  0.240591  0.535225  0  4.054513  0
C  C162  1  0.28150504  0.71330149  0.36765565  1  0.318325  0  -0.134968  -0.169286  0  3.828681  0
C  C163  1  0.56820172  0.28670036  0.13234534  1  0.319255  0  -0.134855  -0.16909  0  3.828558  0
C  C164  1  0.71849172  0.28669279  0.63234440  1  0.318618  0  -0.134938  -0.169224  0  3.828567  0
C  C165  1  0.43179877  0.71329968  0.86765433  1  0.31927  0  -0.134818  -0.169077  0  3.828548  0
C  C166  1  0.30508209  0.02782634  0.97788384  1  -0.030647  0  -0.021075  0.05001  0  4.040533  0
C  C167  1  0.27725643  0.97217638  0.52211596  1  -0.019685  0  -0.021075  0.05001  0  4.04067  0
C  C168  1  0.69492059  0.97217466  0.02211623  1  -0.03053  0  -0.021043  0.050004  0  4.04065  0
C  C169  1  0.72273934  0.02782272  0.47788612  1  -0.01977  0  -0.021121  0.049813  0  4.040634  0
C  C170  1  0.32596623  0.94937349  0.01340331  1  -0.051318  0  -0.090655  -0.109383  0  4.004268  0
C  C171  1  0.37659085  0.05062302  0.48659511  1  -0.033233  0  -0.090714  -0.109477  0  4.00429  0
C  C172  1  0.67403486  0.05062945  0.98659758  1  -0.051409  0  -0.090621  -0.109331  0  4.004208  0
C  C173  1  0.62340639  0.94937223  0.51340656  1  -0.033395  0  -0.090627  -0.109311  0  4.004118  0
C  C174  1  0.22428047  0.96939521  0.93268590  1  0.021179  0  -0.092306  -0.119393  0  4.01757  0
C  C175  1  0.25488834  0.03061329  0.56731180  1  -0.051063  0  -0.092362  -0.119454  0  4.017704  0
C  C176  1  0.77572243  0.03060964  0.06731459  1  0.020879  0  -0.092403  -0.119445  0  4.01761  0
C  C177  1  0.74511058  0.96938870  0.43269110  1  -0.050757  0  -0.092332  -0.119326  0  4.017676  0
C  C178  1  0.26986772  0.81692729  0.00447249  1  0.035645  0  -0.114034  -0.220136  0  4.004379  0
C  C179  1  0.45294058  0.18307190  0.49552474  1  -0.065384  0  -0.11399  -0.220078  0  4.004567  0
C  C180  1  0.73013251  0.18307564  0.99552840  1  0.035735  0  -0.114024  -0.220085  0  4.004305  0
C  C181  1  0.54706224  0.81692431  0.50447612  1  -0.065517  0  -0.113957  -0.219994  0  4.004533  0
C  C182  1  0.16773492  0.83804870  0.92302505  1  -0.085326  0  -0.104243  -0.193918  0  3.994557  0
C  C183  1  0.32969480  0.16195578  0.57697306  1  0.006996  0  -0.104292  -0.193964  0  3.994628  0
C  C184  1  0.83226362  0.16195423  0.07697584  1  -0.085028  0  -0.104201  -0.193786  0  3.994642  0
C  C185  1  0.67030592  0.83804811  0.42302782  1  0.006623  0  -0.104322  -0.194024  0  3.994618  0
C  C186  1  0.19137770  0.76149370  0.95885242  1  0.376357  0  0.080239  0.25054  0  4.068062  0
C  C187  1  0.42989192  0.23850864  0.54114581  1  0.403396  0  0.080293  0.250661  0  4.068176  0
C  C188  1  0.80862158  0.23850732  0.04114887  1  0.376242  0  0.080174  0.250341  0  4.068159  0
C  C189  1  0.57011065  0.76149044  0.45885466  1  0.403475  0  0.080189  0.250485  0  4.068275  0
C  C190  1  0.15669620  0.55191797  0.97950825  1  0.400265  0  -0.064297  -0.141955  0  3.913292  0
C  C191  1  0.60478220  0.44807246  0.52049089  1  0.395784  0  -0.064105  -0.141653  0  3.912806  0
C  C192  1  0.84330318  0.44808496  0.02049264  1  0.400286  0  -0.064268  -0.141763  0  3.913082  0
C  C193  1  0.39522221  0.55192181  0.47950835  1  0.396342  0  -0.064236  -0.14191  0  3.913123  0
C  C194  1  0.09676175  0.42095744  0.95222766  1  1.564861  0  0.229567  0.53715  0  4.090518  0
C  C195  1  0.67580902  0.57903957  0.54776667  1  1.561678  0  0.22945  0.536874  0  4.090793  0
C  C196  1  0.90323678  0.57904549  0.04777242  1  1.564663  0  0.229717  0.537334  0  4.09034  0
C  C197  1  0.32419171  0.42095756  0.45222936  1  1.561777  0  0.229614  0.53724  0  4.090278  0
C  C198  1  0.04978696  0.20745080  0.96566158  1  0.386942  0  -0.142556  -0.168846  0  3.872948  0
C  C199  1  0.84233229  0.79254702  0.53433650  1  0.358717  0  -0.142486  -0.168937  0  3.872765  0
C  C200  1  0.95021412  0.79255212  0.03433769  1  0.386992  0  -0.14247  -0.168704  0  3.872786  0
C  C201  1  0.15766566  0.20745303  0.46566438  1  0.358743  0  -0.142479  -0.168857  0  3.872811  0
N  N202  1  0.46492296  0.61970445  0.04911316  1  -1.199141  0  -0.36872  -0.385296  0  3.457812  0
N  N203  1  0.84521908  0.38029875  0.45088709  1  -1.229604  0  -0.368677  -0.385222  0  3.457722  0
N  N204  1  0.53508019  0.38029751  0.95088651  1  -1.199389  0  -0.368648  -0.385146  0  3.457713  0
N  N205  1  0.15477934  0.61970226  0.54911299  1  -1.229612  0  -0.368732  -0.385284  0  3.45785  0
N  N206  1  0.35996929  0.34170394  0.04009805  1  -1.221335  0  -0.363446  -0.370718  0  3.43972  0
N  N207  1  0.01826501  0.65830338  0.45990208  1  -1.232142  0  -0.363343  -0.370588  0  3.439574  0
N  N208  1  0.64003508  0.65829705  0.95990081  1  -1.221529  0  -0.363392  -0.370736  0  3.439672  0
N  N209  1  0.98173294  0.34169667  0.54009839  1  -1.232201  0  -0.363352  -0.370579  0  3.439579  0
O  O210  1  0.98881736  0.38387407  0.29389111  1  -1.07576  0  -0.183335  -0.184497  0  2.581167  0
O  O211  1  0.60494095  0.61612160  0.20610900  1  -1.077097  0  -0.183358  -0.1845  0  2.581032  0
O  O212  1  0.01117604  0.61611348  0.70610973  1  -1.075623  0  -0.183362  -0.184503  0  2.580983  0
O  O213  1  0.39505832  0.38387940  0.79389067  1  -1.077106  0  -0.183356  -0.184503  0  2.581191  0
O  O214  1  0.14347043  0.49712282  0.42364188  1  -1.14953  0  -0.267038  -0.479702  0  2.300851  0
O  O215  1  0.64635333  0.50288055  0.07635744  1  -1.149565  0  -0.267014  -0.479716  0  2.300756  0
O  O216  1  0.85652415  0.50287050  0.57635897  1  -1.149434  0  -0.267079  -0.479687  0  2.300704  0
O  O217  1  0.35364982  0.49712141  0.92364263  1  -1.149529  0  -0.267047  -0.479734  0  2.30067  0
O  O218  1  0.18276132  0.59481812  0.34236909  1  -1.048372  0  -0.161305  -0.179945  0  2.532246  0
O  O219  1  0.58794090  0.40518448  0.15763102  1  -1.047298  0  -0.161387  -0.180052  0  2.532236  0
O  O220  1  0.81723921  0.40517520  0.65763177  1  -1.04832  0  -0.161284  -0.179902  0  2.532234  0
O  O221  1  0.41206007  0.59481652  0.84236825  1  -1.047333  0  -0.161392  -0.180042  0  2.532195  0
O  O222  1  0.13342713  0.63365363  0.94542338  1  -1.091077  0  -0.176499  -0.185469  0  2.6188  0
O  O223  1  0.49977740  0.36634089  0.55457322  1  -1.089961  0  -0.176541  -0.18553  0  2.618945  0
O  O224  1  0.86657322  0.36635123  0.05457751  1  -1.091094  0  -0.176538  -0.185536  0  2.61881  0
O  O225  1  0.50022468  0.63365722  0.44542604  1  -1.090099  0  -0.176423  -0.185339  0  2.619003  0
O  O226  1  0.05827825  0.39698056  0.90560544  1  -1.147853  0  -0.289389  -0.472526  0  2.111798  0
O  O227  1  0.66129588  0.60301120  0.59439043  1  -1.143703  0  -0.289388  -0.47245  0  2.112104  0
O  O228  1  0.94171459  0.60301949  0.09439543  1  -1.147846  0  -0.289465  -0.472618  0  2.111734  0
O  O229  1  0.33869624  0.39698400  0.40560559  1  -1.14393  0  -0.289394  -0.472535  0  2.111716  0
O  O230  1  0.09419242  0.33479836  0.98746237  1  -1.05997  0  -0.168848  -0.188757  0  2.547863  0
O  O231  1  0.75939730  0.66520174  0.51253447  1  -1.057326  0  -0.168872  -0.188723  0  2.547752  0
O  O232  1  0.90581122  0.66520456  0.01253691  1  -1.059868  0  -0.168935  -0.188909  0  2.547726  0
O  O233  1  0.24060537  0.33479926  0.48746439  1  -1.057279  0  -0.168917  -0.188874  0  2.547776  0
