# generated using pymatgen
data_CdH22C20(NO)4
_symmetry_space_group_name_H-M   'P 1'
_cell_length_a   8.66701575
_cell_length_b   8.68400776
_cell_length_c   13.41060000
_cell_angle_alpha   94.44134878
_cell_angle_beta   94.45007375
_cell_angle_gamma   95.81714493
_symmetry_Int_Tables_number   1
_chemical_formula_structural   CdH22C20(NO)4
_chemical_formula_sum   'Cd2 H44 C40 N8 O8'
_cell_volume   997.40704635
_cell_formula_units_Z   2
loop_
 _symmetry_equiv_pos_site_id
 _symmetry_equiv_pos_as_xyz
  1  'x, y, z'
loop_
 _atom_site_type_symbol
 _atom_site_label
 _atom_site_symmetry_multiplicity
 _atom_site_fract_x
 _atom_site_fract_y
 _atom_site_fract_z
 _atom_site_occupancy
 _atom_site_pbe_bader_charge
 _atom_site_pbe_bader_spin_density
 _atom_site_pbe_cm5_charge
 _atom_site_pbe_ddec_charge
 _atom_site_pbe_ddec_spin_density
 _atom_site_pbe_ddec_sum_bond_order
 _atom_site_pbe_magmom
Cd  Cd0  1  0.76690710  0.23312478  0.74985746  1  1.222881  0  0.762066  0.82923  0  2.179196  0
Cd  Cd1  1  0.23309169  0.76687651  0.25014284  1  1.222882  0  0.76206  0.829211  0  2.179201  0
H  H2  1  0.36007059  0.02564225  0.94285066  1  0.057232  0  0.101679  0.129551  0  0.993261  0
H  H3  1  0.97418601  0.63986309  0.55709520  1  0.056254  0  0.10201  0.13031  0  0.992469  0
H  H4  1  0.63992923  0.97435788  0.05714964  1  0.05725  0  0.101682  0.129539  0  0.993292  0
H  H5  1  0.02581369  0.36013589  0.44290503  1  0.056234  0  0.102001  0.130291  0  0.992464  0
H  H6  1  0.24943721  0.11091078  0.84743828  1  0.050979  0  0.095216  0.116505  0  1.006936  0
H  H7  1  0.88846318  0.75015346  0.65242286  1  0.062747  0  0.095901  0.117084  0  1.007911  0
H  H8  1  0.75056364  0.88908819  0.15256201  1  0.050973  0  0.095211  0.116485  0  1.00694  0
H  H9  1  0.11153652  0.24984551  0.34757663  1  0.062744  0  0.0959  0.117082  0  1.007876  0
H  H10  1  0.52545856  0.79981143  0.84597882  1  0.091509  0  0.099267  0.108922  0  1.023967  0
H  H11  1  0.20027031  0.47507930  0.65419795  1  0.104094  0  0.099357  0.108236  0  1.024121  0
H  H12  1  0.47454229  0.20018754  0.15402147  1  0.091509  0  0.099249  0.108938  0  1.02397  0
H  H13  1  0.79972836  0.52492084  0.34580079  1  0.104116  0  0.099369  0.10822  0  1.024134  0
H  H14  1  0.46004448  0.54043677  0.75013278  1  0.097636  0  0.102629  0.11058  0  1.008464  0
H  H15  1  0.53995522  0.45956220  0.24986671  1  0.097637  0  0.102629  0.110572  0  1.008479  0
H  H16  1  0.07363934  0.92602670  0.74989355  1  0.062175  0  0.097795  0.106992  0  1.00974  0
H  H17  1  0.92636061  0.07397460  0.25010756  1  0.06219  0  0.097796  0.106969  0  1.009761  0
H  H18  1  0.90720193  0.12632099  0.52276709  1  0.132362  0  0.117192  0.118762  0  1.026364  0
H  H19  1  0.87366005  0.09276335  0.97709256  1  0.121079  0  0.117097  0.119761  0  1.025124  0
H  H20  1  0.09279905  0.87367914  0.47723251  1  0.13236  0  0.11718  0.118753  0  1.026386  0
H  H21  1  0.12633887  0.90723911  0.02290781  1  0.121078  0  0.117102  0.119775  0  1.025094  0
H  H22  1  0.74894920  0.88443632  0.39046830  1  0.138419  0  0.127179  0.136814  0  0.999214  0
H  H23  1  0.11556797  0.25116649  0.10952310  1  0.129885  0  0.127399  0.136762  0  0.999844  0
H  H24  1  0.25105050  0.11556266  0.60953044  1  0.138389  0  0.127177  0.136824  0  0.999239  0
H  H25  1  0.88443185  0.74883365  0.89047645  1  0.129887  0  0.127399  0.136775  0  0.999795  0
H  H26  1  0.54664380  0.89577323  0.66732378  1  0.152575  0  0.131631  0.09858  0  1.041038  0
H  H27  1  0.10408589  0.45322338  0.83273885  1  0.149918  0  0.131334  0.0975  0  1.04002  0
H  H28  1  0.45335602  0.10422690  0.33267577  1  0.152559  0  0.131626  0.098607  0  1.041016  0
H  H29  1  0.89591393  0.54677676  0.16726144  1  0.149922  0  0.131338  0.097512  0  1.040014  0
H  H30  1  0.49669524  0.71507617  0.39913191  1  0.086523  0  0.112248  0.103848  0  1.008067  0
H  H31  1  0.28485249  0.50333678  0.10092756  1  0.086326  0  0.112284  0.104833  0  1.006914  0
H  H32  1  0.50330446  0.28492280  0.60086758  1  0.086529  0  0.112278  0.103886  0  1.008086  0
H  H33  1  0.71514721  0.49666219  0.89907267  1  0.086333  0  0.112296  0.104878  0  1.006921  0
H  H34  1  0.39377942  0.73815896  0.50800132  1  0.075832  0  0.110734  0.093143  0  0.990678  0
H  H35  1  0.26155392  0.60598246  0.99200396  1  0.061487  0  0.110265  0.092375  0  0.99186  0
H  H36  1  0.60622259  0.26184001  0.49199903  1  0.075732  0  0.110747  0.093146  0  0.990624  0
H  H37  1  0.73844590  0.39401768  0.00799634  1  0.061488  0  0.110245  0.092327  0  0.991879  0
H  H38  1  0.58092307  0.58033208  0.59937716  1  0.078873  0  0.091613  0.090178  0  1.019836  0
H  H39  1  0.41958346  0.41916383  0.90063593  1  0.078693  0  0.091602  0.089765  0  1.019509  0
H  H40  1  0.41907894  0.41966690  0.40062244  1  0.078857  0  0.091629  0.090204  0  1.019828  0
H  H41  1  0.58041648  0.58083746  0.09936443  1  0.078694  0  0.091598  0.089763  0  1.019505  0
H  H42  1  0.67232650  0.54868677  0.48743631  1  0.041146  0  0.093124  0.090715  0  0.998261  0
H  H43  1  0.45140400  0.32801075  0.01259067  1  0.03486  0  0.093286  0.089857  0  0.997184  0
H  H44  1  0.32767680  0.45131337  0.51256342  1  0.041204  0  0.093132  0.090743  0  0.998291  0
H  H45  1  0.54859479  0.67199055  0.98740888  1  0.03484  0  0.093275  0.089839  0  0.997173  0
C  C46  1  0.49567280  0.11627252  0.82912913  1  1.524243  0  0.189504  0.617916  0  4.182733  0
C  C47  1  0.88351324  0.50437427  0.67085309  1  1.541068  0  0.189985  0.615811  0  4.186067  0
C  C48  1  0.50432702  0.88372761  0.17087116  1  1.524247  0  0.189479  0.617878  0  4.182808  0
C  C49  1  0.11648555  0.49562702  0.32914721  1  1.540941  0  0.189929  0.615716  0  4.186213  0
C  C50  1  0.34390462  0.03834778  0.86171282  1  -0.021326  0  -0.162318  -0.345471  0  3.912622  0
C  C51  1  0.96133346  0.65598084  0.63821877  1  -0.037507  0  -0.163887  -0.347848  0  3.915616  0
C  C52  1  0.65609520  0.96165236  0.13828748  1  -0.021267  0  -0.162282  -0.345379  0  3.912665  0
C  C53  1  0.03866636  0.34401930  0.36178152  1  -0.037355  0  -0.163867  -0.347766  0  3.915498  0
C  C54  1  0.30371406  0.87972403  0.80478315  1  -0.016505  0  -0.009083  0.146809  0  3.973345  0
C  C55  1  0.12018734  0.69638153  0.69520482  1  -0.000144  0  -0.008955  0.148151  0  3.971391  0
C  C56  1  0.69628563  0.12027495  0.19521783  1  -0.016478  0  -0.00904  0.146834  0  3.973398  0
C  C57  1  0.87981249  0.30361861  0.30479473  1  -0.000135  0  -0.00897  0.148125  0  3.97138  0
C  C58  1  0.41159328  0.76955216  0.80469652  1  -0.084889  0  -0.103162  -0.16666  0  3.985302  0
C  C59  1  0.23059334  0.58875867  0.69544058  1  -0.103301  0  -0.103526  -0.165653  0  3.9848  0
C  C60  1  0.58840642  0.23044682  0.19530297  1  -0.084997  0  -0.103173  -0.166735  0  3.985331  0
C  C61  1  0.76940648  0.41124147  0.30455823  1  -0.103306  0  -0.103529  -0.165631  0  3.984813  0
C  C62  1  0.37519591  0.62516390  0.75009164  1  -0.095712  0  -0.094674  -0.077091  0  4.034985  0
C  C63  1  0.62480391  0.37483624  0.24990791  1  -0.095715  0  -0.094669  -0.077061  0  4.034962  0
C  C64  1  0.15870030  0.84120895  0.74994079  1  -0.083792  0  -0.098351  -0.215535  0  3.943217  0
C  C65  1  0.84129836  0.15879118  0.25005945  1  -0.083791  0  -0.098368  -0.215524  0  3.943291  0
C  C66  1  0.81085999  0.04123371  0.53331793  1  0.414794  0  -0.00474  -0.040139  0  4.020279  0
C  C67  1  0.95872533  0.18902490  0.96657015  1  0.414265  0  -0.007433  -0.044426  0  4.021281  0
C  C68  1  0.18913855  0.95876527  0.46668150  1  0.414819  0  -0.004672  -0.040099  0  4.02022  0
C  C69  1  0.04127333  0.81097524  0.03342934  1  0.414257  0  -0.007444  -0.044437  0  4.021327  0
C  C70  1  0.73450695  0.92338823  0.46765218  1  0.272407  0  0.00286  -0.110152  0  3.9119  0
C  C71  1  0.07653789  0.26557639  0.03237170  1  0.294204  0  0.003279  -0.10938  0  3.909887  0
C  C72  1  0.26549416  0.07661306  0.53234823  1  0.272448  0  0.002804  -0.110236  0  3.911896  0
C  C73  1  0.92346193  0.73442375  0.96762859  1  0.294183  0  0.003266  -0.109395  0  3.909865  0
C  C74  1  0.62559644  0.92737323  0.61153762  1  0.981746  0  0.138142  0.089519  0  3.926041  0
C  C75  1  0.07246119  0.37432155  0.88847264  1  0.962423  0  0.139405  0.092444  0  3.922071  0
C  C76  1  0.37440454  0.07262690  0.38846124  1  0.981732  0  0.138106  0.089432  0  3.926055  0
C  C77  1  0.92753876  0.62567974  0.11152773  1  0.962409  0  0.139424  0.092477  0  3.921928  0
C  C78  1  0.50749494  0.71852906  0.48133364  1  0.287183  0  -0.054057  -0.068968  0  3.868871  0
C  C79  1  0.28125443  0.49251454  0.01872786  1  0.319685  0  -0.054031  -0.070525  0  3.872726  0
C  C80  1  0.49250604  0.28147107  0.51866671  1  0.28725  0  -0.054041  -0.068914  0  3.868835  0
C  C81  1  0.71874655  0.50748559  0.98127249  1  0.319685  0  -0.054009  -0.070506  0  3.872802  0
C  C82  1  0.56040096  0.56866637  0.51704933  1  -0.070824  0  -0.165439  -0.16532  0  3.937716  0
C  C83  1  0.43128097  0.43969181  0.98296192  1  -0.050782  0  -0.165341  -0.162968  0  3.934881  0
C  C84  1  0.43960221  0.43133260  0.48294958  1  -0.043926  0  -0.16555  -0.16553  0  3.937899  0
C  C85  1  0.56871885  0.56030833  0.01703763  1  -0.076863  0  -0.165322  -0.162912  0  3.93485  0
N  N86  1  0.74172778  0.04208531  0.62290921  1  -1.226015  0  -0.368374  -0.311584  0  3.572776  0
N  N87  1  0.95785702  0.25811177  0.87699589  1  -1.20514  0  -0.367445  -0.309904  0  3.570995  0
N  N88  1  0.25827216  0.95791599  0.37709115  1  -1.226011  0  -0.368355  -0.311512  0  3.572818  0
N  N89  1  0.04214074  0.74189069  0.12300442  1  -1.205148  0  -0.367433  -0.309915  0  3.571033  0
N  N90  1  0.61730747  0.85338121  0.51838876  1  -1.243718  0  -0.242347  0.049463  0  3.777231  0
N  N91  1  0.14634241  0.38278997  0.98168533  1  -1.251909  0  -0.242167  0.049249  0  3.778042  0
N  N92  1  0.38269235  0.14661893  0.48161079  1  -1.243677  0  -0.242337  0.049491  0  3.777267  0
N  N93  1  0.85365742  0.61721017  0.01831422  1  -1.251876  0  -0.242203  0.049182  0  3.777921  0
O  O94  1  0.62325960  0.07489243  0.86583458  1  -1.1669  0  -0.34071  -0.573638  0  2.142255  0
O  O95  1  0.92500978  0.37705529  0.63408638  1  -1.181694  0  -0.340726  -0.572514  0  2.143271  0
O  O96  1  0.37674022  0.92510771  0.13416572  1  -1.166893  0  -0.340687  -0.573608  0  2.14232  0
O  O97  1  0.07499120  0.62294485  0.36591547  1  -1.181729  0  -0.340683  -0.57247  0  2.1433  0
O  O98  1  0.48914666  0.21500291  0.76315037  1  -1.170487  0  -0.344729  -0.586659  0  2.162329  0
O  O99  1  0.78477580  0.51072703  0.73692198  1  -1.175313  0  -0.344575  -0.585212  0  2.162167  0
O  O100  1  0.51085188  0.78499606  0.23684980  1  -1.170491  0  -0.344749  -0.586682  0  2.162284  0
O  O101  1  0.21522312  0.48927542  0.26307839  1  -1.175272  0  -0.344564  -0.585174  0  2.162203  0
