# generated using pymatgen
data_CdH19C21S(NO2)3
_symmetry_space_group_name_H-M   'P 1'
_cell_length_a   8.45835735
_cell_length_b   10.36290369
_cell_length_c   12.76275297
_cell_angle_alpha   79.84021781
_cell_angle_beta   73.43662136
_cell_angle_gamma   81.95081540
_symmetry_Int_Tables_number   1
_chemical_formula_structural   CdH19C21S(NO2)3
_chemical_formula_sum   'Cd2 H38 C42 S2 N6 O12'
_cell_volume   1050.67645417
_cell_formula_units_Z   2
loop_
 _symmetry_equiv_pos_site_id
 _symmetry_equiv_pos_as_xyz
  1  'x, y, z'
loop_
 _atom_site_type_symbol
 _atom_site_label
 _atom_site_symmetry_multiplicity
 _atom_site_fract_x
 _atom_site_fract_y
 _atom_site_fract_z
 _atom_site_occupancy
 _atom_site_hle17_bader_spin_density
 _atom_site_hle17_ddec_charge
 _atom_site_hle17_ddec_spin_density
 _atom_site_hle17_ddec_sum_bond_order
 _atom_site_hle17_magmom
 _atom_site_hse06_10hf_bader_spin_density
 _atom_site_hse06_10hf_ddec_charge
 _atom_site_hse06_10hf_ddec_spin_density
 _atom_site_hse06_10hf_ddec_sum_bond_order
 _atom_site_hse06_10hf_magmom
 _atom_site_hse06_bader_spin_density
 _atom_site_hse06_ddec_charge
 _atom_site_hse06_ddec_spin_density
 _atom_site_hse06_ddec_sum_bond_order
 _atom_site_hse06_magmom
 _atom_site_pbe_bader_spin_density
 _atom_site_pbe_cm5_charge
 _atom_site_pbe_ddec_charge
 _atom_site_pbe_ddec_spin_density
 _atom_site_pbe_ddec_sum_bond_order
 _atom_site_pbe_magmom
Cd  Cd0  1  0.04445778  0.17166517  0.49187072  1  0  1.104041  0  1.713065  0  0  0.907983  0  2.158732  0  0  0.967886  0  2.107609  0  0  0.775012  0.865567  0  2.193486  0
Cd  Cd1  1  0.95553962  0.82833613  0.50812988  1  0  1.104004  0  1.713152  0  0  0.90795  0  2.158808  0  0  0.967844  0  2.107701  0  0  0.775002  0.86554  0  2.193565  0
H  H2  1  0.07209673  0.77862119  0.75365543  1  0  0.065526  0  0.926786  0  0  0.074723  0  0.991188  0  0  0.076086  0  0.991297  0  0  0.111785  0.073784  0  0.991211  0
H  H3  1  0.92790217  0.22137817  0.24634752  1  0  0.065547  0  0.926785  0  0  0.074762  0  0.991141  0  0  0.076127  0  0.991245  0  0  0.111807  0.073822  0  0.991163  0
H  H4  1  0.36923136  0.72387744  0.75317614  1  0  0.073383  0  0.933401  0  0  0.091998  0  0.993452  0  0  0.093144  0  0.993302  0  0  0.09019  0.091093  0  0.993679  0
H  H5  1  0.63076888  0.27612090  0.24682278  1  0  0.073363  0  0.933414  0  0  0.091971  0  0.993475  0  0  0.093116  0  0.993325  0  0  0.090175  0.091061  0  0.993695  0
H  H6  1  0.34084913  0.77083536  0.61802841  1  0  0.088562  0  0.928419  0  0  0.102992  0  0.991971  0  0  0.105188  0  0.99095  0  0  0.094143  0.101434  0  0.992706  0
H  H7  1  0.65914569  0.22916692  0.38197253  1  0  0.088599  0  0.928418  0  0  0.103029  0  0.991959  0  0  0.105223  0  0.990942  0  0  0.094155  0.101459  0  0.992697  0
H  H8  1  0.41366226  0.99724607  0.61256547  1  0  0.116502  0  0.923413  0  0  0.131503  0  0.980189  0  0  0.13385  0  0.979613  0  0  0.103354  0.129826  0  0.980664  0
H  H9  1  0.58633786  0.00275327  0.38743490  1  0  0.116541  0  0.923389  0  0  0.131546  0  0.980161  0  0  0.133893  0  0.979584  0  0  0.103367  0.129865  0  0.980646  0
H  H10  1  0.43716798  0.95607675  0.74848774  1  0  0.091026  0  0.947196  0  0  0.103776  0  1.011077  0  0  0.105818  0  1.01008  0  0  0.091313  0.102394  0  1.011727  0
H  H11  1  0.56283103  0.04392160  0.25151298  1  0  0.091043  0  0.94722  0  0  0.103803  0  1.011089  0  0  0.105844  0  1.010095  0  0  0.091312  0.102417  0  1.011748  0
H  H12  1  0.78973220  0.97493491  0.90785042  1  0  0.114469  0  0.948394  0  0  0.123979  0  1.009199  0  0  0.127394  0  1.007142  0  0  0.110356  0.121474  0  1.010804  0
H  H13  1  0.21026718  0.02506047  0.09214911  1  0  0.114463  0  0.948334  0  0  0.123986  0  1.009118  0  0  0.127399  0  1.007064  0  0  0.110395  0.121481  0  1.010723  0
H  H14  1  0.50401920  0.93546558  0.91213278  1  0  0.090187  0  0.95061  0  0  0.101856  0  1.008578  0  0  0.104535  0  1.007855  0  0  0.103431  0.099899  0  1.009312  0
H  H15  1  0.49597611  0.06453274  0.08786710  1  0  0.090255  0  0.950653  0  0  0.101901  0  1.008631  0  0  0.104595  0  1.007889  0  0  0.103461  0.099942  0  1.009364  0
H  H16  1  0.40908385  0.71182201  0.97436718  1  0  0.097065  0  0.978417  0  0  0.103421  0  1.045719  0  0  0.107192  0  1.04259  0  0  0.098447  0.100594  0  1.048131  0
H  H17  1  0.59092046  0.28817338  0.02562985  1  0  0.097031  0  0.978375  0  0  0.103371  0  1.0457  0  0  0.107141  0  1.042573  0  0  0.09844  0.100558  0  1.048096  0
H  H18  1  0.60120208  0.52509861  0.03484502  1  0  0.09234  0  0.961718  0  0  0.103484  0  1.02189  0  0  0.106121  0  1.021031  0  0  0.102734  0.101615  0  1.022582  0
H  H19  1  0.39880334  0.47489779  0.96515399  1  0  0.092397  0  0.961697  0  0  0.103554  0  1.021853  0  0  0.106191  0  1.020992  0  0  0.102726  0.101685  0  1.022547  0
H  H20  1  0.88505348  0.56315865  0.02942315  1  0  0.107558  0  0.971446  0  0  0.113855  0  1.03921  0  0  0.117347  0  1.036901  0  0  0.104287  0.111196  0  1.041173  0
H  H21  1  0.11494923  0.43683973  0.97057765  1  0  0.107563  0  0.971416  0  0  0.113852  0  1.03919  0  0  0.117325  0  1.036904  0  0  0.104279  0.111196  0  1.041149  0
H  H22  1  0.20387828  0.34178732  0.25534584  1  0  0.082681  0  0.945079  0  0  0.08942  0  1.010352  0  0  0.091337  0  1.009825  0  0  0.114886  0.087996  0  1.01073  0
H  H23  1  0.79612172  0.65821300  0.74465362  1  0  0.082684  0  0.945069  0  0  0.089415  0  1.010347  0  0  0.091333  0  1.00982  0  0  0.114895  0.087993  0  1.010735  0
H  H24  1  0.16898366  0.56866442  0.14793627  1  0  0.108571  0  0.960798  0  0  0.117049  0  1.022341  0  0  0.119781  0  1.022443  0  0  0.106633  0.115082  0  1.022399  0
H  H25  1  0.83102139  0.43133494  0.85206315  1  0  0.108595  0  0.960792  0  0  0.117078  0  1.022324  0  0  0.11981  0  1.022426  0  0  0.106664  0.11511  0  1.022384  0
H  H26  1  0.93804776  0.72892133  0.23384366  1  0  0.118983  0  0.960368  0  0  0.126827  0  1.020383  0  0  0.130302  0  1.017444  0  0  0.109723  0.124344  0  1.022412  0
H  H27  1  0.06195730  0.27107803  0.76615575  1  0  0.119026  0  0.960316  0  0  0.126829  0  1.020382  0  0  0.130307  0  1.017441  0  0  0.109722  0.124346  0  1.022411  0
H  H28  1  0.74628476  0.65772354  0.41583346  1  0  0.123685  0  0.967528  0  0  0.13354  0  1.026698  0  0  0.137421  0  1.024654  0  0  0.111328  0.130694  0  1.028391  0
H  H29  1  0.25371856  0.34227974  0.58416414  1  0  0.12369  0  0.967505  0  0  0.133541  0  1.026678  0  0  0.137422  0  1.024636  0  0  0.111318  0.130689  0  1.028374  0
H  H30  1  0.59581046  0.58803162  0.56299307  1  0  0.119805  0  0.970157  0  0  0.12653  0  1.035176  0  0  0.130337  0  1.033505  0  0  0.108537  0.123671  0  1.036737  0
H  H31  1  0.40418794  0.41197167  0.43700782  1  0  0.119815  0  0.970154  0  0  0.126507  0  1.035205  0  0  0.130315  0  1.033528  0  0  0.108529  0.123648  0  1.036759  0
H  H32  1  0.40341450  0.48252807  0.73292109  1  0  0.093138  0  0.939401  0  0  0.10699  0  0.993705  0  0  0.1089  0  0.99326  0  0  0.108578  0.105545  0  0.99411  0
H  H33  1  0.59658402  0.51747423  0.26707992  1  0  0.093127  0  0.939428  0  0  0.106979  0  0.99372  0  0  0.108889  0  0.993276  0  0  0.108548  0.10553  0  0.994125  0
H  H34  1  0.46479766  0.24336944  0.80211170  1  0  0.103761  0  0.956301  0  0  0.115255  0  1.011329  0  0  0.117012  0  1.013064  0  0  0.107861  0.11395  0  1.010282  0
H  H35  1  0.53520209  0.75663286  0.19788830  1  0  0.103721  0  0.956346  0  0  0.115212  0  1.011394  0  0  0.116969  0  1.013129  0  0  0.107861  0.113906  0  1.010343  0
H  H36  1  0.72598828  0.12134877  0.69957382  1  0  0.098348  0  0.939271  0  0  0.105014  0  1.002276  0  0  0.107974  0  0.999716  0  0  0.120307  0.102637  0  1.004515  0
H  H37  1  0.27400913  0.87865253  0.30042677  1  0  0.098286  0  0.939318  0  0  0.10494  0  1.002343  0  0  0.107896  0  0.999787  0  0  0.120298  0.102562  0  1.004584  0
H  H38  1  0.08025401  0.99359304  0.85966436  1  0  0.324543  0  0.904819  0  0  0.301183  0  0.979483  0  0  0.310205  0  0.970956  0  0  0.305146  0.29481  0  0.985509  0
H  H39  1  0.91974353  0.00640729  0.14033791  1  0  0.324524  0  0.904836  0  0  0.301164  0  0.979506  0  0  0.310185  0  0.970979  0  0  0.305142  0.294787  0  0.985536  0
C  C40  1  0.09812391  0.97409402  0.66853163  1  0  0.648311  0  3.855628  0  0  0.598834  0  4.149101  0  0  0.631914  0  4.144102  0  0  0.209314  0.576262  0  4.151757  0
C  C41  1  0.90187523  0.02590334  0.33146922  1  0  0.648176  0  3.855752  0  0  0.598603  0  4.149338  0  0  0.631682  0  4.144346  0  0  0.209298  0.57604  0  4.151982  0
C  C42  1  0.15237170  0.85686870  0.74587172  1  0  0.053174  0  3.612943  0  0  0.034292  0  3.857264  0  0  0.034098  0  3.869045  0  0  0.008821  0.034322  0  3.849179  0
C  C43  1  0.84762707  0.14313163  0.25413032  1  0  0.053153  0  3.61308  0  0  0.034357  0  3.857272  0  0  0.034162  0  3.869057  0  0  0.0088  0.03438  0  3.849188  0
C  C44  1  0.33333285  0.80701736  0.69530051  1  0  -0.11104  0  3.6531  0  0  -0.161107  0  3.915528  0  0  -0.161094  0  3.926563  0  0  -0.161618  -0.160931  0  3.907817  0
C  C45  1  0.66666481  0.19298196  0.30469955  1  0  -0.111052  0  3.653216  0  0  -0.161137  0  3.915622  0  0  -0.161126  0  3.926661  0  0  -0.161621  -0.160946  0  3.90789  0
C  C46  1  0.44868430  0.91568400  0.67251107  1  0  -0.255722  0  3.666186  0  0  -0.289947  0  3.913159  0  0  -0.296036  0  3.92137  0  0  -0.170001  -0.285725  0  3.907355  0
C  C47  1  0.55131458  0.08431532  0.32748797  1  0  -0.255879  0  3.666305  0  0  -0.290123  0  3.913301  0  0  -0.296212  0  3.921509  0  0  -0.170058  -0.285897  0  3.907496  0
C  C48  1  0.62897748  0.87049836  0.62388420  1  0  0.686631  0  3.861728  0  0  0.644911  0  4.152551  0  0  0.678463  0  4.147114  0  0  0.190496  0.622025  0  4.155161  0
C  C49  1  0.37102031  0.12949999  0.37611677  1  0  0.686671  0  3.86163  0  0  0.644937  0  4.152469  0  0  0.678488  0  4.14703  0  0  0.190502  0.622052  0  4.155075  0
C  C50  1  0.85296045  0.77108090  0.96879033  1  0  -0.140443  0  3.775263  0  0  -0.112427  0  4.024973  0  0  -0.120191  0  4.048518  0  0  -0.025057  -0.107447  0  4.009238  0
C  C51  1  0.14704126  0.22891547  0.03120782  1  0  -0.140265  0  3.774991  0  0  -0.112261  0  4.024739  0  0  -0.120019  0  4.048272  0  0  -0.024998  -0.107298  0  4.009026  0
C  C52  1  0.74710214  0.87704080  0.93614870  1  0  -0.057868  0  3.721405  0  0  -0.084758  0  3.971697  0  0  -0.083345  0  3.990238  0  0  -0.080933  -0.085499  0  3.959187  0
C  C53  1  0.25289673  0.12295851  0.06384956  1  0  -0.057906  0  3.721346  0  0  -0.084791  0  3.971624  0  0  -0.083381  0  3.990173  0  0  -0.080967  -0.085527  0  3.959114  0
C  C54  1  0.58719345  0.85436538  0.93871450  1  0  -0.050177  0  3.741801  0  0  -0.063111  0  3.993607  0  0  -0.065927  0  4.013963  0  0  -0.082117  -0.061275  0  3.979829  0
C  C55  1  0.41280716  0.14563001  0.06128480  1  0  -0.050244  0  3.741843  0  0  -0.063172  0  3.993635  0  0  -0.065996  0  4.013985  0  0  -0.082128  -0.061333  0  3.979855  0
C  C56  1  0.53393111  0.72832082  0.97357658  1  0  -0.067393  0  3.737837  0  0  -0.082908  0  3.986175  0  0  -0.082452  0  4.004858  0  0  -0.087507  -0.082885  0  3.973475  0
C  C57  1  0.46606678  0.27167652  0.02642216  1  0  -0.067345  0  3.737808  0  0  -0.082835  0  3.986147  0  0  -0.082378  0  4.004834  0  0  -0.087496  -0.082825  0  3.973443  0
C  C58  1  0.64084113  0.62387831  0.00693836  1  0  -0.074252  0  3.767664  0  0  -0.084924  0  4.016531  0  0  -0.088055  0  4.037256  0  0  -0.090393  -0.082844  0  4.002359  0
C  C59  1  0.35916651  0.37612007  0.99305993  1  0  -0.074354  0  3.767683  0  0  -0.085046  0  4.016543  0  0  -0.088177  0  4.037261  0  0  -0.090435  -0.082971  0  4.002383  0
C  C60  1  0.80120602  0.64463647  0.00468221  1  0  -0.074152  0  3.760263  0  0  -0.099959  0  4.009283  0  0  -0.099084  0  4.029117  0  0  -0.088162  -0.100335  0  3.995962  0
C  C61  1  0.19879668  0.35536187  0.99531546  1  0  -0.074195  0  3.75995  0  0  -0.099991  0  4.008981  0  0  -0.099107  0  4.02883  0  0  -0.088153  -0.100364  0  3.99566  0
C  C62  1  0.10407143  0.41545756  0.28707073  1  0  0.130096  0  3.723474  0  0  0.100451  0  3.978034  0  0  0.107342  0  3.997179  0  0  0.046949  0.096112  0  3.964918  0
C  C63  1  0.89593104  0.58454278  0.71292982  1  0  0.130193  0  3.723432  0  0  0.100558  0  3.977972  0  0  0.107449  0  3.997116  0  0  0.047003  0.096211  0  3.964877  0
C  C64  1  0.08447360  0.54069124  0.22838321  1  0  -0.113342  0  3.713123  0  0  -0.126441  0  3.963495  0  0  -0.134045  0  3.986393  0  0  -0.082592  -0.121432  0  3.947957  0
C  C65  1  0.91553133  0.45930911  0.77161686  1  0  -0.11338  0  3.713051  0  0  -0.126483  0  3.963415  0  0  -0.134085  0  3.986311  0  0  -0.082586  -0.121469  0  3.947879  0
C  C66  1  0.95402262  0.62877584  0.27540141  1  0  0.005545  0  3.687461  0  0  -0.014138  0  3.938162  0  0  -0.010585  0  3.955947  0  0  -0.064438  -0.016051  0  3.925688  0
C  C67  1  0.04598440  0.37122746  0.72459626  1  0  0.005531  0  3.687473  0  0  -0.014137  0  3.938189  0  0  -0.01058  0  3.955966  0  0  -0.064457  -0.016047  0  3.925705  0
C  C68  1  0.84671831  0.58869481  0.37793825  1  0  -0.152272  0  3.689933  0  0  -0.171306  0  3.941785  0  0  -0.178741  0  3.961781  0  0  -0.081133  -0.166587  0  3.928492  0
C  C69  1  0.15328378  0.41130848  0.62206114  1  0  -0.152238  0  3.689965  0  0  -0.171263  0  3.941789  0  0  -0.178702  0  3.96179  0  0  -0.081111  -0.166537  0  3.928489  0
C  C70  1  0.87247845  0.46046137  0.43157961  1  0  0.172488  0  3.761084  0  0  0.168191  0  4.003262  0  0  0.175131  0  4.024393  0  0  0.116721  0.163641  0  3.988864  0
C  C71  1  0.12752130  0.53954092  0.56841960  1  0  0.172424  0  3.76111  0  0  0.168137  0  4.003273  0  0  0.175078  0  4.024404  0  0  0.116705  0.163595  0  3.988871  0
C  C72  1  0.75935455  0.40801641  0.53876324  1  0  0.176832  0  3.747775  0  0  0.171582  0  3.989256  0  0  0.178073  0  4.010697  0  0  0.119726  0.167205  0  3.974739  0
C  C73  1  0.24064507  0.59198687  0.46123585  1  0  0.176766  0  3.747789  0  0  0.171506  0  3.98927  0  0  0.177994  0  4.010712  0  0  0.119678  0.167119  0  3.974766  0
C  C74  1  0.61950105  0.48408457  0.59346478  1  0  -0.144424  0  3.690507  0  0  -0.163511  0  3.941555  0  0  -0.170775  0  3.963082  0  0  -0.07948  -0.158849  0  3.927413  0
C  C75  1  0.38049870  0.51591772  0.40653521  1  0  -0.144318  0  3.690599  0  0  -0.163373  0  3.941633  0  0  -0.170632  0  3.963158  0  0  -0.079414  -0.158708  0  3.927478  0
C  C76  1  0.51292788  0.42524658  0.68931955  1  0  -0.006784  0  3.738258  0  0  -0.025255  0  3.988265  0  0  -0.022595  0  4.008513  0  0  -0.065902  -0.026706  0  3.974417  0
C  C77  1  0.48707052  0.57475670  0.31068056  1  0  -0.007027  0  3.738546  0  0  -0.025486  0  3.988544  0  0  -0.022828  0  4.008793  0  0  -0.06602  -0.026935  0  3.974688  0
C  C78  1  0.54693766  0.29280565  0.72847833  1  0  -0.113514  0  3.717013  0  0  -0.123021  0  3.96034  0  0  -0.130019  0  3.982896  0  0  -0.0786  -0.118552  0  3.945298  0
C  C79  1  0.45306209  0.70719665  0.27152166  1  0  -0.113289  0  3.71698  0  0  -0.122813  0  3.960298  0  0  -0.12981  0  3.982853  0  0  -0.078496  -0.118344  0  3.945253  0
C  C80  1  0.69129176  0.22464332  0.67226726  1  0  0.154984  0  3.667125  0  0  0.124295  0  3.915846  0  0  0.13168  0  3.933029  0  0  0.058409  0.11926  0  3.90467  0
C  C81  1  0.30870553  0.77535897  0.32773399  1  0  0.155071  0  3.66701  0  0  0.1244  0  3.915739  0  0  0.131786  0  3.932917  0  0  0.058444  0.119368  0  3.904562  0
S  S82  1  0.05909711  0.79550328  0.96464499  1  0  1.219635  0  5.425844  0  0  1.118314  0  5.94488  0  0  1.1625  0  5.928756  0  0  0.562109  1.087963  0  5.955095  0
S  S83  1  0.94089540  0.20450794  0.03536289  1  0  1.219634  0  5.425744  0  0  1.118225  0  5.944883  0  0  1.162412  0  5.928758  0  0  0.561983  1.08788  0  5.955097  0
N  N84  1  0.12993173  0.89742821  0.85440957  1  0  -0.569402  0  3.169509  0  0  -0.515153  0  3.44241  0  0  -0.533585  0  3.443329  0  0  -0.455666  -0.502396  0  3.441561  0
N  N85  1  0.87006852  0.10257016  0.14559170  1  0  -0.569359  0  3.169445  0  0  -0.515091  0  3.442259  0  0  -0.533523  0  3.443182  0  0  -0.455607  -0.502332  0  3.441409  0
N  N86  1  0.00097123  0.37711016  0.38564668  1  0  -0.372639  0  3.268834  0  0  -0.303133  0  3.532441  0  0  -0.323159  0  3.551156  0  0  -0.330387  -0.28955  0  3.519343  0
N  N87  1  0.99902840  0.62289313  0.61435397  1  0  -0.372688  0  3.26888  0  0  -0.303178  0  3.532469  0  0  -0.323204  0  3.551182  0  0  -0.33043  -0.289596  0  3.519382  0
N  N88  1  0.79447060  0.28159385  0.58055942  1  0  -0.355383  0  3.251026  0  0  -0.282501  0  3.510372  0  0  -0.302623  0  3.529372  0  0  -0.320324  -0.268739  0  3.49731  0
N  N89  1  0.20552902  0.71840941  0.41943888  1  0  -0.355387  0  3.250963  0  0  -0.282508  0  3.510319  0  0  -0.30263  0  3.52932  0  0  -0.320336  -0.268748  0  3.497268  0
O  O90  1  0.04896443  0.08378630  0.70086725  1  0  -0.597925  0  1.942502  0  0  -0.541641  0  2.169698  0  0  -0.56696  0  2.161947  0  0  -0.306285  -0.523755  0  2.174266  0
O  O91  1  0.95103312  0.91621405  0.29913581  1  0  -0.597841  0  1.94267  0  0  -0.541533  0  2.169887  0  0  -0.56684  0  2.162129  0  0  -0.306292  -0.523654  0  2.174452  0
O  O92  1  0.11476645  0.95349496  0.56939910  1  0  -0.664689  0  2.104865  0  0  -0.584285  0  2.366512  0  0  -0.617022  0  2.356893  0  0  -0.337647  -0.561497  0  2.37235  0
O  O93  1  0.88523109  0.04650538  0.43060396  1  0  -0.664599  0  2.104728  0  0  -0.584155  0  2.366376  0  0  -0.616895  0  2.356766  0  0  -0.337614  -0.561369  0  2.372205  0
O  O94  1  0.66621642  0.80846249  0.54010670  1  0  -0.669994  0  1.926714  0  0  -0.606488  0  2.163751  0  0  -0.635059  0  2.153723  0  0  -0.345282  -0.586065  0  2.169711  0
O  O95  1  0.33378024  0.19153485  0.45989306  1  0  -0.670018  0  1.926738  0  0  -0.606479  0  2.163762  0  0  -0.635052  0  2.153735  0  0  -0.345267  -0.58606  0  2.169715  0
O  O96  1  0.73800871  0.89795964  0.66548765  1  0  -0.6537  0  1.926886  0  0  -0.594516  0  2.159362  0  0  -0.623345  0  2.152484  0  0  -0.33952  -0.574004  0  2.163191  0
O  O97  1  0.26198919  0.10203771  0.33451187  1  0  -0.653669  0  1.926762  0  0  -0.594507  0  2.159291  0  0  -0.623338  0  2.152414  0  0  -0.339528  -0.574001  0  2.163119  0
O  O98  1  0.05413314  0.85905850  0.05822948  1  0  -0.604757  0  1.988021  0  0  -0.552723  0  2.238637  0  0  -0.572891  0  2.22607  0  0  -0.307242  -0.538589  0  2.246797  0
O  O99  1  0.94586018  0.14093582  0.94176668  1  0  -0.604946  0  1.987241  0  0  -0.55284  0  2.237834  0  0  -0.573018  0  2.225274  0  0  -0.30727  -0.538709  0  2.245989  0
O  O100  1  0.15645351  0.66938959  0.95282300  1  0  -0.612007  0  1.965291  0  0  -0.559023  0  2.215152  0  0  -0.579466  0  2.203731  0  0  -0.310309  -0.544696  0  2.2226  0
O  O101  1  0.84355268  0.33060093  0.04717910  1  0  -0.611886  0  1.96596  0  0  -0.558881  0  2.215863  0  0  -0.57932  0  2.204435  0  0  -0.310229  -0.544559  0  2.223312  0
