# generated using pymatgen
data_H15PbC27N4O4F
_symmetry_space_group_name_H-M   'P 1'
_cell_length_a   9.06936293
_cell_length_b   9.57740162
_cell_length_c   15.44856484
_cell_angle_alpha   91.69436351
_cell_angle_beta   100.90035314
_cell_angle_gamma   112.78485799
_symmetry_Int_Tables_number   1
_chemical_formula_structural   H15PbC27N4O4F
_chemical_formula_sum   'H30 Pb2 C54 N8 O8 F2'
_cell_volume   1206.98516179
_cell_formula_units_Z   2
loop_
 _symmetry_equiv_pos_site_id
 _symmetry_equiv_pos_as_xyz
  1  'x, y, z'
loop_
 _atom_site_type_symbol
 _atom_site_label
 _atom_site_symmetry_multiplicity
 _atom_site_fract_x
 _atom_site_fract_y
 _atom_site_fract_z
 _atom_site_occupancy
 _atom_site_hle17_bader_spin_density
 _atom_site_hle17_ddec_charge
 _atom_site_hle17_ddec_spin_density
 _atom_site_hle17_ddec_sum_bond_order
 _atom_site_hle17_magmom
 _atom_site_hse06_10hf_bader_spin_density
 _atom_site_hse06_10hf_ddec_charge
 _atom_site_hse06_10hf_ddec_spin_density
 _atom_site_hse06_10hf_ddec_sum_bond_order
 _atom_site_hse06_10hf_magmom
 _atom_site_hse06_bader_spin_density
 _atom_site_hse06_ddec_charge
 _atom_site_hse06_ddec_spin_density
 _atom_site_hse06_ddec_sum_bond_order
 _atom_site_hse06_magmom
 _atom_site_pbe_bader_spin_density
 _atom_site_pbe_cm5_charge
 _atom_site_pbe_ddec_charge
 _atom_site_pbe_ddec_spin_density
 _atom_site_pbe_ddec_sum_bond_order
 _atom_site_pbe_magmom
H  H0  1  0.78796496  0.54661578  0.59780733  1  0  0.316274  0  0.850248  0  0  0.310459  0  0.89102  0  0  0.316795  0  0.886682  0  0  0.341327  0.305473  0  0.894999  0
H  H1  1  0.21209881  0.45342239  0.40218375  1  0  0.316385  0  0.850115  0  0  0.310416  0  0.891073  0  0  0.316751  0  0.886743  0  0  0.341362  0.305432  0  0.895048  0
H  H2  1  0.48714146  0.96056293  0.36790825  1  0  0.075586  0  0.926298  0  0  0.08707  0  0.985782  0  0  0.089704  0  0.983452  0  0  0.118855  0.085684  0  0.985986  0
H  H3  1  0.51269302  0.03933504  0.63209291  1  0  0.075601  0  0.925964  0  0  0.087055  0  0.985543  0  0  0.089706  0  0.983193  0  0  0.118759  0.085669  0  0.985747  0
H  H4  1  0.59803534  0.96002470  0.53024019  1  0  0.09493  0  0.981939  0  0  0.106376  0  1.042357  0  0  0.108531  0  1.042556  0  0  0.10554  0.105206  0  1.041003  0
H  H5  1  0.40189722  0.03993889  0.46975656  1  0  0.095054  0  0.981998  0  0  0.106499  0  1.042384  0  0  0.108653  0  1.042576  0  0  0.105665  0.105331  0  1.041031  0
H  H6  1  0.69075459  0.75621110  0.57734114  1  0  0.098526  0  0.92104  0  0  0.115357  0  0.970465  0  0  0.118234  0  0.968805  0  0  0.111871  0.112845  0  0.972657  0
H  H7  1  0.30928644  0.24381361  0.42265369  1  0  0.098599  0  0.920926  0  0  0.1154  0  0.970391  0  0  0.118283  0  0.968733  0  0  0.111844  0.112891  0  0.972584  0
H  H8  1  0.49599373  0.52234303  0.06315717  1  0  0.088202  0  0.953211  0  0  0.096416  0  1.017584  0  0  0.099025  0  1.014811  0  0  0.123415  0.094368  0  1.019876  0
H  H9  1  0.50399109  0.47765568  0.93683872  1  0  0.08819  0  0.953329  0  0  0.096463  0  1.017629  0  0  0.099075  0  1.014853  0  0  0.123408  0.094414  0  1.019926  0
H  H10  1  0.59790182  0.31411417  0.08448910  1  0  0.133599  0  0.949456  0  0  0.139891  0  1.011099  0  0  0.143889  0  1.009303  0  0  0.116507  0.136977  0  1.012481  0
H  H11  1  0.40211155  0.68590378  0.91550569  1  0  0.133537  0  0.949489  0  0  0.139866  0  1.011097  0  0  0.143863  0  1.009301  0  0  0.116507  0.136952  0  1.01248  0
H  H12  1  0.68184356  0.25836422  0.23972427  1  0  0.124418  0  0.937328  0  0  0.133826  0  0.996874  0  0  0.138015  0  0.992663  0  0  0.113651  0.130457  0  1.000525  0
H  H13  1  0.31819137  0.74165927  0.76026789  1  0  0.124509  0  0.937415  0  0  0.133879  0  0.996993  0  0  0.138083  0  0.992751  0  0  0.113745  0.130509  0  1.000639  0
H  H14  1  0.89357207  0.44833652  0.69632069  1  0  0.111958  0  0.965936  0  0  0.119933  0  1.029058  0  0  0.12409  0  1.025077  0  0  0.107829  0.116973  0  1.031531  0
H  H15  1  0.10635175  0.55161448  0.30367369  1  0  0.111948  0  0.965921  0  0  0.119908  0  1.029086  0  0  0.124057  0  1.025098  0  0  0.107774  0.116942  0  1.031573  0
H  H16  1  0.02927937  0.33050405  0.80274938  1  0  0.128205  0  0.95199  0  0  0.136706  0  1.014103  0  0  0.139351  0  1.014108  0  0  0.114911  0.134759  0  1.014435  0
H  H17  1  0.97062580  0.66944836  0.19725122  1  0  0.127985  0  0.952108  0  0  0.136605  0  1.01411  0  0  0.139258  0  1.014078  0  0  0.114904  0.134678  0  1.014392  0
H  H18  1  0.03402325  0.02742044  0.59271747  1  0  0.120287  0  0.940269  0  0  0.132949  0  0.996371  0  0  0.136  0  0.995316  0  0  0.107934  0.130591  0  0.997486  0
H  H19  1  0.96603648  0.97261927  0.40728415  1  0  0.120337  0  0.940387  0  0  0.133056  0  0.996402  0  0  0.136108  0  0.995346  0  0  0.108073  0.130693  0  0.997535  0
H  H20  1  0.89539087  0.15011913  0.48061945  1  0  0.098416  0  0.951  0  0  0.105959  0  1.016572  0  0  0.109641  0  1.013341  0  0  0.103562  0.103458  0  1.018579  0
H  H21  1  0.10468658  0.84992479  0.51937390  1  0  0.098439  0  0.95111  0  0  0.106016  0  1.016595  0  0  0.109711  0  1.013373  0  0  0.1036  0.103518  0  1.018598  0
H  H22  1  0.87864327  0.23215818  0.15422154  1  0  0.104734  0  0.950492  0  0  0.110719  0  1.018908  0  0  0.115401  0  1.014126  0  0  0.103024  0.107393  0  1.022205  0
H  H23  1  0.12140163  0.76781406  0.84580267  1  0  0.104776  0  0.950421  0  0  0.110721  0  1.01889  0  0  0.115421  0  1.014088  0  0  0.103054  0.107395  0  1.022187  0
H  H24  1  0.12215346  0.29373422  0.93706858  1  0  0.099584  0  0.947871  0  0  0.107667  0  1.012959  0  0  0.111717  0  1.009392  0  0  0.102365  0.104829  0  1.015571  0
H  H25  1  0.87782512  0.70631806  0.06292809  1  0  0.099432  0  0.947702  0  0  0.107457  0  1.012943  0  0  0.111507  0  1.009379  0  0  0.102245  0.104616  0  1.015556  0
H  H26  1  0.91613416  0.03921743  0.86065548  1  0  0.088926  0  0.967709  0  0  0.095579  0  1.030088  0  0  0.099168  0  1.028984  0  0  0.093419  0.092981  0  1.031024  0
H  H27  1  0.08386027  0.96082444  0.13933783  1  0  0.088833  0  0.967833  0  0  0.095484  0  1.030227  0  0  0.099074  0  1.029126  0  0  0.093345  0.092902  0  1.031146  0
H  H28  1  0.68824390  0.88534109  0.93174298  1  0  0.098761  0  0.956849  0  0  0.106745  0  1.020918  0  0  0.10983  0  1.019662  0  0  0.102502  0.104523  0  1.021983  0
H  H29  1  0.31178302  0.11466692  0.06826114  1  0  0.098795  0  0.956909  0  0  0.106802  0  1.020962  0  0  0.109888  0  1.019702  0  0  0.102494  0.104581  0  1.022026  0
Pb  Pb30  1  0.36366224  0.74741115  0.15797543  1  0  1.127449  0  1.584536  0  0  0.930852  0  1.992596  0  0  0.988347  0  1.955166  0  0  0.58068  0.889276  0  2.019247  0
Pb  Pb31  1  0.63634011  0.25259451  0.84202514  1  0  1.127494  0  1.584523  0  0  0.930865  0  1.992544  0  0  0.988348  0  1.955145  0  0  0.580659  0.889263  0  2.019248  0
C  C32  1  0.52905299  0.87276950  0.39110355  1  0  0.122961  0  3.735468  0  0  0.089192  0  3.996992  0  0  0.095999  0  4.013858  0  0  0.052256  0.086839  0  3.982396  0
C  C33  1  0.47084275  0.12716355  0.60889587  1  0  0.123138  0  3.734884  0  0  0.089314  0  3.996452  0  0  0.096108  0  4.013315  0  0  0.05224  0.086966  0  3.981851  0
C  C34  1  0.59028068  0.87195102  0.48158966  1  0  -0.115797  0  3.761345  0  0  -0.129223  0  4.019804  0  0  -0.134078  0  4.040641  0  0  -0.086711  -0.125248  0  4.00295  0
C  C35  1  0.40966458  0.12801598  0.51840795  1  0  -0.11621  0  3.761444  0  0  -0.12959  0  4.019909  0  0  -0.134441  0  4.040745  0  0  -0.086912  -0.125618  0  4.00306  0
C  C36  1  0.64319096  0.75918920  0.50736911  1  0  -0.043185  0  3.710313  0  0  -0.072855  0  3.967831  0  0  -0.070347  0  3.984145  0  0  -0.071792  -0.075867  0  3.957961  0
C  C37  1  0.35681541  0.24081517  0.49262739  1  0  -0.043238  0  3.710441  0  0  -0.072868  0  3.967945  0  0  -0.070371  0  3.984272  0  0  -0.071762  -0.075891  0  3.95809  0
C  C38  1  0.63739505  0.65001150  0.44221633  1  0  -0.042831  0  3.831505  0  0  -0.030874  0  4.077173  0  0  -0.033108  0  4.099913  0  0  -0.008116  -0.029704  0  4.062619  0
C  C39  1  0.36262275  0.34999853  0.55778025  1  0  -0.042986  0  3.831571  0  0  -0.031021  0  4.077339  0  0  -0.033259  0  4.100084  0  0  -0.008175  -0.029851  0  4.062789  0
C  C40  1  0.57521269  0.66053259  0.35154095  1  0  0.134857  0  3.751724  0  0  0.12269  0  4.004067  0  0  0.127694  0  4.024387  0  0  0.118981  0.120713  0  3.989297  0
C  C41  1  0.42476913  0.33945141  0.64845713  1  0  0.135317  0  3.75147  0  0  0.12296  0  4.004057  0  0  0.127966  0  4.024376  0  0  0.119128  0.120985  0  3.989282  0
C  C42  1  0.57625064  0.55795182  0.28039575  1  0  0.122058  0  3.755492  0  0  0.108307  0  4.005744  0  0  0.112792  0  4.027715  0  0  0.115182  0.105332  0  3.990045  0
C  C43  1  0.42374283  0.44204344  0.71959986  1  0  0.121868  0  3.755807  0  0  0.108257  0  4.005973  0  0  0.112742  0  4.027944  0  0  0.115204  0.105284  0  3.990264  0
C  C44  1  0.53718667  0.49681469  0.12921854  1  0  0.153654  0  3.661712  0  0  0.114994  0  3.920917  0  0  0.123734  0  3.936486  0  0  0.065626  0.108879  0  3.910713  0
C  C45  1  0.46279928  0.50318400  0.87077684  1  0  0.15356  0  3.661586  0  0  0.114868  0  3.920834  0  0  0.123608  0  3.936397  0  0  0.065601  0.108753  0  3.910626  0
C  C46  1  0.59382673  0.37997564  0.14206939  1  0  -0.096985  0  3.675598  0  0  -0.109987  0  3.931516  0  0  -0.116058  0  3.950424  0  0  -0.069819  -0.106038  0  3.918994  0
C  C47  1  0.40617696  0.62003549  0.85792488  1  0  -0.096735  0  3.6754  0  0  -0.109763  0  3.931335  0  0  -0.115834  0  3.950251  0  0  -0.069682  -0.105812  0  3.918805  0
C  C48  1  0.64054036  0.35038069  0.22774594  1  0  -0.029845  0  3.649769  0  0  -0.054184  0  3.892259  0  0  -0.05204  0  3.909318  0  0  -0.057889  -0.055675  0  3.881146  0
C  C49  1  0.35947619  0.64963148  0.77224661  1  0  -0.029906  0  3.649943  0  0  -0.054233  0  3.892492  0  0  -0.052092  0  3.909519  0  0  -0.058027  -0.055718  0  3.881373  0
C  C50  1  0.63512352  0.44178586  0.29934587  1  0  -0.031538  0  3.784006  0  0  -0.017483  0  4.015319  0  0  -0.0211  0  4.040168  0  0  -0.000705  -0.014907  0  3.998525  0
C  C51  1  0.36488559  0.55821953  0.70064772  1  0  -0.031697  0  3.78413  0  0  -0.017612  0  4.015423  0  0  -0.021235  0  4.040285  0  0  -0.000665  -0.015035  0  3.998627  0
C  C52  1  0.69309852  0.43040193  0.39083960  1  0  0.106027  0  3.841831  0  0  0.100134  0  4.102894  0  0  0.102333  0  4.12667  0  0  0.088414  0.099033  0  4.087107  0
C  C53  1  0.30692883  0.56961707  0.60915360  1  0  0.106401  0  3.841538  0  0  0.100399  0  4.102766  0  0  0.1026  0  4.126538  0  0  0.088437  0.099295  0  4.086986  0
C  C54  1  0.69386444  0.53222470  0.45819668  1  0  0.097608  0  3.822308  0  0  0.077368  0  4.086919  0  0  0.078974  0  4.110786  0  0  0.086142  0.074893  0  4.072479  0
C  C55  1  0.30616950  0.46779663  0.54179860  1  0  0.097442  0  3.822315  0  0  0.077232  0  4.08696  0  0  0.078838  0  4.110826  0  0  0.086156  0.074756  0  4.072523  0
C  C56  1  0.80477394  0.37496445  0.51372357  1  0  0.341227  0  3.777006  0  0  0.313014  0  4.055219  0  0  0.327461  0  4.069927  0  0  0.219001  0.302466  0  4.045493  0
C  C57  1  0.19525630  0.62505332  0.48626738  1  0  0.341138  0  3.777261  0  0  0.313011  0  4.055392  0  0  0.327461  0  4.070098  0  0  0.21901  0.302462  0  4.045668  0
C  C58  1  0.88400941  0.30615441  0.57948565  1  0  -0.033025  0  3.820608  0  0  -0.020653  0  4.063244  0  0  -0.024943  0  4.087177  0  0  -0.018711  -0.018123  0  4.047491  0
C  C59  1  0.11600195  0.69385096  0.42050756  1  0  -0.032864  0  3.820438  0  0  -0.020637  0  4.063199  0  0  -0.02493  0  4.087134  0  0  -0.018647  -0.018106  0  4.047446  0
C  C60  1  0.92171589  0.35643322  0.67051863  1  0  -0.07071  0  3.726685  0  0  -0.095403  0  3.983511  0  0  -0.095301  0  4.003809  0  0  -0.080865  -0.093357  0  3.9681  0
C  C61  1  0.07824791  0.64354275  0.32947665  1  0  -0.070652  0  3.726579  0  0  -0.095278  0  3.983453  0  0  -0.095159  0  4.003742  0  0  -0.080761  -0.093233  0  3.96804  0
C  C62  1  0.99820985  0.28970879  0.73249133  1  0  -0.193819  0  3.777192  0  0  -0.217002  0  4.035953  0  0  -0.224206  0  4.059179  0  0  -0.095567  -0.212918  0  4.020093  0
C  C63  1  0.00173912  0.71026170  0.26750867  1  0  -0.193788  0  3.777382  0  0  -0.217113  0  4.036163  0  0  -0.224314  0  4.059405  0  0  -0.095661  -0.213024  0  4.02031  0
C  C64  1  0.03595653  0.17188112  0.70243756  1  0  0.313641  0  3.788666  0  0  0.297816  0  4.071287  0  0  0.309731  0  4.081599  0  0  0.099463  0.290529  0  4.063711  0
C  C65  1  0.96403066  0.82811548  0.29756314  1  0  0.313874  0  3.788552  0  0  0.298066  0  4.071197  0  0  0.309983  0  4.081509  0  0  0.099578  0.290775  0  4.063625  0
C  C66  1  0.00063036  0.11921408  0.61281036  1  0  -0.198814  0  3.778884  0  0  -0.224755  0  4.039302  0  0  -0.230695  0  4.059414  0  0  -0.105338  -0.220416  0  4.025688  0
C  C67  1  0.99939858  0.88080629  0.38718950  1  0  -0.198771  0  3.779089  0  0  -0.224781  0  4.039519  0  0  -0.23072  0  4.059635  0  0  -0.105392  -0.220447  0  4.025914  0
C  C68  1  0.92487337  0.18736724  0.55141907  1  0  -0.059947  0  3.744553  0  0  -0.082889  0  4.001494  0  0  -0.081992  0  4.020978  0  0  -0.084194  -0.084849  0  3.988788  0
C  C69  1  0.07515896  0.81265298  0.44857666  1  0  -0.060168  0  3.74467  0  0  -0.083053  0  4.001645  0  0  -0.082182  0  4.021158  0  0  -0.08435  -0.085015  0  3.988945  0
C  C70  1  0.63630044  0.95661264  0.09216294  1  0  0.632889  0  3.915863  0  0  0.581703  0  4.209377  0  0  0.616457  0  4.203544  0  0  0.20239  0.558274  0  4.212203  0
C  C71  1  0.36374274  0.04336043  0.90785265  1  0  0.633627  0  3.915022  0  0  0.582456  0  4.20849  0  0  0.617209  0  4.202641  0  0  0.202721  0.559027  0  4.211324  0
C  C72  1  0.76821533  0.04988751  0.04687022  1  0  -0.063431  0  3.751371  0  0  -0.039237  0  3.985925  0  0  -0.048415  0  4.009347  0  0  -0.016687  -0.033303  0  3.969893  0
C  C73  1  0.23181686  0.95009917  0.95314285  1  0  -0.063581  0  3.75125  0  0  -0.039467  0  3.985942  0  0  -0.048631  0  4.00935  0  0  -0.016751  -0.033534  0  3.969914  0
C  C74  1  0.88519153  0.19086633  0.08926269  1  0  -0.056307  0  3.679984  0  0  -0.092422  0  3.92658  0  0  -0.089138  0  3.94387  0  0  -0.072309  -0.09388  0  3.914263  0
C  C75  1  0.11483553  0.80912159  0.91075301  1  0  -0.056261  0  3.679822  0  0  -0.092295  0  3.926434  0  0  -0.089028  0  3.943716  0  0  -0.072341  -0.093753  0  3.914118  0
C  C76  1  0.01073188  0.27939647  0.04916131  1  0  -0.059267  0  3.751989  0  0  -0.033802  0  3.982768  0  0  -0.042647  0  4.005733  0  0  -0.01785  -0.02799  0  3.967561  0
C  C77  1  0.98927751  0.72061295  0.95084917  1  0  -0.059455  0  3.752292  0  0  -0.034038  0  3.983122  0  0  -0.042889  0  4.006099  0  0  -0.017837  -0.028227  0  3.967914  0
C  C78  1  0.02078802  0.22479350  0.96622519  1  0  -0.066908  0  3.735512  0  0  -0.093906  0  3.985985  0  0  -0.092001  0  4.005477  0  0  -0.080721  -0.09536  0  3.973648  0
C  C79  1  0.97920871  0.77523843  0.03377677  1  0  -0.066445  0  3.735424  0  0  -0.093409  0  3.985971  0  0  -0.091503  0  4.005469  0  0  -0.080533  -0.094867  0  3.973645  0
C  C80  1  0.90509801  0.08344082  0.92382857  1  0  -0.121652  0  3.845354  0  0  -0.125253  0  4.094499  0  0  -0.132722  0  4.120796  0  0  -0.097833  -0.120326  0  4.07718  0
C  C81  1  0.09491026  0.91658647  0.07617214  1  0  -0.121504  0  3.84544  0  0  -0.125116  0  4.094614  0  0  -0.132587  0  4.12091  0  0  -0.097729  -0.120208  0  4.077299  0
C  C82  1  0.77866251  0.99620032  0.96374852  1  0  -0.067724  0  3.745326  0  0  -0.090497  0  3.987025  0  0  -0.089398  0  4.008529  0  0  -0.080246  -0.090824  0  3.972484  0
C  C83  1  0.22136151  0.00380886  0.03625655  1  0  -0.067906  0  3.745271  0  0  -0.0907  0  3.987019  0  0  -0.089608  0  4.008524  0  0  -0.080292  -0.091027  0  3.972487  0
C  C84  1  0.13317681  0.43171293  0.09481665  1  0  0.632189  0  3.921391  0  0  0.586272  0  4.205555  0  0  0.620587  0  4.200135  0  0  0.199922  0.562683  0  4.208414  0
C  C85  1  0.86682331  0.56830096  0.90519082  1  0  0.632267  0  3.921284  0  0  0.586376  0  4.205432  0  0  0.620693  0  4.200005  0  0  0.199978  0.56279  0  4.208286  0
N  N86  1  0.52079650  0.76989028  0.32875438  1  0  -0.335431  0  3.219023  0  0  -0.273753  0  3.476316  0  0  -0.290068  0  3.496084  0  0  -0.291529  -0.263076  0  3.462018  0
N  N87  1  0.47912534  0.23005637  0.67124557  1  0  -0.335464  0  3.218623  0  0  -0.27369  0  3.47599  0  0  -0.290003  0  3.495759  0  0  -0.291441  -0.263013  0  3.46169  0
N  N88  1  0.52628341  0.58132941  0.19576708  1  0  -0.322796  0  3.216762  0  0  -0.252319  0  3.46967  0  0  -0.270638  0  3.490223  0  0  -0.286895  -0.239795  0  3.455655  0
N  N89  1  0.47369896  0.41866365  0.80422980  1  0  -0.322809  0  3.216866  0  0  -0.252388  0  3.469789  0  0  -0.27071  0  3.490346  0  0  -0.287  -0.23986  0  3.455764  0
N  N90  1  0.76166811  0.33369606  0.42619644  1  0  -0.432889  0  2.917945  0  0  -0.412369  0  3.189801  0  0  -0.425875  0  3.202682  0  0  -0.339641  -0.402585  0  3.179266  0
N  N91  1  0.23835666  0.66631947  0.57379515  1  0  -0.433044  0  2.918115  0  0  -0.412517  0  3.190019  0  0  -0.426024  0  3.202899  0  0  -0.339715  -0.402731  0  3.179487  0
N  N92  1  0.76565319  0.49510129  0.53562884  1  0  -0.369195  0  3.376144  0  0  -0.316538  0  3.61336  0  0  -0.332919  0  3.626977  0  0  -0.376863  -0.306592  0  3.606437  0
N  N93  1  0.23438575  0.50492107  0.46436379  1  0  -0.369264  0  3.376072  0  0  -0.316453  0  3.613315  0  0  -0.332827  0  3.626908  0  0  -0.376918  -0.306509  0  3.606396  0
O  O94  1  0.54140975  0.82028381  0.05501884  1  0  -0.627579  0  1.947902  0  0  -0.556988  0  2.182155  0  0  -0.586931  0  2.176019  0  0  -0.305571  -0.535881  0  2.185491  0
O  O95  1  0.45861462  0.17970257  0.94498554  1  0  -0.627795  0  1.947782  0  0  -0.557109  0  2.18195  0  0  -0.58705  0  2.175809  0  0  -0.305541  -0.536009  0  2.185308  0
O  O96  1  0.62298009  0.01223354  0.16416445  1  0  -0.639273  0  1.919767  0  0  -0.583843  0  2.144001  0  0  -0.610611  0  2.136171  0  0  -0.319935  -0.564987  0  2.148913  0
O  O97  1  0.37708332  0.98772165  0.83586187  1  0  -0.639742  0  1.919474  0  0  -0.584314  0  2.143699  0  0  -0.611081  0  2.135861  0  0  -0.320233  -0.565454  0  2.14862  0
O  O98  1  0.22165824  0.52256881  0.04751401  1  0  -0.628804  0  1.948815  0  0  -0.562948  0  2.178878  0  0  -0.592978  0  2.174213  0  0  -0.308128  -0.541098  0  2.18112  0
O  O99  1  0.77833389  0.47744728  0.95249059  1  0  -0.62886  0  1.948792  0  0  -0.562972  0  2.178808  0  0  -0.593017  0  2.174176  0  0  -0.308137  -0.541119  0  2.181047  0
O  O100  1  0.14478504  0.46493923  0.17687968  1  0  -0.663093  0  1.912986  0  0  -0.607037  0  2.133084  0  0  -0.633354  0  2.124868  0  0  -0.337335  -0.588411  0  2.138092  0
O  O101  1  0.85522168  0.53507693  0.82312792  1  0  -0.663165  0  1.912925  0  0  -0.607125  0  2.133022  0  0  -0.63344  0  2.124802  0  0  -0.337402  -0.588497  0  2.138031  0
F  F102  1  0.11099640  0.10579862  0.76227176  1  0  -0.196135  0  1.215392  0  0  -0.131793  0  1.363227  0  0  -0.141954  0  1.354305  0  0  -0.083526  -0.12423  0  1.368936  0
F  F103  1  0.88899000  0.89420157  0.23773339  1  0  -0.196216  0  1.215422  0  0  -0.131874  0  1.363271  0  0  -0.142039  0  1.354346  0  0  -0.083578  -0.124314  0  1.368984  0
