# generated using pymatgen
data_Zn2H15C35N2Cl3O8F3
_symmetry_space_group_name_H-M   'P 1'
_cell_length_a   13.21693347
_cell_length_b   14.04199143
_cell_length_c   28.64870112
_cell_angle_alpha   90.00652257
_cell_angle_beta   89.77069799
_cell_angle_gamma   89.85852668
_symmetry_Int_Tables_number   1
_chemical_formula_structural   Zn2H15C35N2Cl3O8F3
_chemical_formula_sum   'Zn4 H30 C70 N4 Cl6 O16 F6'
_cell_volume   5316.91281313
_cell_formula_units_Z   2
loop_
 _symmetry_equiv_pos_site_id
 _symmetry_equiv_pos_as_xyz
  1  'x, y, z'
loop_
 _atom_site_type_symbol
 _atom_site_label
 _atom_site_symmetry_multiplicity
 _atom_site_fract_x
 _atom_site_fract_y
 _atom_site_fract_z
 _atom_site_occupancy
 _atom_site_pbe_bader_charge
 _atom_site_pbe_bader_spin_density
 _atom_site_pbe_cm5_charge
 _atom_site_pbe_ddec_charge
 _atom_site_pbe_ddec_spin_density
 _atom_site_pbe_ddec_sum_bond_order
 _atom_site_pbe_magmom
Zn  Zn0  1  0.51066750  0.40246784  0.49429707  1  1.298122  0  0.66754  0.834856  0  2.390884  0
Zn  Zn1  1  0.48812033  0.60031406  0.50181367  1  1.291807  0  0.66903  0.836474  0  2.424287  0
Zn  Zn2  1  0.51083758  0.59813618  0.04032778  1  1.303782  0  0.66805  0.835734  0  2.391572  0
Zn  Zn3  1  0.48947549  0.40032751  0.03286903  1  1.305397  0  0.669012  0.835364  0  2.42648  0
H  H4  1  0.61834621  0.06262389  0.44289426  1  0.099838  0  0.123152  0.150698  0  0.986301  0
H  H5  1  0.38045718  0.93984253  0.55431974  1  0.079748  0  0.123514  0.151055  0  0.98626  0
H  H6  1  0.59824972  0.74537610  0.45262725  1  0.166037  0  0.13514  0.116024  0  0.969683  0
H  H7  1  0.61419412  0.92107635  0.44720629  1  0.077977  0  0.118105  0.127006  0  0.994944  0
H  H8  1  0.40635355  0.25750616  0.54701852  1  0.167867  0  0.135864  0.117283  0  0.968011  0
H  H9  1  0.39169496  0.08188148  0.55319467  1  0.077853  0  0.117689  0.126322  0  0.994944  0
H  H10  1  0.50317087  0.62194770  0.19014833  1  0.127403  0  0.099237  0.112057  0  1.036042  0
H  H11  1  0.49793296  0.31724942  0.17866896  1  0.10735  0  0.10566  0.124875  0  1.004301  0
H  H12  1  0.50328690  0.37769306  0.34439661  1  0.124764  0  0.09891  0.111039  0  1.036467  0
H  H13  1  0.49804645  0.68240741  0.35592952  1  0.112759  0  0.105326  0.124192  0  1.004598  0
H  H14  1  0.49675475  0.34156028  0.73732841  1  0.06349  0  0.108183  0.1284  0  1.00814  0
H  H15  1  0.49753146  0.65830599  0.79728502  1  0.059846  0  0.10827  0.128155  0  1.008337  0
H  H16  1  0.50084320  0.36289479  0.89089734  1  0.10255  0  0.10692  0.114253  0  0.998897  0
H  H17  1  0.50209801  0.35009102  0.80532972  1  0.035413  0  0.101627  0.103597  0  1.013972  0
H  H18  1  0.50007457  0.63702058  0.64374933  1  0.101609  0  0.10705  0.114783  0  0.997766  0
H  H19  1  0.50212328  0.64976417  0.72931700  1  0.039137  0  0.101595  0.103496  0  1.01455  0
H  H20  1  0.83307455  0.37801295  0.49846853  1  0.130053  0  0.099361  0.112334  0  1.035308  0
H  H21  1  0.80614169  0.68246102  0.50142247  1  0.106524  0  0.105297  0.124907  0  1.004384  0
H  H22  1  0.16617376  0.62308606  0.49989244  1  0.12272  0  0.098823  0.111503  0  1.037393  0
H  H23  1  0.19324778  0.31864593  0.49787232  1  0.112799  0  0.105678  0.124851  0  1.00207  0
H  H24  1  0.61858269  0.93738056  0.09142869  1  0.103672  0  0.123469  0.150568  0  0.985825  0
H  H25  1  0.38182104  0.06155885  0.98046155  1  0.10409  0  0.123396  0.150941  0  0.985817  0
H  H26  1  0.59978576  0.25459074  0.08148526  1  0.14943  0  0.135181  0.115766  0  0.96985  0
H  H27  1  0.61539304  0.07880020  0.08681869  1  0.077236  0  0.118122  0.127235  0  0.995008  0
H  H28  1  0.40682852  0.74364314  0.98790991  1  0.166649  0  0.136033  0.117552  0  0.968798  0
H  H29  1  0.39285071  0.91936863  0.98155328  1  0.087002  0  0.117793  0.126693  0  0.993056  0
H  H30  1  0.83308738  0.62308143  0.03628301  1  0.124693  0  0.099189  0.112381  0  1.035624  0
H  H31  1  0.80831184  0.31855800  0.03421825  1  0.100036  0  0.104968  0.123708  0  1.003634  0
H  H32  1  0.16786592  0.37846422  0.03605602  1  0.127543  0  0.09887  0.111328  0  1.037538  0
H  H33  1  0.19282250  0.68295298  0.03773788  1  0.110731  0  0.105747  0.124893  0  1.00292  0
C  C34  1  0.49830371  0.48563310  0.58925150  1  1.633611  0  0.21507  0.612802  0  4.169474  0
C  C35  1  0.30270791  0.48180215  0.49784078  1  1.587099  0  0.216842  0.596893  0  4.159969  0
C  C36  1  0.50051920  0.52033052  0.40713245  1  1.576608  0  0.216961  0.597258  0  4.158569  0
C  C37  1  0.69653849  0.51996090  0.49894329  1  1.605329  0  0.216502  0.597564  0  4.159033  0
C  C38  1  0.49966680  0.51439013  0.94540358  1  1.640407  0  0.214583  0.61112  0  4.171352  0
C  C39  1  0.30344958  0.51994515  0.03746359  1  1.611313  0  0.216952  0.597476  0  4.157766  0
C  C40  1  0.50050014  0.47927450  0.12743576  1  1.568925  0  0.21615  0.594995  0  4.160996  0
C  C41  1  0.69749354  0.48102239  0.03574275  1  1.606741  0  0.21624  0.596151  0  4.160201  0
C  C42  1  0.56962173  0.19913127  0.46674926  1  1.099718  0  0.250835  0.455049  0  4.061625  0
C  C43  1  0.56873043  0.10018268  0.46704524  1  0.055472  0  -0.08161  -0.29011  0  3.912738  0
C  C44  1  0.42975713  0.80345113  0.53054053  1  1.0529  0  0.249991  0.454451  0  4.062344  0
C  C45  1  0.43137241  0.90237798  0.53070891  1  0.106587  0  -0.082149  -0.29084  0  3.91485  0
C  C46  1  0.55230792  0.79269334  0.47417992  1  0.427012  0  0.069011  0.138806  0  3.897095  0
C  C47  1  0.55996373  0.89085570  0.47164721  1  0.037858  0  -0.079724  -0.189331  0  3.937678  0
C  C48  1  0.45074978  0.21019949  0.52479249  1  0.470114  0  0.072064  0.144625  0  3.885052  0
C  C49  1  0.44386417  0.11199332  0.52777374  1  0.024441  0  -0.078462  -0.187464  0  3.933049  0
C  C50  1  0.50368623  0.05408132  0.49843989  1  0.001015  0  0.020825  0.134049  0  3.970967  0
C  C51  1  0.49843528  0.94864583  0.50029958  1  0.00335  0  0.02242  0.13593  0  3.968949  0
C  C52  1  0.50242885  0.55255485  0.20701820  1  0.010579  0  -0.083395  -0.134398  0  3.935522  0
C  C53  1  0.50003218  0.38022056  0.20074824  1  0.038403  0  -0.0934  -0.170304  0  3.977157  0
C  C54  1  0.50121052  0.37217728  0.24857838  1  0.042644  0  0.016199  0.11081  0  4.019609  0
C  C55  1  0.50228103  0.45371435  0.27836706  1  -0.012724  0  -0.00561  0.033171  0  3.973229  0
C  C56  1  0.50253837  0.44709605  0.32752939  1  0.013167  0  -0.083688  -0.133768  0  3.935942  0
C  C57  1  0.50014717  0.61944153  0.33382847  1  0.041022  0  -0.093477  -0.169918  0  3.977194  0
C  C58  1  0.50128100  0.62750023  0.28598723  1  0.025132  0  0.016179  0.111042  0  4.01962  0
C  C59  1  0.50227151  0.54595652  0.25619280  1  0.002214  0  -0.005846  0.032253  0  3.97311  0
C  C60  1  0.50110465  0.47139579  0.17970242  1  -0.038757  0  -0.013456  -0.001504  0  3.967272  0
C  C61  1  0.50124544  0.52825966  0.35485716  1  -0.038842  0  -0.013166  -0.001606  0  3.966118  0
C  C62  1  0.49833098  0.48528398  0.64160314  1  -0.018733  0  -0.025145  -0.145889  0  3.948849  0
C  C63  1  0.49960108  0.51468372  0.89303174  1  -0.019395  0  -0.02482  -0.144649  0  3.945544  0
C  C64  1  0.49738205  0.40397872  0.66996738  1  0.438264  0  0.105879  0.291446  0  4.038201  0
C  C65  1  0.49800157  0.40873960  0.71840159  1  -0.012122  0  -0.102209  -0.266505  0  3.97072  0
C  C66  1  0.49858369  0.59594719  0.86464272  1  0.443551  0  0.106104  0.291123  0  4.039117  0
C  C67  1  0.49875720  0.59114277  0.81622280  1  0.011949  0  -0.102277  -0.26561  0  3.971153  0
C  C68  1  0.50058862  0.42688405  0.86943942  1  -0.076728  0  -0.080732  -0.061529  0  3.998939  0
C  C69  1  0.50106035  0.42049851  0.82119072  1  0.05488  0  -0.097753  -0.152967  0  4.00032  0
C  C70  1  0.49976095  0.57303067  0.66520686  1  -0.076665  0  -0.080583  -0.061818  0  3.998985  0
C  C71  1  0.50068828  0.57937974  0.71345935  1  0.052927  0  -0.097613  -0.152658  0  3.999333  0
C  C72  1  0.49977839  0.49702425  0.74151543  1  0.019267  0  4.1e-05  0.102962  0  3.993621  0
C  C73  1  0.50006971  0.50282429  0.79313627  1  -0.006599  0  0.000426  0.103154  0  3.994642  0
C  C74  1  0.86941705  0.44740912  0.49917839  1  -0.020747  0  -0.083387  -0.13378  0  3.935659  0
C  C75  1  0.85459556  0.61973341  0.50068573  1  0.106116  0  -0.093687  -0.17217  0  3.980486  0
C  C76  1  0.95825147  0.62809973  0.50077438  1  -0.035962  0  0.015714  0.111256  0  4.017864  0
C  C77  1  0.02334854  0.54676399  0.49999599  1  -0.029692  0  -0.005963  0.032908  0  3.974299  0
C  C78  1  0.12982662  0.55367753  0.49958540  1  -0.02149  0  -0.083923  -0.134665  0  3.938431  0
C  C79  1  0.14476975  0.38136576  0.49852603  1  0.125421  0  -0.092576  -0.168484  0  3.973736  0
C  C80  1  0.04108497  0.37296770  0.49907201  1  -0.03674  0  0.015806  0.110542  0  4.018082  0
C  C81  1  0.97592595  0.45430795  0.49949761  1  0.053594  0  -0.005761  0.032763  0  3.972691  0
C  C82  1  0.80971291  0.52841197  0.49962238  1  -0.058113  0  -0.013539  -0.002831  0  3.971084  0
C  C83  1  0.18959809  0.47273980  0.49866134  1  -0.055485  0  -0.013623  -0.003157  0  3.968667  0
C  C84  1  0.56976034  0.80116579  0.06774373  1  1.103363  0  0.25038  0.453573  0  4.06444  0
C  C85  1  0.56915285  0.90010179  0.06735687  1  0.05074  0  -0.081804  -0.28921  0  3.914776  0
C  C86  1  0.43139373  0.19761630  0.00408649  1  1.022059  0  0.250058  0.452695  0  4.065455  0
C  C87  1  0.43283367  0.09868345  0.00387079  1  0.114765  0  -0.08231  -0.291041  0  3.915622  0
C  C88  1  0.55384170  0.20757193  0.06005383  1  0.443128  0  0.068555  0.13832  0  3.897717  0
C  C89  1  0.56128948  0.10936236  0.06254396  1  0.078976  0  -0.079057  -0.189292  0  3.937132  0
C  C90  1  0.45125391  0.79069315  0.00998594  1  0.489677  0  0.071863  0.144275  0  3.885759  0
C  C91  1  0.44472020  0.88894217  0.00689417  1  -0.057834  0  -0.078789  -0.18853  0  3.932107  0
C  C92  1  0.50450026  0.94653210  0.03604388  1  0.059459  0  0.021249  0.134185  0  3.97295  0
C  C93  1  0.49964514  0.05198583  0.03411003  1  -0.049214  0  0.022206  0.136598  0  3.96944  0
C  C94  1  0.86991878  0.55372620  0.03585073  1  -0.025872  0  -0.084315  -0.135843  0  3.937817  0
C  C95  1  0.85630751  0.38137124  0.03484457  1  0.049098  0  -0.093758  -0.170923  0  3.976864  0
C  C96  1  0.96001925  0.37314360  0.03510625  1  0.04465  0  0.015721  0.110268  0  4.019145  0
C  C97  1  0.02453771  0.45459422  0.03572724  1  0.051991  0  -0.006403  0.03279  0  3.974395  0
C  C98  1  0.13105880  0.44783104  0.03619366  1  -0.019217  0  -0.083967  -0.134425  0  3.939734  0
C  C99  1  0.14479728  0.62016186  0.03705123  1  0.108525  0  -0.092918  -0.169315  0  3.976938  0
C  C100  1  0.04107578  0.62841468  0.03639934  1  -0.047445  0  0.016094  0.110592  0  4.016947  0
C  C101  1  0.97647852  0.54698820  0.03590206  1  -0.024767  0  -0.005045  0.033467  0  3.974384  0
C  C102  1  0.81075198  0.47265022  0.03542508  1  -0.05035  0  -0.013021  -0.000655  0  3.966376  0
C  C103  1  0.19026723  0.52885909  0.03694349  1  -0.056984  0  -0.01324  -0.00234  0  3.970508  0
N  N104  1  0.51333164  0.25391348  0.49419232  1  -1.227818  0  -0.311717  -0.286378  0  3.466785  0
N  N105  1  0.48714831  0.74882945  0.50354269  1  -1.232045  0  -0.313402  -0.287645  0  3.471503  0
N  N106  1  0.51352199  0.74666216  0.04047676  1  -1.228483  0  -0.311846  -0.286142  0  3.466619  0
N  N107  1  0.48880261  0.25185445  0.03091779  1  -1.254262  0  -0.313531  -0.285914  0  3.47251  0
Cl  Cl108  1  0.50052983  0.74067910  0.26148455  1  -0.231535  0  -0.030794  -0.108702  0  1.428517  0
Cl  Cl109  1  0.50047799  0.25899429  0.27308963  1  -0.233286  0  -0.030942  -0.108847  0  1.428682  0
Cl  Cl110  1  0.98868759  0.25958951  0.49918823  1  -0.230208  0  -0.03092  -0.109015  0  1.428236  0
Cl  Cl111  1  0.01072274  0.74144232  0.50174324  1  -0.218748  0  -0.031557  -0.109583  0  1.427602  0
Cl  Cl112  1  0.98789585  0.74172249  0.03623826  1  -0.223071  0  -0.031169  -0.109013  0  1.426871  0
Cl  Cl113  1  0.01326277  0.25987882  0.03478692  1  -0.224956  0  -0.031387  -0.10928  0  1.428625  0
O  O114  1  0.50642919  0.40725470  0.56743284  1  -1.162563  0  -0.316241  -0.549478  0  2.321747  0
O  O115  1  0.49046888  0.56791224  0.57066688  1  -1.162848  0  -0.321483  -0.554704  0  2.355975  0
O  O116  1  0.33846617  0.56589138  0.49762035  1  -1.14854  0  -0.317492  -0.542013  0  2.330945  0
O  O117  1  0.35388488  0.40479398  0.49741524  1  -1.175524  0  -0.317145  -0.551143  0  2.326623  0
O  O118  1  0.49739414  0.59829044  0.42991460  1  -1.16523  0  -0.318503  -0.552405  0  2.333631  0
O  O119  1  0.50299872  0.43699588  0.42455529  1  -1.158571  0  -0.316085  -0.543588  0  2.320333  0
O  O120  1  0.66023861  0.43620192  0.49621977  1  -1.162746  0  -0.316432  -0.540449  0  2.331487  0
O  O121  1  0.64590692  0.59709251  0.50112260  1  -1.182145  0  -0.318284  -0.554826  0  2.324695  0
O  O122  1  0.50655159  0.59281959  0.96721371  1  -1.162566  0  -0.316167  -0.549018  0  2.322193  0
O  O123  1  0.49304297  0.43203921  0.96399958  1  -1.16431  0  -0.320816  -0.553747  0  2.358174  0
O  O124  1  0.33976683  0.43590381  0.03729441  1  -1.167166  0  -0.317116  -0.542389  0  2.330255  0
O  O125  1  0.35410240  0.59702187  0.03795519  1  -1.187105  0  -0.317469  -0.551538  0  2.324247  0
O  O126  1  0.49742861  0.40128746  0.10470477  1  -1.16493  0  -0.317922  -0.550315  0  2.33323  0
O  O127  1  0.50309454  0.56257656  0.10998959  1  -1.156792  0  -0.315918  -0.542943  0  2.321497  0
O  O128  1  0.66065113  0.56481312  0.03811430  1  -1.162167  0  -0.316957  -0.541158  0  2.332933  0
O  O129  1  0.64733851  0.40386757  0.03369240  1  -1.169561  0  -0.317741  -0.553576  0  2.32491  0
F  F130  1  0.63128099  0.24438531  0.43681811  1  -0.615808  0  -0.067106  -0.127838  0  1.318493  0
F  F131  1  0.36601639  0.75803484  0.55951999  1  -0.619818  0  -0.068889  -0.130172  0  1.317914  0
F  F132  1  0.49474293  0.31507550  0.65098323  1  -0.627592  0  -0.112889  -0.155788  0  1.333721  0
F  F133  1  0.49636533  0.68486589  0.88362853  1  -0.627562  0  -0.112985  -0.155853  0  1.33436  0
F  F134  1  0.63098527  0.75561059  0.09762908  1  -0.615992  0  -0.066881  -0.127074  0  1.319538  0
F  F135  1  0.36769044  0.24345649  0.97536589  1  -0.615567  0  -0.068731  -0.129621  0  1.319754  0
