# generated using pymatgen
data_CdH12C14(NO2)2
_symmetry_space_group_name_H-M   'P 1'
_cell_length_a   9.83735968
_cell_length_b   9.78382452
_cell_length_c   15.87400000
_cell_angle_alpha   90.00000000
_cell_angle_beta   90.00000000
_cell_angle_gamma   106.20560004
_symmetry_Int_Tables_number   1
_chemical_formula_structural   CdH12C14(NO2)2
_chemical_formula_sum   'Cd4 H48 C56 N8 O16'
_cell_volume   1467.11892821
_cell_formula_units_Z   4
loop_
 _symmetry_equiv_pos_site_id
 _symmetry_equiv_pos_as_xyz
  1  'x, y, z'
loop_
 _atom_site_type_symbol
 _atom_site_label
 _atom_site_symmetry_multiplicity
 _atom_site_fract_x
 _atom_site_fract_y
 _atom_site_fract_z
 _atom_site_occupancy
 _atom_site_hle17_bader_spin_density
 _atom_site_hle17_ddec_charge
 _atom_site_hle17_ddec_spin_density
 _atom_site_hle17_ddec_sum_bond_order
 _atom_site_hle17_magmom
 _atom_site_hse06_10hf_bader_spin_density
 _atom_site_hse06_10hf_ddec_charge
 _atom_site_hse06_10hf_ddec_spin_density
 _atom_site_hse06_10hf_ddec_sum_bond_order
 _atom_site_hse06_10hf_magmom
 _atom_site_hse06_bader_spin_density
 _atom_site_hse06_ddec_charge
 _atom_site_hse06_ddec_spin_density
 _atom_site_hse06_ddec_sum_bond_order
 _atom_site_hse06_magmom
 _atom_site_pbe_bader_charge
 _atom_site_pbe_bader_spin_density
 _atom_site_pbe_cm5_charge
 _atom_site_pbe_ddec_charge
 _atom_site_pbe_ddec_spin_density
 _atom_site_pbe_ddec_sum_bond_order
 _atom_site_pbe_magmom
Cd  Cd0  1  0.41556159  0.58444538  0.40825438  1  0  1.11251  0  1.733984  0  0  0.912658  0  2.197878  0  0  0.971777  0  2.143573  0  1.290319  0  0.769755  0.870165  0  2.235889  0
Cd  Cd1  1  0.08444058  0.91555599  0.90825438  1  0  1.112529  0  1.733982  0  0  0.912679  0  2.197875  0  0  0.971803  0  2.143561  0  1.290468  0  0.769772  0.870188  0  2.235885  0
Cd  Cd2  1  0.91556035  0.08444422  0.09174562  1  0  1.112533  0  1.733938  0  0  0.91271  0  2.197802  0  0  0.97183  0  2.143495  0  1.290469  0  0.769778  0.870219  0  2.235812  0
Cd  Cd3  1  0.58443905  0.41555376  0.59174625  1  0  1.112511  0  1.733966  0  0  0.912645  0  2.19787  0  0  0.971768  0  2.143562  0  1.290512  0  0.769755  0.870153  0  2.23588  0
H  H4  1  0.53982260  0.86883472  0.52204926  1  0  0.077772  0  0.937386  0  0  0.086978  0  1.000137  0  0  0.089075  0  0.99882  0  0.09195  0  0.115484  0.085581  0  1.001  0
H  H5  1  0.96017918  0.63116878  0.02204800  1  0  0.077789  0  0.937387  0  0  0.087  0  1.000121  0  0  0.089089  0  0.998822  0  0.091955  0  0.11549  0.085602  0  1.000984  0
H  H6  1  0.63171928  0.96112879  0.97767229  1  0  0.077279  0  0.937931  0  0  0.086848  0  1.00043  0  0  0.088953  0  0.999108  0  0.087151  0  0.115289  0.08544  0  1.001301  0
H  H7  1  0.86828234  0.53887046  0.47767292  1  0  0.077255  0  0.937954  0  0  0.08682  0  1.000457  0  0  0.088926  0  0.999134  0  0.087144  0  0.115289  0.085414  0  1.001329  0
H  H8  1  0.46017964  0.13116655  0.47795074  1  0  0.077767  0  0.937398  0  0  0.086972  0  1.000151  0  0  0.089068  0  0.998836  0  0.091937  0  0.115482  0.085574  0  1.001014  0
H  H9  1  0.03982104  0.36883249  0.97795074  1  0  0.077792  0  0.9374  0  0  0.087005  0  1.000126  0  0  0.089092  0  0.998834  0  0.091934  0  0.115493  0.085607  0  1.000989  0
H  H10  1  0.36828369  0.03887142  0.02232708  1  0  0.077251  0  0.937937  0  0  0.086841  0  1.000404  0  0  0.088946  0  0.999082  0  0.087145  0  0.115298  0.085435  0  1.001275  0
H  H11  1  0.13171627  0.46112868  0.52232834  1  0  0.077222  0  0.93796  0  0  0.086818  0  1.000426  0  0  0.088922  0  0.999103  0  0.087127  0  0.115284  0.085411  0  1.001296  0
H  H12  1  0.74085049  0.08835052  0.52656734  1  0  0.124258  0  0.990584  0  0  0.131012  0  1.053933  0  0  0.135488  0  1.051566  0  0.160891  0  0.106531  0.127845  0  1.055729  0
H  H13  1  0.75915141  0.41165278  0.02656734  1  0  0.124259  0  0.990573  0  0  0.130999  0  1.053941  0  0  0.135465  0  1.051585  0  0.160908  0  0.106524  0.127832  0  1.055737  0
H  H14  1  0.41244548  0.75982445  0.97350006  1  0  0.12471  0  0.989768  0  0  0.13181  0  1.052637  0  0  0.13622  0  1.050353  0  0.161923  0  0.107181  0.128707  0  1.054359  0
H  H15  1  0.08755508  0.74017480  0.47350006  1  0  0.124695  0  0.989792  0  0  0.131795  0  1.052659  0  0  0.136205  0  1.050375  0  0.161916  0  0.10717  0.128692  0  1.05438  0
H  H16  1  0.25914973  0.91165075  0.47343140  1  0  0.124223  0  0.99057  0  0  0.130974  0  1.05393  0  0  0.135437  0  1.051579  0  0.160879  0  0.106508  0.127807  0  1.055724  0
H  H17  1  0.24084910  0.58834955  0.97343203  1  0  0.124259  0  0.99057  0  0  0.13103  0  1.053906  0  0  0.13549  0  1.051555  0  0.160894  0  0.106531  0.127861  0  1.055704  0
H  H18  1  0.58755676  0.24017682  0.02649805  1  0  0.124664  0  0.989821  0  0  0.131784  0  1.052671  0  0  0.136195  0  1.050386  0  0.16189  0  0.107161  0.128679  0  1.054396  0
H  H19  1  0.91244424  0.25982328  0.52649868  1  0  0.1247  0  0.989806  0  0  0.131804  0  1.052672  0  0  0.136215  0  1.050388  0  0.161887  0  0.107172  0.128699  0  1.054398  0
H  H20  1  0.91179232  0.92435528  0.30864747  1  0  0.114672  0  0.985606  0  0  0.12105  0  1.052888  0  0  0.124796  0  1.050595  0  0.125551  0  0.107934  0.118261  0  1.055092  0
H  H21  1  0.58820726  0.57564397  0.80864621  1  0  0.114664  0  0.985632  0  0  0.121044  0  1.052911  0  0  0.124791  0  1.050618  0  0.125529  0  0.107923  0.118254  0  1.055118  0
H  H22  1  0.57499910  0.58753423  0.19145143  1  0  0.114725  0  0.986734  0  0  0.121358  0  1.053703  0  0  0.125114  0  1.0514  0  0.116704  0  0.108233  0.11855  0  1.055909  0
H  H23  1  0.92499946  0.91246501  0.69145143  1  0  0.114719  0  0.986732  0  0  0.121324  0  1.053731  0  0  0.125076  0  1.051433  0  0.116708  0  0.108225  0.118519  0  1.055938  0
H  H24  1  0.08820701  0.07564280  0.69135316  1  0  0.114678  0  0.985611  0  0  0.121068  0  1.052884  0  0  0.124814  0  1.050589  0  0.125556  0  0.107927  0.118277  0  1.055091  0
H  H25  1  0.41179194  0.42435730  0.19135316  1  0  0.114675  0  0.985582  0  0  0.12106  0  1.052858  0  0  0.124807  0  1.050563  0  0.125567  0  0.107934  0.11827  0  1.055065  0
H  H26  1  0.42499849  0.41246491  0.80854794  1  0  0.114723  0  0.986732  0  0  0.121354  0  1.053694  0  0  0.125108  0  1.051394  0  0.116698  0  0.108228  0.118546  0  1.0559  0
H  H27  1  0.07500177  0.08753626  0.30854794  1  0  0.114726  0  0.98672  0  0  0.121366  0  1.053677  0  0  0.12512  0  1.051378  0  0.116707  0  0.108239  0.118558  0  1.055883  0
H  H28  1  0.70547199  0.71082539  0.31716644  1  0  0.073538  0  0.957089  0  0  0.083393  0  1.019524  0  0  0.085276  0  1.018365  0  0.080169  0  0.113631  0.08206  0  1.020408  0
H  H29  1  0.79452788  0.78917492  0.81716518  1  0  0.073502  0  0.957101  0  0  0.083337  0  1.019561  0  0  0.085219  0  1.018402  0  0.080113  0  0.113604  0.082005  0  1.020443  0
H  H30  1  0.78822375  0.79395934  0.18257276  1  0  0.07292  0  0.956884  0  0  0.08289  0  1.019132  0  0  0.084735  0  1.018011  0  0.091287  0  0.113729  0.081626  0  1.019934  0
H  H31  1  0.71177554  0.70603884  0.68257276  1  0  0.072927  0  0.956882  0  0  0.082896  0  1.01913  0  0  0.084742  0  1.018009  0  0.091292  0  0.113728  0.081632  0  1.019932  0
H  H32  1  0.29452937  0.28917269  0.68283419  1  0  0.0735  0  0.957119  0  0  0.083344  0  1.019568  0  0  0.085226  0  1.018409  0  0.080156  0  0.113607  0.082012  0  1.020452  0
H  H33  1  0.20547030  0.21082635  0.18283419  1  0  0.073532  0  0.9571  0  0  0.083376  0  1.019548  0  0  0.085257  0  1.018391  0  0.080148  0  0.113618  0.082043  0  1.020432  0
H  H34  1  0.21177617  0.20604086  0.81742724  1  0  0.072936  0  0.956883  0  0  0.082912  0  1.019132  0  0  0.084755  0  1.018008  0  0.091285  0  0.113738  0.081648  0  1.019933  0
H  H35  1  0.28822569  0.29396243  0.31742850  1  0  0.072963  0  0.956859  0  0  0.082947  0  1.019101  0  0  0.084785  0  1.017973  0  0.091323  0  0.113745  0.081684  0  1.0199  0
H  H36  1  0.07131417  0.78090783  0.29498299  1  0  0.094575  0  0.92325  0  0  0.113311  0  0.978043  0  0  0.115112  0  0.977689  0  0.018538  0  0.099184  0.111848  0  0.97872  0
H  H37  1  0.42868508  0.71909035  0.79498362  1  0  0.094571  0  0.92323  0  0  0.113324  0  0.978005  0  0  0.115122  0  0.977651  0  0.018547  0  0.099189  0.111862  0  0.978682  0
H  H38  1  0.71896943  0.42932906  0.20501827  1  0  0.094601  0  0.923826  0  0  0.113053  0  0.978936  0  0  0.114815  0  0.978609  0  0.017478  0  0.099145  0.111625  0  0.979556  0
H  H39  1  0.78103056  0.07067105  0.70501827  1  0  0.094591  0  0.923832  0  0  0.113056  0  0.978952  0  0  0.114822  0  0.978626  0  0.01748  0  0.099138  0.111628  0  0.979572  0
H  H40  1  0.92868516  0.21909025  0.70501764  1  0  0.09458  0  0.923252  0  0  0.113339  0  0.978047  0  0  0.115141  0  0.977693  0  0.018553  0  0.099189  0.111876  0  0.978725  0
H  H41  1  0.57131585  0.28090985  0.20501701  1  0  0.094586  0  0.923253  0  0  0.113329  0  0.97804  0  0  0.115129  0  0.977683  0  0.018556  0  0.099194  0.111865  0  0.978718  0
H  H42  1  0.28103121  0.57067008  0.79498236  1  0  0.094615  0  0.923838  0  0  0.113054  0  0.978961  0  0  0.114817  0  0.978635  0  0.017461  0  0.099139  0.111626  0  0.979582  0
H  H43  1  0.21896906  0.92932809  0.29498236  1  0  0.09461  0  0.923827  0  0  0.113065  0  0.978934  0  0  0.11483  0  0.978609  0  0.017489  0  0.099147  0.111636  0  0.979554  0
H  H44  1  0.14661893  0.70557051  0.15262568  1  0  0.106136  0  0.918399  0  0  0.122978  0  0.973105  0  0  0.125188  0  0.972819  0  0.081462  0  0.101773  0.121369  0  0.973415  0
H  H45  1  0.35338163  0.79442874  0.65262631  1  0  0.106133  0  0.918347  0  0  0.122982  0  0.973054  0  0  0.125191  0  0.972769  0  0.081475  0  0.101773  0.121373  0  0.973364  0
H  H46  1  0.79382272  0.35356279  0.34738881  1  0  0.106126  0  0.917986  0  0  0.123227  0  0.972443  0  0  0.12546  0  0.972119  0  0.055116  0  0.101883  0.121578  0  0.972809  0
H  H47  1  0.70617727  0.14643731  0.84738881  1  0  0.106126  0  0.917988  0  0  0.123227  0  0.972441  0  0  0.12546  0  0.972117  0  0.055116  0  0.101883  0.121579  0  0.972807  0
H  H48  1  0.85338069  0.29442863  0.84737432  1  0  0.106116  0  0.918341  0  0  0.122965  0  0.97305  0  0  0.125173  0  0.972763  0  0.081471  0  0.101773  0.121355  0  0.97336  0
H  H49  1  0.64661901  0.20557040  0.34737432  1  0  0.106112  0  0.918333  0  0  0.12296  0  0.973047  0  0  0.125168  0  0.972762  0  0.081465  0  0.101769  0.121351  0  0.973358  0
H  H50  1  0.20617821  0.64643742  0.65261245  1  0  0.10616  0  0.917976  0  0  0.123262  0  0.972424  0  0  0.125495  0  0.972101  0  0.055116  0  0.101892  0.121613  0  0.972791  0
H  H51  1  0.29382206  0.85356076  0.15261182  1  0  0.10616  0  0.917989  0  0  0.123255  0  0.972438  0  0  0.125489  0  0.972115  0  0.056299  0  0.101901  0.121606  0  0.972805  0
C  C52  1  0.62610790  0.88548705  0.47657238  1  0  0.128239  0  3.720836  0  0  0.097969  0  3.974067  0  0  0.104541  0  3.993663  0  0.475322  0  0.044312  0.093498  0  3.960479  0
C  C53  1  0.87389125  0.61451432  0.97657175  1  0  0.128258  0  3.720841  0  0  0.097998  0  3.974063  0  0  0.104569  0  3.993652  0  0.475335  0  0.04435  0.093528  0  3.960476  0
C  C54  1  0.61484505  0.87446107  0.02322036  1  0  0.12899  0  3.720074  0  0  0.098299  0  3.97338  0  0  0.104885  0  3.992964  0  0.474067  0  0.044339  0.093821  0  3.959785  0
C  C55  1  0.88515423  0.62553711  0.52322099  1  0  0.12901  0  3.720072  0  0  0.098317  0  3.973388  0  0  0.104903  0  3.992972  0  0.474081  0  0.044321  0.093835  0  3.959795  0
C  C56  1  0.37389202  0.11451315  0.52342762  1  0  0.128235  0  3.720881  0  0  0.097967  0  3.974108  0  0  0.104539  0  3.993701  0  0.475315  0  0.044306  0.093496  0  3.96052  0
C  C57  1  0.12610692  0.38548695  0.02342762  1  0  0.128174  0  3.720845  0  0  0.097908  0  3.974087  0  0  0.104478  0  3.993672  0  0.47531  0  0.04428  0.093438  0  3.960499  0
C  C58  1  0.38515558  0.12553807  0.97677838  1  0  0.129039  0  3.720059  0  0  0.098338  0  3.97337  0  0  0.104923  0  3.992957  0  0.474103  0  0.044334  0.093858  0  3.959777  0
C  C59  1  0.11484569  0.37446309  0.47677964  1  0  0.129059  0  3.719994  0  0  0.098347  0  3.973307  0  0  0.104932  0  3.992891  0  0.474073  0  0.044344  0.093866  0  3.959713  0
C  C60  1  0.73968214  0.00792862  0.47856810  1  0  -0.164346  0  3.674817  0  0  -0.18206  0  3.921389  0  0  -0.189957  0  3.941982  0  -0.018401  0  -0.081554  -0.176525  0  3.907281  0
C  C61  1  0.76031772  0.49207468  0.97856810  1  0  -0.164399  0  3.67488  0  0  -0.182099  0  3.921482  0  0  -0.189988  0  3.94208  0  -0.018396  0  -0.08155  -0.176566  0  3.907375  0
C  C62  1  0.49254908  0.76086010  0.02140229  1  0  -0.164882  0  3.677838  0  0  -0.18309  0  3.92417  0  0  -0.190983  0  3.944824  0  -0.012771  0  -0.08178  -0.177553  0  3.909972  0
C  C63  1  0.00745178  0.73914021  0.52140166  1  0  -0.164833  0  3.67775  0  0  -0.183042  0  3.924076  0  0  -0.190935  0  3.94473  0  -0.01275  0  -0.081741  -0.177504  0  3.909878  0
C  C64  1  0.26031807  0.99207265  0.52143190  1  0  -0.164345  0  3.674858  0  0  -0.182059  0  3.921447  0  0  -0.189948  0  3.942049  0  -0.018384  0  -0.081558  -0.176525  0  3.90734  0
C  C65  1  0.23968075  0.50792766  0.02143127  1  0  -0.164341  0  3.674813  0  0  -0.18207  0  3.921394  0  0  -0.189951  0  3.941994  0  -0.018416  0  -0.081559  -0.176535  0  3.907287  0
C  C66  1  0.50745317  0.23914117  0.97859708  1  0  -0.164871  0  3.677806  0  0  -0.183101  0  3.92413  0  0  -0.190993  0  3.944782  0  -0.012708  0  -0.081781  -0.177564  0  3.909932  0
C  C67  1  0.99254813  0.26085999  0.47859771  1  0  -0.164887  0  3.677692  0  0  -0.183096  0  3.924029  0  0  -0.190989  0  3.944681  0  -0.01271  0  -0.081753  -0.177558  0  3.909831  0
C  C68  1  0.84862184  0.02562086  0.41864243  1  0  0.106374  0  3.716832  0  0  0.116939  0  3.948049  0  0  0.120963  0  3.968892  0  -0.077505  0  0.018916  0.114268  0  3.933898  0
C  C69  1  0.65137976  0.47438137  0.91864180  1  0  0.106524  0  3.716752  0  0  0.117048  0  3.948008  0  0  0.121072  0  3.968852  0  -0.077424  0  0.018948  0.114376  0  3.933857  0
C  C70  1  0.47444069  0.65141981  0.08137772  1  0  0.106374  0  3.717123  0  0  0.118018  0  3.94738  0  0  0.122077  0  3.968203  0  0.002224  0  0.019395  0.115321  0  3.933239  0
C  C71  1  0.02555814  0.84858049  0.58137835  1  0  0.106364  0  3.717118  0  0  0.118022  0  3.947351  0  0  0.122083  0  3.968168  0  0.002262  0  0.019388  0.115324  0  3.933211  0
C  C72  1  0.15138041  0.97438041  0.58135757  1  0  0.106443  0  3.716866  0  0  0.116998  0  3.948087  0  0  0.121021  0  3.968927  0  -0.077429  0  0.018937  0.114327  0  3.933935  0
C  C73  1  0.34862015  0.52561884  0.08135820  1  0  0.106462  0  3.716791  0  0  0.116998  0  3.948046  0  0  0.121021  0  3.968887  0  -0.077435  0  0.018944  0.114327  0  3.933894  0
C  C74  1  0.52555851  0.34858146  0.91862039  1  0  0.106381  0  3.717097  0  0  0.118031  0  3.947339  0  0  0.122088  0  3.968163  0  0.00221  0  0.019415  0.115334  0  3.933198  0
C  C75  1  0.97444178  0.15141971  0.41862102  1  0  0.106449  0  3.71698  0  0  0.118081  0  3.94724  0  0  0.12214  0  3.968061  0  0.001891  0  0.01941  0.115383  0  3.933101  0
C  C76  1  0.83452344  0.91689818  0.35876843  1  0  -0.140866  0  3.682822  0  0  -0.161798  0  3.93377  0  0  -0.168276  0  3.953658  0  -0.006635  0  -0.077171  -0.157492  0  3.920577  0
C  C77  1  0.66547643  0.58310213  0.85876717  1  0  -0.1409  0  3.682834  0  0  -0.161819  0  3.933769  0  0  -0.168295  0  3.953649  0  -0.006648  0  -0.077139  -0.157513  0  3.920576  0
C  C78  1  0.58262627  0.66506206  0.14121582  1  0  -0.140817  0  3.681949  0  0  -0.162284  0  3.93238  0  0  -0.168787  0  3.952279  0  0.005859  0  -0.077452  -0.157953  0  3.919199  0
C  C79  1  0.91737433  0.83493718  0.64121519  1  0  -0.140781  0  3.681949  0  0  -0.162238  0  3.932407  0  0  -0.168738  0  3.952301  0  0.005814  0  -0.077437  -0.157912  0  3.919228  0
C  C80  1  0.16547690  0.08309989  0.64123094  1  0  -0.140913  0  3.682915  0  0  -0.161852  0  3.933845  0  0  -0.168336  0  3.953744  0  -0.006683  0  -0.077146  -0.157546  0  3.920652  0
C  C81  1  0.33452175  0.41689914  0.14123157  1  0  -0.140877  0  3.682891  0  0  -0.161797  0  3.933809  0  0  -0.168281  0  3.95371  0  -0.006663  0  -0.077141  -0.157491  0  3.920616  0
C  C82  1  0.41737365  0.33493814  0.85878418  1  0  -0.14082  0  3.68197  0  0  -0.162259  0  3.93237  0  0  -0.168763  0  3.952271  0  0.005782  0  -0.077448  -0.157929  0  3.91919  0
C  C83  1  0.08262791  0.16506409  0.35878418  1  0  -0.140818  0  3.681936  0  0  -0.162277  0  3.932377  0  0  -0.168781  0  3.952273  0  0.006185  0  -0.077469  -0.157947  0  3.919198  0
C  C84  1  0.71841421  0.79776027  0.36210344  1  0  0.118085  0  3.733109  0  0  0.088491  0  3.983817  0  0  0.0944  0  4.004084  0  0.479504  0  0.041941  0.084532  0  3.969913  0
C  C85  1  0.78158596  0.70224110  0.86210155  1  0  0.118161  0  3.73301  0  0  0.08858  0  3.983721  0  0  0.094491  0  4.003986  0  0.479522  0  0.041978  0.08462  0  3.969817  0
C  C86  1  0.70165896  0.78124417  0.13769749  1  0  0.117738  0  3.73397  0  0  0.088157  0  3.984825  0  0  0.094098  0  4.005117  0  0.460032  0  0.041669  0.084154  0  3.970906  0
C  C87  1  0.79834063  0.71875507  0.63769749  1  0  0.117689  0  3.73394  0  0  0.088108  0  3.984796  0  0  0.094049  0  4.005087  0  0.460037  0  0.041644  0.084106  0  3.970876  0
C  C88  1  0.28158643  0.20223887  0.63789719  1  0  0.118214  0  3.733054  0  0  0.088624  0  3.983769  0  0  0.094538  0  4.004033  0  0.479528  0  0.042002  0.084666  0  3.969864  0
C  C89  1  0.21841353  0.29776123  0.13789782  1  0  0.118113  0  3.733028  0  0  0.088524  0  3.983742  0  0  0.094436  0  4.004008  0  0.479502  0  0.041955  0.084565  0  3.969839  0
C  C90  1  0.29833965  0.21875497  0.86230251  1  0  0.117718  0  3.733936  0  0  0.088107  0  3.984809  0  0  0.094053  0  4.005097  0  0.460138  0  0.041648  0.084104  0  3.970891  0
C  C91  1  0.20166060  0.28124620  0.36230251  1  0  0.117645  0  3.733974  0  0  0.088031  0  3.984859  0  0  0.093986  0  4.005137  0  0.46005  0  0.041638  0.084029  0  3.970941  0
C  C92  1  0.26649511  0.73340955  0.31598904  1  0  0.664329  0  3.902665  0  0  0.623352  0  4.193919  0  0  0.656152  0  4.189354  0  1.513009  0  0.183527  0.601291  0  4.195884  0
C  C93  1  0.23350415  0.76658863  0.81598967  1  0  0.66426  0  3.902753  0  0  0.623267  0  4.194026  0  0  0.656068  0  4.18946  0  1.513008  0  0.183507  0.601206  0  4.195991  0
C  C94  1  0.76649548  0.23341051  0.18401159  1  0  0.664281  0  3.902678  0  0  0.623283  0  4.193966  0  0  0.656081  0  4.189398  0  1.513006  0  0.183483  0.601222  0  4.195931  0
C  C95  1  0.73350422  0.26658852  0.68401096  1  0  0.664253  0  3.902877  0  0  0.623287  0  4.194132  0  0  0.65609  0  4.189566  0  1.512998  0  0.183518  0.601226  0  4.196097  0
C  C96  1  0.18091492  0.81913210  0.27193209  1  0  -0.220678  0  3.714382  0  0  -0.260583  0  3.964607  0  0  -0.264799  0  3.972676  0  -0.006208  0  -0.167022  -0.257484  0  3.959147  0
C  C97  1  0.31908433  0.68086608  0.77193209  1  0  -0.220651  0  3.714313  0  0  -0.260547  0  3.964532  0  0  -0.264757  0  3.972594  0  -0.006214  0  -0.167009  -0.257448  0  3.959072  0
C  C98  1  0.68091529  0.31913306  0.22806791  1  0  -0.220645  0  3.71432  0  0  -0.260541  0  3.964544  0  0  -0.264748  0  3.972597  0  -0.006222  0  -0.166997  -0.257441  0  3.959083  0
C  C99  1  0.81908470  0.18086704  0.72806854  1  0  -0.220665  0  3.71439  0  0  -0.260641  0  3.964694  0  0  -0.264865  0  3.97277  0  -0.006221  0  -0.167033  -0.257541  0  3.959232  0
C  C100  1  0.18457383  0.81541632  0.17627315  1  0  -0.238394  0  3.701977  0  0  -0.274748  0  3.952073  0  0  -0.280234  0  3.959794  0  -0.01545  0  -0.165547  -0.271109  0  3.946815  0
C  C101  1  0.31542571  0.68458292  0.67627378  1  0  -0.238442  0  3.701875  0  0  -0.274825  0  3.952018  0  0  -0.280315  0  3.959738  0  -0.014274  0  -0.165577  -0.271186  0  3.946762  0
C  C102  1  0.68457522  0.31541728  0.32372685  1  0  -0.238302  0  3.701785  0  0  -0.274691  0  3.951932  0  0  -0.280175  0  3.959643  0  -0.014274  0  -0.165519  -0.271051  0  3.946674  0
C  C103  1  0.81542477  0.18458282  0.82372685  1  0  -0.238296  0  3.701862  0  0  -0.274661  0  3.952017  0  0  -0.28014  0  3.959734  0  -0.01429  0  -0.165514  -0.271022  0  3.946759  0
C  C104  1  0.09714147  0.90282698  0.13537357  1  0  0.696332  0  3.866967  0  0  0.645507  0  4.1707  0  0  0.679889  0  4.163248  0  1.552636  0  0.201712  0.622172  0  4.174866  0
C  C105  1  0.40285909  0.59717226  0.63537357  1  0  0.696459  0  3.866862  0  0  0.645623  0  4.170607  0  0  0.680005  0  4.163154  0  1.552649  0  0.201758  0.622287  0  4.174777  0
C  C106  1  0.59714155  0.40282688  0.36462643  1  0  0.696399  0  3.866835  0  0  0.645566  0  4.17058  0  0  0.679948  0  4.163126  0  1.552636  0  0.201735  0.622231  0  4.174748  0
C  C107  1  0.90285844  0.09717322  0.86462643  1  0  0.696418  0  3.86682  0  0  0.645591  0  4.170558  0  0  0.679971  0  4.163103  0  1.552636  0  0.201742  0.622255  0  4.174727  0
N  N108  1  0.61517327  0.78085567  0.41989102  1  0  -0.325379  0  3.265705  0  0  -0.247963  0  3.529205  0  0  -0.267621  0  3.548781  0  -1.241605  0  -0.327704  -0.233829  0  3.515478  0
N  N109  1  0.88482618  0.71914676  0.91988976  1  0  -0.325449  0  3.265602  0  0  -0.248043  0  3.529118  0  0  -0.267701  0  3.548688  0  -1.241622  0  -0.327782  -0.233907  0  3.515388  0
N  N110  1  0.71898001  0.88491441  0.07979778  1  0  -0.3247  0  3.263603  0  0  -0.247281  0  3.526952  0  0  -0.266933  0  3.546539  0  -1.243462  0  -0.327445  -0.233158  0  3.513245  0
N  N111  1  0.78101927  0.61508377  0.57979778  1  0  -0.32467  0  3.263547  0  0  -0.247235  0  3.526879  0  0  -0.266887  0  3.546467  0  -1.243516  0  -0.32741  -0.233112  0  3.513171  0
N  N112  1  0.38482635  0.21914347  0.58010961  1  0  -0.325419  0  3.265622  0  0  -0.247995  0  3.529114  0  0  -0.267654  0  3.548689  0  -1.241605  0  -0.327724  -0.23386  0  3.515385  0
N  N113  1  0.11517229  0.28085557  0.08010961  1  0  -0.325394  0  3.265545  0  0  -0.247981  0  3.529044  0  0  -0.267636  0  3.548617  0  -1.241576  0  -0.327722  -0.233846  0  3.515315  0
N  N114  1  0.28102092  0.11508579  0.92020222  1  0  -0.3247  0  3.263597  0  0  -0.247279  0  3.526967  0  0  -0.266931  0  3.546555  0  -1.243521  0  -0.327448  -0.233156  0  3.513261  0
N  N115  1  0.21897993  0.38491750  0.42020285  1  0  -0.32466  0  3.263471  0  0  -0.247226  0  3.526828  0  0  -0.266878  0  3.54641  0  -1.243514  0  -0.327432  -0.233104  0  3.513123  0
O  O116  1  0.26503187  0.73489118  0.39706816  1  0  -0.672546  0  1.981235  0  0  -0.609937  0  2.220788  0  0  -0.639071  0  2.211134  0  -1.153766  0  -0.347002  -0.589964  0  2.227047  0
O  O117  1  0.23496768  0.76510806  0.89706816  1  0  -0.672485  0  1.981265  0  0  -0.609868  0  2.22082  0  0  -0.638999  0  2.211162  0  -1.153784  0  -0.346978  -0.589894  0  2.227079  0
O  O118  1  0.76503194  0.23489108  0.10293184  1  0  -0.672568  0  1.981183  0  0  -0.609948  0  2.220734  0  0  -0.639086  0  2.211087  0  -1.153748  0  -0.347009  -0.589975  0  2.226994  0
O  O119  1  0.73496716  0.26510583  0.60293247  1  0  -0.672488  0  1.981334  0  0  -0.609869  0  2.220869  0  0  -0.63901  0  2.211226  0  -1.153752  0  -0.34697  -0.589895  0  2.227128  0
O  O120  1  0.33493109  0.66504503  0.27387237  1  0  -0.626804  0  1.93058  0  0  -0.57017  0  2.16081  0  0  -0.597655  0  2.155173  0  -1.169286  0  -0.332392  -0.550773  0  2.163921  0
O  O121  1  0.16506947  0.83495421  0.77387237  1  0  -0.626799  0  1.930627  0  0  -0.57016  0  2.160862  0  0  -0.59765  0  2.155229  0  -1.16926  0  -0.332393  -0.550763  0  2.163973  0
O  O122  1  0.83493117  0.16504493  0.22612763  1  0  -0.626783  0  1.930623  0  0  -0.570145  0  2.160863  0  0  -0.597631  0  2.155227  0  -1.169293  0  -0.332372  -0.550748  0  2.163975  0
O  O123  1  0.66506954  0.33495411  0.72612826  1  0  -0.626819  0  1.930684  0  0  -0.570181  0  2.160905  0  0  -0.597664  0  2.15526  0  -1.169281  0  -0.332422  -0.550783  0  2.164016  0
O  O124  1  0.03137730  0.96833256  0.18339864  1  0  -0.654278  0  2.013046  0  0  -0.582068  0  2.261799  0  0  -0.610849  0  2.250731  0  -1.171214  0  -0.326538  -0.562286  0  2.269138  0
O  O125  1  0.46862356  0.53166775  0.68339801  1  0  -0.654364  0  2.013068  0  0  -0.582107  0  2.261783  0  0  -0.610889  0  2.250712  0  -1.17123  0  -0.326564  -0.562325  0  2.269123  0
O  O126  1  0.53137636  0.46833246  0.31660199  1  0  -0.654352  0  2.013037  0  0  -0.582097  0  2.261757  0  0  -0.610881  0  2.250689  0  -1.171213  0  -0.326553  -0.562314  0  2.269097  0
O  O127  1  0.96862363  0.03166765  0.81660199  1  0  -0.654362  0  2.013036  0  0  -0.582107  0  2.261747  0  0  -0.610885  0  2.250674  0  -1.17121  0  -0.326556  -0.562325  0  2.269089  0
O  O128  1  0.09163222  0.90834370  0.05586116  1  0  -0.686692  0  2.060755  0  0  -0.625441  0  2.342711  0  0  -0.653964  0  2.328257  0  -1.226138  0  -0.344014  -0.60571  0  2.352149  0
O  O129  1  0.40836864  0.59165661  0.55586179  1  0  -0.68672  0  2.060762  0  0  -0.625464  0  2.342713  0  0  -0.653992  0  2.328272  0  -1.226194  0  -0.344005  -0.605731  0  2.352153  0
O  O130  1  0.59163229  0.40834360  0.44413884  1  0  -0.686711  0  2.060731  0  0  -0.625446  0  2.34267  0  0  -0.653978  0  2.328237  0  -1.226157  0  -0.344007  -0.605714  0  2.352108  0
O  O131  1  0.90836871  0.09165650  0.94413884  1  0  -0.686732  0  2.060729  0  0  -0.625478  0  2.342668  0  0  -0.65401  0  2.32824  0  -1.226376  0  -0.344023  -0.605746  0  2.352108  0
