# generated using pymatgen
data_HgH5C6(IN)2
_symmetry_space_group_name_H-M   'P 1'
_cell_length_a   7.70444515
_cell_length_b   7.39387403
_cell_length_c   18.03304475
_cell_angle_alpha   100.89636195
_cell_angle_beta   90.00166139
_cell_angle_gamma   90.00049724
_symmetry_Int_Tables_number   1
_chemical_formula_structural   HgH5C6(IN)2
_chemical_formula_sum   'Hg4 H20 C24 I8 N8'
_cell_volume   1008.74411169
_cell_formula_units_Z   4
loop_
 _symmetry_equiv_pos_site_id
 _symmetry_equiv_pos_as_xyz
  1  'x, y, z'
loop_
 _atom_site_type_symbol
 _atom_site_label
 _atom_site_symmetry_multiplicity
 _atom_site_fract_x
 _atom_site_fract_y
 _atom_site_fract_z
 _atom_site_occupancy
 _atom_site_hle17_bader_spin_density
 _atom_site_hle17_ddec_charge
 _atom_site_hle17_ddec_spin_density
 _atom_site_hle17_ddec_sum_bond_order
 _atom_site_hle17_magmom
 _atom_site_hse06_10hf_bader_spin_density
 _atom_site_hse06_10hf_ddec_charge
 _atom_site_hse06_10hf_ddec_spin_density
 _atom_site_hse06_10hf_ddec_sum_bond_order
 _atom_site_hse06_10hf_magmom
 _atom_site_hse06_bader_spin_density
 _atom_site_hse06_ddec_charge
 _atom_site_hse06_ddec_spin_density
 _atom_site_hse06_ddec_sum_bond_order
 _atom_site_hse06_magmom
 _atom_site_pbe_bader_spin_density
 _atom_site_pbe_cm5_charge
 _atom_site_pbe_ddec_charge
 _atom_site_pbe_ddec_spin_density
 _atom_site_pbe_ddec_sum_bond_order
 _atom_site_pbe_magmom
Hg  Hg0  1  0.15081098  0.45802076  0.15906770  1  0  0.508723  0  2.226098  0  0  0.384228  0  2.719002  0  0  0.430733  0  2.69211  0  0  0.372423  0.35311  0  2.736554  0
Hg  Hg1  1  0.65080645  0.54202278  0.34093865  1  0  0.508842  0  2.226045  0  0  0.384389  0  2.718905  0  0  0.430898  0  2.69201  0  0  0.372484  0.353271  0  2.736463  0
Hg  Hg2  1  0.84919246  0.54199868  0.84093493  1  0  0.5088  0  2.226181  0  0  0.384347  0  2.71906  0  0  0.430847  0  2.692167  0  0  0.372464  0.353231  0  2.736612  0
Hg  Hg3  1  0.34922554  0.45797462  0.65906225  1  0  0.508929  0  2.226042  0  0  0.384438  0  2.718922  0  0  0.430944  0  2.692024  0  0  0.372536  0.35332  0  2.736479  0
H  H4  1  0.19543418  0.60323163  0.93173875  1  0  0.082834  0  0.943589  0  0  0.090165  0  1.01536  0  0  0.093398  0  1.010899  0  0  0.111146  0.08775  0  1.018688  0
H  H5  1  0.69543019  0.39674028  0.56825568  1  0  0.082932  0  0.943463  0  0  0.090152  0  1.015361  0  0  0.093384  0  1.010899  0  0  0.11116  0.087737  0  1.018692  0
H  H6  1  0.80454719  0.39676996  0.06824972  1  0  0.082932  0  0.943474  0  0  0.090218  0  1.015277  0  0  0.093447  0  1.01082  0  0  0.111206  0.087803  0  1.018609  0
H  H7  1  0.30457713  0.60326398  0.43175242  1  0  0.082965  0  0.94353  0  0  0.090219  0  1.015361  0  0  0.093448  0  1.010901  0  0  0.111194  0.087805  0  1.018693  0
H  H8  1  0.46877535  0.76589182  0.94272648  1  0  0.106041  0  0.966278  0  0  0.11345  0  1.034741  0  0  0.11678  0  1.03361  0  0  0.095017  0.111018  0  1.035721  0
H  H9  1  0.96878641  0.23407707  0.55726716  1  0  0.106025  0  0.96618  0  0  0.113472  0  1.034616  0  0  0.116802  0  1.033485  0  0  0.094948  0.111034  0  1.035595  0
H  H10  1  0.53120602  0.23409872  0.05726945  1  0  0.105973  0  0.966135  0  0  0.113396  0  1.0346  0  0  0.116725  0  1.033475  0  0  0.094925  0.110964  0  1.035583  0
H  H11  1  0.03124688  0.76589411  0.44274333  1  0  0.105998  0  0.966345  0  0  0.113489  0  1.034717  0  0  0.116819  0  1.033585  0  0  0.09507  0.111051  0  1.035696  0
H  H12  1  0.49175171  0.71327963  0.21049391  1  0  0.063381  0  0.986172  0  0  0.066736  0  1.064505  0  0  0.068721  0  1.06259  0  0  0.09182  0.065211  0  1.065956  0
H  H13  1  0.99173961  0.28677527  0.28951499  1  0  0.06324  0  0.986494  0  0  0.066768  0  1.064554  0  0  0.068744  0  1.062647  0  0  0.091854  0.065246  0  1.066001  0
H  H14  1  0.50825043  0.28674536  0.78950083  1  0  0.063256  0  0.986273  0  0  0.066768  0  1.064457  0  0  0.068753  0  1.06254  0  0  0.091837  0.06524  0  1.065914  0
H  H15  1  0.00825734  0.71320829  0.71049980  1  0  0.063369  0  0.986427  0  0  0.066895  0  1.064583  0  0  0.068878  0  1.062666  0  0  0.091857  0.065367  0  1.066035  0
H  H16  1  0.72353899  0.90276840  0.02084189  1  0  0.089953  0  0.982398  0  0  0.095109  0  1.055144  0  0  0.098437  0  1.052702  0  0  0.086853  0.0927  0  1.056886  0
H  H17  1  0.22351267  0.09725804  0.47913329  1  0  0.090032  0  0.982488  0  0  0.095174  0  1.055253  0  0  0.098497  0  1.052812  0  0  0.086866  0.092763  0  1.056991  0
H  H18  1  0.27646315  0.09723736  0.97913970  1  0  0.090098  0  0.982433  0  0  0.095237  0  1.055188  0  0  0.098563  0  1.052745  0  0  0.086911  0.092827  0  1.056928  0
H  H19  1  0.77649077  0.90272557  0.52086931  1  0  0.089832  0  0.982599  0  0  0.095006  0  1.055341  0  0  0.098331  0  1.052902  0  0  0.08683  0.092595  0  1.057077  0
H  H20  1  0.72903319  0.88412131  0.15903493  1  0  0.10729  0  0.970482  0  0  0.112687  0  1.038367  0  0  0.116715  0  1.036029  0  0  0.090501  0.109601  0  1.040524  0
H  H21  1  0.22899525  0.11590787  0.34095225  1  0  0.10736  0  0.970479  0  0  0.112767  0  1.038347  0  0  0.116779  0  1.03603  0  0  0.0906  0.109724  0  1.040466  0
H  H22  1  0.27098323  0.11590231  0.84095693  1  0  0.107375  0  0.970515  0  0  0.112795  0  1.038331  0  0  0.116807  0  1.03601  0  0  0.090562  0.109728  0  1.040467  0
H  H23  1  0.77100300  0.88406608  0.65905403  1  0  0.107468  0  0.970511  0  0  0.112865  0  1.038368  0  0  0.116889  0  1.036041  0  0  0.090663  0.109787  0  1.040512  0
C  C24  1  0.34882971  0.66844927  0.03594988  1  0  0.183375  0  3.802778  0  0  0.18317  0  4.04324  0  0  0.187671  0  4.06532  0  0  0.107592  0.180266  0  4.028156  0
C  C25  1  0.84883052  0.33154242  0.46403894  1  0  0.183224  0  3.802494  0  0  0.182977  0  4.043048  0  0  0.187476  0  4.065131  0  0  0.107471  0.180073  0  4.027976  0
C  C26  1  0.65117632  0.33155094  0.96404015  1  0  0.183141  0  3.802668  0  0  0.182938  0  4.043158  0  0  0.187436  0  4.065241  0  0  0.107418  0.180032  0  4.028078  0
C  C27  1  0.15118720  0.66846603  0.53595673  1  0  0.183153  0  3.802717  0  0  0.182792  0  4.043364  0  0  0.18729  0  4.065448  0  0  0.107392  0.179886  0  4.028286  0
C  C28  1  0.19744730  0.59623691  0.99195662  1  0  0.083937  0  3.63954  0  0  0.045863  0  3.898972  0  0  0.055915  0  3.909538  0  0  0.080865  0.038939  0  3.891966  0
C  C29  1  0.69749135  0.40375564  0.50804945  1  0  0.084104  0  3.639165  0  0  0.046169  0  3.89858  0  0  0.056222  0  3.909144  0  0  0.080965  0.039244  0  3.891579  0
C  C30  1  0.80251200  0.40379081  0.00804277  1  0  0.084039  0  3.639892  0  0  0.046018  0  3.899355  0  0  0.056071  0  3.909915  0  0  0.080895  0.039094  0  3.892353  0
C  C31  1  0.30253286  0.59621284  0.49195030  1  0  0.084125  0  3.638699  0  0  0.046151  0  3.898186  0  0  0.056211  0  3.908741  0  0  0.080937  0.039223  0  3.891192  0
C  C32  1  0.47907741  0.75772212  0.00239022  1  0  -0.124464  0  3.672724  0  0  -0.14144  0  3.915879  0  0  -0.148394  0  3.938456  0  0  -0.075782  -0.136859  0  3.900666  0
C  C33  1  0.97909346  0.24228312  0.49760728  1  0  -0.124358  0  3.672582  0  0  -0.141322  0  3.915714  0  0  -0.148279  0  3.93829  0  0  -0.075614  -0.136737  0  3.900498  0
C  C34  1  0.52090396  0.24231939  0.99760748  1  0  -0.124105  0  3.672083  0  0  -0.141068  0  3.915234  0  0  -0.148023  0  3.93781  0  0  -0.07554  -0.136495  0  3.90003  0
C  C35  1  0.02092295  0.75772113  0.50240303  1  0  -0.124338  0  3.672495  0  0  -0.141325  0  3.915727  0  0  -0.148279  0  3.938301  0  0  -0.075672  -0.13674  0  3.900512  0
C  C36  1  0.49116900  0.72766388  0.15138613  1  0  0.141355  0  3.694422  0  0  0.110541  0  3.942994  0  0  0.117609  0  3.961707  0  0  0.04813  0.105914  0  3.930522  0
C  C37  1  0.99117622  0.27236076  0.34860985  1  0  0.141499  0  3.694937  0  0  0.110638  0  3.943435  0  0  0.117693  0  3.962192  0  0  0.048186  0.106009  0  3.930982  0
C  C38  1  0.50879549  0.27236111  0.84860861  1  0  0.141462  0  3.694571  0  0  0.110532  0  3.943127  0  0  0.117594  0  3.961862  0  0  0.04809  0.105905  0  3.930656  0
C  C39  1  0.00885577  0.72762834  0.65139872  1  0  0.140942  0  3.694573  0  0  0.110057  0  3.942911  0  0  0.117105  0  3.96169  0  0  0.047889  0.105429  0  3.930442  0
C  C40  1  0.61935695  0.83472583  0.04611372  1  0  -0.004021  0  3.706444  0  0  -0.019854  0  3.950621  0  0  -0.017907  0  3.970519  0  0  -0.072514  -0.020898  0  3.93713  0
C  C41  1  0.11931759  0.16524176  0.45386984  1  0  -0.004021  0  3.706848  0  0  -0.019893  0  3.951021  0  0  -0.017939  0  3.970911  0  0  -0.072592  -0.020929  0  3.937535  0
C  C42  1  0.38063740  0.16527302  0.95387288  1  0  -0.004175  0  3.706706  0  0  -0.020033  0  3.950862  0  0  -0.018078  0  3.970751  0  0  -0.072638  -0.021078  0  3.937375  0
C  C43  1  0.88064950  0.83470597  0.54614658  1  0  -0.003809  0  3.706717  0  0  -0.019726  0  3.950959  0  0  -0.017771  0  3.970851  0  0  -0.072592  -0.020765  0  3.937463  0
C  C44  1  0.62377255  0.82320313  0.12226740  1  0  -0.09217  0  3.682576  0  0  -0.100998  0  3.923101  0  0  -0.107295  0  3.943495  0  0  -0.078033  -0.097154  0  3.909982  0
C  C45  1  0.12378258  0.17683193  0.37773153  1  0  -0.092245  0  3.682718  0  0  -0.101078  0  3.923273  0  0  -0.107352  0  3.943622  0  0  -0.078059  -0.097276  0  3.910139  0
C  C46  1  0.37621271  0.17681356  0.87773224  1  0  -0.092322  0  3.683307  0  0  -0.101142  0  3.92384  0  0  -0.107422  0  3.944213  0  0  -0.07805  -0.097313  0  3.910707  0
C  C47  1  0.87622345  0.82312545  0.62228288  1  0  -0.092106  0  3.683057  0  0  -0.100984  0  3.923674  0  0  -0.107274  0  3.944017  0  0  -0.078028  -0.097148  0  3.910556  0
I  I48  1  0.06256361  0.09475837  0.11789068  1  0  -0.339472  0  1.141164  0  0  -0.300504  0  1.479353  0  0  -0.318546  0  1.462631  0  0  -0.183477  -0.288002  0  1.490842  0
I  I49  1  0.56251547  0.90528163  0.38211269  1  0  -0.339526  0  1.141087  0  0  -0.300532  0  1.479262  0  0  -0.318578  0  1.462535  0  0  -0.183489  -0.288037  0  1.490776  0
I  I50  1  0.93742684  0.90526246  0.88210762  1  0  -0.339467  0  1.141235  0  0  -0.300484  0  1.479433  0  0  -0.318529  0  1.462707  0  0  -0.183473  -0.287974  0  1.490918  0
I  I51  1  0.43747499  0.09471439  0.61788866  1  0  -0.339541  0  1.141161  0  0  -0.300561  0  1.479392  0  0  -0.318608  0  1.46267  0  0  -0.183494  -0.288044  0  1.490861  0
I  I52  1  0.99698087  0.71157253  0.27068807  1  0  -0.342454  0  1.269584  0  0  -0.299884  0  1.639344  0  0  -0.320811  0  1.620222  0  0  -0.169241  -0.284992  0  1.652244  0
I  I53  1  0.49702905  0.28846873  0.22930104  1  0  -0.342516  0  1.269701  0  0  -0.29992  0  1.639441  0  0  -0.320864  0  1.620343  0  0  -0.169269  -0.285024  0  1.65234  0
I  I54  1  0.00299790  0.28843314  0.72931182  1  0  -0.342533  0  1.269515  0  0  -0.29996  0  1.639274  0  0  -0.320885  0  1.620153  0  0  -0.169283  -0.285073  0  1.652173  0
I  I55  1  0.50298866  0.71155213  0.77069394  1  0  -0.34248  0  1.269656  0  0  -0.299893  0  1.639432  0  0  -0.32082  0  1.620308  0  0  -0.16927  -0.285025  0  1.65237  0
N  N56  1  0.35928591  0.64968214  0.10911839  1  0  -0.295646  0  3.240909  0  0  -0.220448  0  3.491257  0  0  -0.240187  0  3.513463  0  0  -0.301603  -0.207245  0  3.47613  0
N  N57  1  0.85929990  0.35033857  0.39087186  1  0  -0.295778  0  3.240919  0  0  -0.220642  0  3.491367  0  0  -0.240387  0  3.513566  0  0  -0.301747  -0.207441  0  3.476244  0
N  N58  1  0.64070325  0.35034976  0.89087246  1  0  -0.295728  0  3.240616  0  0  -0.220558  0  3.491026  0  0  -0.240305  0  3.513232  0  0  -0.301604  -0.207353  0  3.475892  0
N  N59  1  0.14072430  0.64963131  0.60912024  1  0  -0.295625  0  3.240651  0  0  -0.220294  0  3.490929  0  0  -0.240045  0  3.513134  0  0  -0.30152  -0.207087  0  3.475794  0
N  N60  1  0.06737528  0.53082462  0.02385295  1  0  -0.168443  0  3.165076  0  0  -0.118654  0  3.442648  0  0  -0.132648  0  3.463716  0  0  -0.203621  -0.109189  0  3.428291  0
N  N61  1  0.56739431  0.46916856  0.47615519  1  0  -0.168946  0  3.164907  0  0  -0.119194  0  3.442496  0  0  -0.13319  0  3.463568  0  0  -0.203757  -0.109726  0  3.428138  0
N  N62  1  0.93259311  0.46918241  0.97615259  1  0  -0.168966  0  3.165543  0  0  -0.119236  0  3.443193  0  0  -0.133233  0  3.464265  0  0  -0.203826  -0.109771  0  3.428837  0
N  N63  1  0.43263249  0.53082464  0.52386091  1  0  -0.168752  0  3.164564  0  0  -0.118986  0  3.442169  0  0  -0.13298  0  3.46323  0  0  -0.203769  -0.109522  0  3.427815  0
