# generated using pymatgen
data_CdH26C14(NO2)4
_symmetry_space_group_name_H-M   'P 1'
_cell_length_a   7.90223511
_cell_length_b   9.21511329
_cell_length_c   9.21513133
_cell_angle_alpha   69.38938909
_cell_angle_beta   84.30648772
_cell_angle_gamma   84.30833664
_symmetry_Int_Tables_number   1
_chemical_formula_structural   CdH26C14(NO2)4
_chemical_formula_sum   'Cd1 H26 C14 N4 O8'
_cell_volume   623.50755719
_cell_formula_units_Z   1
loop_
 _symmetry_equiv_pos_site_id
 _symmetry_equiv_pos_as_xyz
  1  'x, y, z'
loop_
 _atom_site_type_symbol
 _atom_site_label
 _atom_site_symmetry_multiplicity
 _atom_site_fract_x
 _atom_site_fract_y
 _atom_site_fract_z
 _atom_site_occupancy
 _atom_site_hle17_bader_spin_density
 _atom_site_hle17_ddec_charge
 _atom_site_hle17_ddec_spin_density
 _atom_site_hle17_ddec_sum_bond_order
 _atom_site_hle17_magmom
 _atom_site_hse06_10hf_bader_spin_density
 _atom_site_hse06_10hf_ddec_charge
 _atom_site_hse06_10hf_ddec_spin_density
 _atom_site_hse06_10hf_ddec_sum_bond_order
 _atom_site_hse06_10hf_magmom
 _atom_site_hse06_bader_spin_density
 _atom_site_hse06_ddec_charge
 _atom_site_hse06_ddec_spin_density
 _atom_site_hse06_ddec_sum_bond_order
 _atom_site_hse06_magmom
 _atom_site_pbe_bader_spin_density
 _atom_site_pbe_cm5_charge
 _atom_site_pbe_ddec_charge
 _atom_site_pbe_ddec_spin_density
 _atom_site_pbe_ddec_sum_bond_order
 _atom_site_pbe_magmom
Cd  Cd0  1  0.99999269  0.30409455  0.69590706  1  0  1.127493  0  1.711207  0  0  0.947809  0  2.169774  0  0  1.002259  0  2.117038  0  0  0.756558  0.909341  0  2.205678  0
H  H1  1  0.63678703  0.67283152  0.40976712  1  0  0.115206  0  0.946393  0  0  0.13599  0  1.006893  0  0  0.13786  0  1.006301  0  0  0.095727  0.134596  0  1.007406  0
H  H2  1  0.36321162  0.59023264  0.32716214  1  0  0.115158  0  0.94642  0  0  0.135974  0  1.00689  0  0  0.137839  0  1.006305  0  0  0.095723  0.13458  0  1.007404  0
H  H3  1  0.72211066  0.63660643  0.23994847  1  0  0.124955  0  0.925664  0  0  0.147955  0  0.979062  0  0  0.149752  0  0.978721  0  0  0.102406  0.14661  0  0.979365  0
H  H4  1  0.27789267  0.76005189  0.36338611  1  0  0.124955  0  0.925667  0  0  0.147973  0  0.97904  0  0  0.149769  0  0.978703  0  0  0.102392  0.146628  0  0.979343  0
H  H5  1  0.85894886  0.62658619  0.38642151  1  0  0.114235  0  0.959684  0  0  0.133834  0  1.024101  0  0  0.135315  0  1.024416  0  0  0.096444  0.132686  0  1.024015  0
H  H6  1  0.14105603  0.61357479  0.37341400  1  0  0.114159  0  0.959798  0  0  0.133782  0  1.024183  0  0  0.135263  0  1.024497  0  0  0.096427  0.132634  0  1.024096  0
H  H7  1  0.58322793  0.40177486  0.42090138  1  0  0.028928  0  0.935774  0  0  0.041468  0  0.997107  0  0  0.042974  0  0.995553  0  0  0.102726  0.040277  0  0.998459  0
H  H8  1  0.41677556  0.57909686  0.59821345  1  0  0.028807  0  0.9357  0  0  0.041334  0  0.997086  0  0  0.042839  0  0.995529  0  0  0.10265  0.040142  0  0.998438  0
H  H9  1  0.04912269  0.19574030  0.23125710  1  0  0.102565  0  0.903224  0  0  0.113579  0  0.955196  0  0  0.116496  0  0.95277  0  0  0.126595  0.111425  0  0.957084  0
H  H10  1  0.95088018  0.76873262  0.80426522  1  0  0.102577  0  0.903222  0  0  0.113559  0  0.955206  0  0  0.116479  0  0.95278  0  0  0.126619  0.111406  0  0.957094  0
H  H11  1  0.96441004  0.95528246  0.20307791  1  0  0.014991  0  0.907996  0  0  0.028423  0  0.967542  0  0  0.028459  0  0.967187  0  0  0.095398  0.028258  0  0.967986  0
H  H12  1  0.03558410  0.79691901  0.04472332  1  0  0.014933  0  0.908017  0  0  0.028419  0  0.967555  0  0  0.028457  0  0.967198  0  0  0.095388  0.028254  0  0.967999  0
H  H13  1  0.81278690  0.00377204  0.50528980  1  0  0.114328  0  0.943359  0  0  0.132437  0  1.006726  0  0  0.13458  0  1.00572  0  0  0.087209  0.130838  0  1.007541  0
H  H14  1  0.18721864  0.49471609  0.99622866  1  0  0.1143  0  0.943371  0  0  0.132411  0  1.006728  0  0  0.13455  0  1.005724  0  0  0.087205  0.130812  0  1.007545  0
H  H15  1  0.02858485  0.94935135  0.46293441  1  0  0.107467  0  0.946844  0  0  0.128638  0  1.007942  0  0  0.12921  0  1.009088  0  0  0.089668  0.128178  0  1.007195  0
H  H16  1  0.97141991  0.53705537  0.05065571  1  0  0.107481  0  0.946847  0  0  0.128644  0  1.007942  0  0  0.129216  0  1.009087  0  0  0.089687  0.128185  0  1.007196  0
H  H17  1  0.86703594  0.82073635  0.48308239  1  0  0.10749  0  0.969959  0  0  0.12798  0  1.033655  0  0  0.1291  0  1.034347  0  0  0.086523  0.127183  0  1.033163  0
H  H18  1  0.13296917  0.51692145  0.17926576  1  0  0.107522  0  0.969969  0  0  0.127984  0  1.033689  0  0  0.129103  0  1.034382  0  0  0.086513  0.127186  0  1.033203  0
H  H19  1  0.66072460  0.28603852  0.67851308  1  0  0.310651  0  0.873176  0  0  0.307149  0  0.916062  0  0  0.312864  0  0.91242  0  0  0.309843  0.303022  0  0.918828  0
H  H20  1  0.33924663  0.32148729  0.71396372  1  0  0.310749  0  0.873107  0  0  0.307214  0  0.916023  0  0  0.31293  0  0.912377  0  0  0.309904  0.303087  0  0.918789  0
H  H21  1  0.68218000  0.46984046  0.65605568  1  0  0.307811  0  0.882924  0  0  0.303429  0  0.929114  0  0  0.309125  0  0.92525  0  0  0.306619  0.299394  0  0.931895  0
H  H22  1  0.31781077  0.34394266  0.53015632  1  0  0.307875  0  0.882961  0  0  0.303494  0  0.92913  0  0  0.30919  0  0.925263  0  0  0.306666  0.299458  0  0.931911  0
H  H23  1  0.68064287  0.29486800  0.24574544  1  0  0.296662  0  0.869999  0  0  0.282264  0  0.927265  0  0  0.28996  0  0.921195  0  0  0.324695  0.276679  0  0.931866  0
H  H24  1  0.31936452  0.75425419  0.70513293  1  0  0.296621  0  0.869879  0  0  0.282199  0  0.927191  0  0  0.289895  0  0.921123  0  0  0.324695  0.276614  0  0.931791  0
H  H25  1  0.68351699  0.07460296  0.13352898  1  0  0.363427  0  0.889081  0  0  0.345976  0  0.95411  0  0  0.355484  0  0.942659  0  0  0.295932  0.339172  0  0.962328  0
H  H26  1  0.31647711  0.86648335  0.92539264  1  0  0.363607  0  0.888865  0  0  0.346083  0  0.953975  0  0  0.355587  0  0.942531  0  0  0.295989  0.33928  0  0.962192  0
C  C27  1  0.73268793  0.60115415  0.36563993  1  0  -0.331664  0  3.657896  0  0  -0.414226  0  3.904238  0  0  -0.417107  0  3.913703  0  0  -0.235466  -0.41195  0  3.897739  0
C  C28  1  0.26731201  0.63435872  0.39884472  1  0  -0.331596  0  3.657914  0  0  -0.414188  0  3.904241  0  0  -0.417068  0  3.913707  0  0  -0.235425  -0.411913  0  3.897743  0
C  C29  1  0.70821254  0.42788550  0.44604347  1  0  0.129561  0  3.661926  0  0  0.110051  0  3.916309  0  0  0.110949  0  3.930713  0  0  0.005361  0.109329  0  3.906476  0
C  C30  1  0.29178407  0.55395323  0.57211438  1  0  0.129877  0  3.661618  0  0  0.110336  0  3.916114  0  0  0.111243  0  3.930502  0  0  0.005447  0.109614  0  3.906278  0
C  C31  1  0.84910534  0.33549870  0.38031579  1  0  0.524904  0  3.782527  0  0  0.482671  0  4.071183  0  0  0.510774  0  4.073225  0  0  0.245369  0.463699  0  4.069149  0
C  C32  1  0.15090849  0.61968848  0.66450909  1  0  0.524467  0  3.782763  0  0  0.482183  0  4.071571  0  0  0.510284  0  4.073622  0  0  0.245198  0.463211  0  4.069529  0
C  C33  1  0.91977021  0.18818615  0.20284329  1  0  -0.041855  0  3.606568  0  0  -0.066513  0  3.850311  0  0  -0.067653  0  3.860466  0  0  0.006908  -0.065746  0  3.84342  0
C  C34  1  0.08023366  0.79715518  0.81181313  1  0  -0.041902  0  3.606608  0  0  -0.066432  0  3.85026  0  0  -0.067577  0  3.860421  0  0  0.006923  -0.065669  0  3.843374  0
C  C35  1  0.87457374  0.01574072  0.26694065  1  0  0.268061  0  3.636775  0  0  0.246479  0  3.902907  0  0  0.252834  0  3.914001  0  0  -0.002863  0.242145  0  3.895203  0
C  C36  1  0.12542349  0.73306388  0.98425837  1  0  0.268181  0  3.636743  0  0  0.246468  0  3.902991  0  0  0.252822  0  3.914085  0  0  -0.002823  0.242135  0  3.895288  0
C  C37  1  0.89646398  0.94296397  0.43961198  1  0  -0.345493  0  3.678106  0  0  -0.428686  0  3.927148  0  0  -0.432202  0  3.937786  0  0  -0.254596  -0.425978  0  3.919694  0
C  C38  1  0.10354022  0.56038886  0.05703892  1  0  -0.345559  0  3.678177  0  0  -0.428705  0  3.927277  0  0  -0.432222  0  3.937921  0  0  -0.254609  -0.425999  0  3.919817  0
C  C39  1  0.90988261  0.24614816  0.02603211  1  0  0.631683  0  3.927002  0  0  0.583653  0  4.234567  0  0  0.6164  0  4.229164  0  0  0.190144  0.561466  0  4.23733  0
C  C40  1  0.09013389  0.97396875  0.75384704  1  0  0.63169  0  3.927087  0  0  0.583635  0  4.234657  0  0  0.616382  0  4.229251  0  0  0.190127  0.561449  0  4.237421  0
N  N41  1  0.72283449  0.38261326  0.61429477  1  0  -0.657395  0  3.104355  0  0  -0.613185  0  3.352408  0  0  -0.631464  0  3.349386  0  0  -0.619579  -0.600363  0  3.354219  0
N  N42  1  0.27715482  0.38570552  0.61738158  1  0  -0.657632  0  3.10445  0  0  -0.613362  0  3.352522  0  0  -0.631641  0  3.349495  0  0  -0.61967  -0.600542  0  3.354337  0
N  N43  1  0.80376431  0.28042476  0.27422704  1  0  -0.403949  0  3.363  0  0  -0.356242  0  3.613731  0  0  -0.376293  0  3.622927  0  0  -0.406422  -0.342639  0  3.607254  0
N  N44  1  0.19623785  0.72576992  0.71957991  1  0  -0.403563  0  3.363258  0  0  -0.355861  0  3.614016  0  0  -0.375908  0  3.623222  0  0  -0.406314  -0.342258  0  3.607533  0
O  O45  1  0.99781708  0.31965734  0.42158058  1  0  -0.571306  0  1.989568  0  0  -0.51904  0  2.225237  0  0  -0.543229  0  2.218184  0  0  -0.302593  -0.502349  0  2.229626  0
O  O46  1  0.00217885  0.57840637  0.68036248  1  0  -0.571267  0  1.989458  0  0  -0.518935  0  2.225139  0  0  -0.543133  0  2.218091  0  0  -0.302536  -0.502242  0  2.229526  0
O  O47  1  0.70247264  0.00262896  0.23961280  1  0  -0.576261  0  1.959978  0  0  -0.533029  0  2.157229  0  0  -0.547562  0  2.145443  0  0  -0.422886  -0.522643  0  2.165291  0
O  O48  1  0.29752241  0.76040058  0.99736806  1  0  -0.576453  0  1.959821  0  0  -0.533135  0  2.157188  0  0  -0.547665  0  2.145404  0  0  -0.422963  -0.522751  0  2.165251  0
O  O49  1  0.05289354  0.25240372  0.94733185  1  0  -0.64375  0  1.979827  0  0  -0.585047  0  2.223911  0  0  -0.614836  0  2.214438  0  0  -0.34505  -0.564195  0  2.229609  0
O  O50  1  0.94710667  0.05266528  0.74758915  1  0  -0.643813  0  1.97961  0  0  -0.585118  0  2.223725  0  0  -0.614912  0  2.214252  0  0  -0.345043  -0.564257  0  2.229415  0
O  O51  1  0.76351576  0.27222101  0.97365168  1  0  -0.654987  0  1.850742  0  0  -0.609915  0  2.058669  0  0  -0.632918  0  2.047194  0  0  -0.356437  -0.593766  0  2.06613  0
O  O52  1  0.23648469  0.02634714  0.72777607  1  0  -0.654934  0  1.851161  0  0  -0.609855  0  2.059093  0  0  -0.632851  0  2.047617  0  0  -0.356405  -0.593712  0  2.066554  0
