# generated using pymatgen
data_Co2H12(C3O2)5
_symmetry_space_group_name_H-M   'P 1'
_cell_length_a   7.58661490
_cell_length_b   10.68621302
_cell_length_c   11.08532476
_cell_angle_alpha   99.05246825
_cell_angle_beta   111.38747985
_cell_angle_gamma   97.41607114
_symmetry_Int_Tables_number   1
_chemical_formula_structural   Co2H12(C3O2)5
_chemical_formula_sum   'Co4 H24 C30 O20'
_cell_volume   809.23267716
_cell_formula_units_Z   2
loop_
 _symmetry_equiv_pos_site_id
 _symmetry_equiv_pos_as_xyz
  1  'x, y, z'
loop_
 _atom_site_type_symbol
 _atom_site_label
 _atom_site_symmetry_multiplicity
 _atom_site_fract_x
 _atom_site_fract_y
 _atom_site_fract_z
 _atom_site_occupancy
 _atom_site_hle17_ddec_charge
 _atom_site_hle17_ddec_spin_density
 _atom_site_hle17_ddec_sum_bond_order
 _atom_site_hle17_magmom
 _atom_site_hse06_10hf_ddec_charge
 _atom_site_hse06_10hf_ddec_spin_density
 _atom_site_hse06_10hf_ddec_sum_bond_order
 _atom_site_hse06_10hf_magmom
 _atom_site_hse06_ddec_charge
 _atom_site_hse06_ddec_spin_density
 _atom_site_hse06_ddec_sum_bond_order
 _atom_site_hse06_magmom
 _atom_site_pbe_cm5_charge
 _atom_site_pbe_ddec_charge
 _atom_site_pbe_ddec_spin_density
 _atom_site_pbe_ddec_sum_bond_order
 _atom_site_pbe_magmom
Co  Co0  1  0.54080845  0.36280109  0.02852110  1  1.170188  -2.866438  1.856221  -2.626  1.159489  -2.863195  2.248759  -2.685  1.226806  -2.89246  2.178905  -2.745  0.646501  1.108359  -2.836831  2.299767  -2.628
Co  Co1  1  0.45933689  0.63638781  0.97152675  1  1.162293  2.873892  1.863812  2.595  1.151338  2.832548  2.258886  2.653  1.222362  2.897783  2.187788  2.731  0.633858  1.092569  2.730538  2.312034  2.541
Co  Co2  1  0.18417758  0.48028284  0.12438432  1  1.109959  -2.798157  1.86619  -2.572  1.093934  -2.806428  2.262081  -2.638  1.174  -2.863797  2.188669  -2.721  0.63622  1.020413  -2.726454  2.328558  -2.536
Co  Co3  1  0.81388503  0.51841340  0.87491577  1  1.10834  -2.801749  1.862211  -2.576  1.093125  -2.809834  2.257339  -2.643  1.174357  -2.865325  2.183383  -2.724  0.63382  1.016739  -2.735532  2.325888  -2.546
H  H4  1  0.32821256  0.98236853  0.04897065  1  0.126819  -6.4e-05  0.925891  0.0  0.134879  -0.000101  0.985764  0.0  0.139891  -7.8e-05  0.981247  0.0  0.113452  0.130923  -0.000116  0.989531  0.0
H  H5  1  0.67190537  0.01769145  0.95100434  1  0.127029  2.2e-05  0.925095  0.0  0.135059  2.3e-05  0.985094  0.0  0.140053  3.4e-05  0.98064  0.0  0.11356  0.131091  -2e-06  0.988803  0.0
H  H6  1  0.93247624  0.77766345  0.18283512  1  0.127866  3.4e-05  0.954002  0.0  0.136  -4e-06  1.018795  0.0  0.140371  1.3e-05  1.014672  0.0  0.114257  0.131887  -2.4e-05  1.023075  0.0
H  H7  1  0.06865399  0.22209094  0.81763306  1  0.12833  0.000284  0.953487  0.0  0.136588  0.000362  1.018179  0.0  0.140953  0.000344  1.014056  0.0  0.114324  0.132471  0.000343  1.022433  0.0
H  H8  1  0.03522466  0.19442869  0.25098415  1  0.131947  5.8e-05  0.946657  0.0  0.140909  3e-05  1.005374  0.0  0.145221  9e-05  1.002133  0.0  0.114227  0.137187  -7.9e-05  1.008632  0.0
H  H9  1  0.96444352  0.80514344  0.74915740  1  0.132376  -9e-06  0.946124  0.0  0.141261  -1.4e-05  1.004933  0.0  0.145491  2.7e-05  1.001753  0.0  0.114413  0.137674  -9.3e-05  1.008088  0.0
H  H10  1  0.52347322  0.01191880  0.31065349  1  0.111684  9e-06  0.968691  0.0  0.121939  -2e-06  1.030167  0.0  0.124762  -1e-06  1.029913  0.0  0.10378  0.119941  -2.1e-05  1.030647  0.0
H  H11  1  0.47727030  0.98719157  0.68983372  1  0.11192  1.3e-05  0.969689  0.0  0.122268  -2.4e-05  1.031017  0.0  0.125126  -1.6e-05  1.030748  0.0  0.103846  0.120273  -3.7e-05  1.031467  0.0
H  H12  1  0.49461396  0.18504219  0.47804962  1  0.100428  -0.000168  0.940481  0.0  0.110478  -0.000175  1.000992  0.0  0.113793  -0.000112  0.998568  0.0  0.104098  0.107932  -0.000246  1.003002  0.0
H  H13  1  0.50563601  0.81412688  0.52215730  1  0.10038  -0.000147  0.941306  0.0  0.110392  -0.000152  1.001751  0.0  0.113768  -0.0001  0.999251  0.0  0.103518  0.107776  -0.000209  1.003807  0.0
H  H14  1  0.10701549  0.33583511  0.62313486  1  0.107274  -5.1e-05  0.970931  0.0  0.11651  5e-06  1.032801  0.0  0.120482  1.7e-05  1.029075  0.0  0.106157  0.113085  -1e-05  1.036137  0.0
H  H15  1  0.89281800  0.66455917  0.37658870  1  0.107047  -0.000177  0.970293  0.0  0.116333  -0.000218  1.03219  0.0  0.120326  -0.000163  1.028442  0.0  0.106074  0.112851  -0.000258  1.035553  0.0
H  H16  1  0.13731839  0.16148461  0.46297743  1  0.113834  -3.2e-05  0.949708  0.0  0.126297  -8.8e-05  1.006105  0.0  0.129368  -5.7e-05  1.00499  0.0  0.108476  0.124019  -0.000113  1.007185  0.0
H  H17  1  0.86310280  0.83865107  0.53716376  1  0.114083  1.7e-05  0.949407  0.0  0.126543  5e-06  1.00585  0.0  0.129611  1e-06  1.004738  0.0  0.10856  0.124254  1.7e-05  1.006957  0.0
H  H18  1  0.34579076  0.19273879  0.78611778  1  0.415313  -5.8e-05  0.862627  0.0  0.386924  -0.000394  0.936212  -0.001  0.396768  -0.000282  0.921733  0.0  0.307473  0.380543  -0.000446  0.945597  0.0
H  H19  1  0.65303306  0.80785836  0.21382019  1  0.415319  3.1e-05  0.864375  0.0  0.387096  0.000246  0.936383  0.0  0.396979  0.000127  0.921822  0.0  0.307276  0.380719  0.000319  0.945756  0.0
H  H20  1  0.46512268  0.31130940  0.76108736  1  0.440585  0.000195  0.848522  0.0  0.412991  -6.7e-05  0.907046  0.0  0.422879  8.1e-05  0.892387  0.0  0.304869  0.406205  -0.000193  0.9171  0.0
H  H21  1  0.53379225  0.68947936  0.23934625  1  0.440836  0.000385  0.848437  0.0  0.413158  0.000512  0.907246  0.0  0.423273  0.000416  0.8923  0.0  0.304346  0.406048  0.0006  0.917657  0.0
H  H22  1  0.84498910  0.46787500  0.26350880  1  0.429274  -0.000124  0.869482  0.0  0.400556  -0.000304  0.930247  0.0  0.41197  -9.1e-05  0.913508  0.0  0.296465  0.392667  -0.000535  0.941778  0.0
H  H23  1  0.15555030  0.53333820  0.73553841  1  0.429023  -1.6e-05  0.869082  0.0  0.400498  0.0001  0.929594  0.0  0.412074  3e-05  0.912616  0.0  0.29702  0.392361  0.00017  0.941485  0.0
H  H24  1  0.68338074  0.38710640  0.29675396  1  0.425851  -7.3e-05  0.82159  0.0  0.409532  -0.000374  0.878378  0.0  0.416558  -0.000154  0.871071  0.0  0.321988  0.40505  -0.000598  0.88272  0.0
H  H25  1  0.31901677  0.61216813  0.70266944  1  0.425721  0.000149  0.822696  0.0  0.408782  0.000437  0.880497  0.0  0.415886  0.000274  0.873139  0.0  0.321464  0.404197  0.000603  0.884844  0.0
H  H26  1  0.77743225  0.57275530  0.08363031  1  0.415364  0.001004  0.851024  0.002  0.392603  0.000379  0.922769  0.0  0.401065  0.000393  0.916598  0.0  0.300434  0.387132  0.000299  0.925518  0.0
H  H27  1  0.22177194  0.43118737  0.91590742  1  0.41376  0.000753  0.851963  0.001  0.391693  0.000343  0.922482  0.0  0.400062  0.00036  0.916431  0.0  0.301611  0.38649  0.000219  0.925004  0.0
C  C28  1  0.29084938  0.22575878  0.14050660  1  0.648465  0.009546  3.87903  0.015  0.609407  -0.000161  4.174664  0.001  0.649441  -0.001031  4.167218  -0.001  0.212444  0.578174  0.002169  4.180086  0.004
C  C29  1  0.70939271  0.77440264  0.86050801  1  0.650878  -0.004937  3.879355  -0.006  0.609978  -0.005278  4.175283  -0.006  0.649571  -0.003861  4.167917  -0.004  0.213349  0.578942  -0.006755  4.181285  -0.008
C  C30  1  0.19740438  0.10033234  0.15485608  1  -0.054208  -0.005723  3.784102  -0.009  -0.027433  -0.002973  4.01408  -0.005  -0.037654  -0.001827  4.037073  -0.003  -0.015169  -0.021126  -0.004467  4.001656  -0.007
C  C31  1  0.80259715  0.89958939  0.84531842  1  -0.053791  0.001037  3.783189  0.002  -0.026775  0.001274  4.013739  0.002  -0.037128  0.001445  4.037217  0.002  -0.014882  -0.020268  0.000674  4.000886  0.001
C  C32  1  0.23088107  0.98325736  0.10073691  1  -0.07712  -0.000175  3.697292  0.0  -0.116451  -0.000812  3.948541  -0.001  -0.112121  -0.000703  3.96506  -0.001  -0.080767  -0.121258  -0.002081  3.940198  -0.003
C  C33  1  0.76935628  0.01674774  0.89932662  1  -0.076833  -5.2e-05  3.698073  0.0  -0.116119  -0.001337  3.949218  -0.002  -0.111684  -0.001417  3.965769  -0.002  -0.080941  -0.121072  -0.001779  3.940856  -0.002
C  C34  1  0.13352151  0.86659630  0.10947465  1  -0.063223  0.001928  3.769036  0.003  -0.037985  0.001655  4.00548  0.003  -0.049348  0.001623  4.02826  0.002  -0.020314  -0.030867  0.000986  3.993159  0.002
C  C35  1  0.86696624  0.13328215  0.89054326  1  -0.064928  -0.004105  3.775317  -0.007  -0.039193  -0.001573  4.011345  -0.003  -0.050705  -0.000521  4.033753  -0.001  -0.020672  -0.032049  -0.002915  3.999565  -0.005
C  C36  1  0.15626352  0.74144227  0.04177033  1  0.672703  -0.011127  3.835222  -0.015  0.625428  -0.008963  4.136525  -0.012  0.667721  -0.005644  4.123874  -0.007  0.219936  0.591431  -0.013746  4.147495  -0.017
C  C37  1  0.84295402  0.25828455  0.95703724  1  0.670803  0.004116  3.839622  0.006  0.623566  -0.006483  4.142591  -0.009  0.666547  -0.006292  4.129261  -0.009  0.217949  0.588843  -0.005838  4.153744  -0.008
C  C38  1  0.00853789  0.86792855  0.17619794  1  -0.137623  -0.001461  3.667281  -0.002  -0.178519  -0.002277  3.927024  -0.003  -0.175955  -0.00204  3.943216  -0.003  -0.084601  -0.180613  -0.00106  3.918098  -0.001
C  C39  1  0.99240202  0.13184274  0.82417687  1  -0.13769  -0.000814  3.666648  -0.001  -0.178593  -0.002565  3.925829  -0.003  -0.175736  -0.002606  3.941643  -0.004  -0.084856  -0.181116  -0.001293  3.917449  -0.002
C  C40  1  0.97505114  0.98555254  0.22846038  1  0.26889  0.0008  3.758657  0.001  0.259632  0.000541  4.026914  0.001  0.266796  0.000666  4.042031  0.001  0.083385  0.254472  0.000242  4.017273  0.001
C  C41  1  0.02558372  0.01410812  0.77192799  1  0.267905  0.00034  3.757497  0.0  0.259445  0.000618  4.024884  0.001  0.266654  0.00092  4.039847  0.001  0.083732  0.254159  0.000188  4.015414  0.0
C  C42  1  0.06626282  0.10200845  0.21691004  1  -0.166217  -0.002567  3.70075  -0.003  -0.201599  -0.00318  3.951869  -0.004  -0.199632  -0.002536  3.966767  -0.003  -0.086942  -0.204003  -0.002452  3.944095  -0.003
C  C43  1  0.93370685  0.89769056  0.78323682  1  -0.164355  -0.000603  3.697937  -0.001  -0.200201  -0.002216  3.948816  -0.003  -0.198205  -0.002392  3.963853  -0.003  -0.0855  -0.202564  -0.000595  3.940841  -0.001
C  C44  1  0.83035368  0.07860252  0.37427275  1  0.290168  0.001291  3.771303  0.002  0.277371  0.000611  4.034568  0.001  0.29008  0.000495  4.049932  0.001  0.090095  0.268591  0.001091  4.024233  0.001
C  C45  1  0.17024731  0.92103058  0.62605673  1  0.290141  0.001274  3.771108  0.002  0.277105  0.000541  4.034869  0.001  0.289841  0.000418  4.050238  0.001  0.091034  0.26838  0.00093  4.024288  0.001
C  C46  1  0.65005693  0.08357349  0.38002642  1  -0.184354  -0.000886  3.738653  -0.001  -0.206451  -0.000212  3.994493  0.0  -0.213229  -0.000211  4.014268  0.0  -0.103693  -0.202033  -0.000327  3.981379  -0.001
C  C47  1  0.35046816  0.91579868  0.62029890  1  -0.184411  -0.000931  3.739235  -0.001  -0.206667  -0.000313  3.995028  0.0  -0.213575  -0.00029  4.014983  0.0  -0.103595  -0.202076  -0.000401  3.981607  -0.001
C  C48  1  0.63432160  0.18072248  0.47269704  1  -0.039211  0.001105  3.740865  0.001  -0.06266  0.000155  3.989855  0.0  -0.059567  0.000178  4.009047  0.0  -0.080422  -0.064728  0.000388  3.977385  0.0
C  C49  1  0.36593384  0.81867618  0.52743371  1  -0.039006  0.001043  3.741278  0.001  -0.062133  0.00014  3.990036  0.0  -0.059163  0.000156  4.009378  0.0  -0.079213  -0.064046  0.000397  3.977379  0.0
C  C50  1  0.79758389  0.27459438  0.55944752  1  -0.102819  -0.002039  3.798098  -0.003  -0.082167  -0.000885  4.036998  -0.001  -0.092583  -0.000618  4.059976  -0.001  -0.031744  -0.076055  -0.001243  4.022928  -0.001
C  C51  1  0.20240131  0.72514337  0.44044062  1  -0.10316  -0.001928  3.79913  -0.003  -0.082907  -0.000735  4.038419  -0.001  -0.093281  -0.000496  4.061395  0.0  -0.031655  -0.076881  -0.001  4.024277  -0.001
C  C52  1  0.97765283  0.26683895  0.55335113  1  -0.03791  0.000956  3.73189  0.001  -0.063257  0.000112  3.98185  0.0  -0.059385  0.000155  3.998942  0.0  -0.081915  -0.066043  0.00035  3.97153  0.001
C  C53  1  0.02243161  0.73320417  0.44656047  1  -0.03776  0.001075  3.73227  0.001  -0.062953  0.000175  3.982223  0.0  -0.059092  0.000163  3.999295  0.0  -0.081976  -0.065615  0.000367  3.971849  0.0
C  C54  1  0.99565940  0.16842045  0.46317556  1  -0.189303  -0.000875  3.7578  -0.001  -0.210898  -0.00033  4.014487  0.0  -0.217702  -0.000313  4.033923  0.0  -0.102556  -0.20648  -0.000429  4.001825  -0.001
C  C55  1  0.00471609  0.83153082  0.53697591  1  -0.18917  -0.000773  3.75774  -0.001  -0.210721  -0.000175  4.014531  0.0  -0.217549  -0.000199  4.033963  0.0  -0.102365  -0.206271  -0.000232  4.001768  -0.001
C  C56  1  0.78613697  0.37383677  0.66443043  1  0.64992  0.006165  3.869433  0.011  0.601308  0.002362  4.167087  0.005  0.638088  0.001972  4.161455  0.004  0.205039  0.57537  0.003123  4.169033  0.007
C  C57  1  0.21341356  0.62580697  0.33533343  1  0.650403  0.006275  3.867706  0.011  0.601907  0.002398  4.165215  0.005  0.638651  0.001956  4.159393  0.004  0.206018  0.57609  0.003167  4.167269  0.007
O  O58  1  0.39339651  0.22116000  0.07179429  1  -0.614147  -0.048282  2.104027  -0.082  -0.584729  -0.037386  2.377518  -0.06  -0.621781  -0.028519  2.366494  -0.045  -0.307266  -0.554119  -0.047793  2.383055  -0.077
O  O59  1  0.61032376  0.77983833  0.93159253  1  -0.616164  0.037515  2.0986  0.06  -0.582261  0.028086  2.368274  0.041  -0.618081  0.022687  2.355312  0.031  -0.307537  -0.55274  0.032446  2.375817  0.049
O  O60  1  0.25981223  0.32948828  0.19748614  1  -0.627711  -0.042325  2.093056  -0.071  -0.600933  -0.030897  2.364033  -0.047  -0.638535  -0.023359  2.349495  -0.033  -0.321856  -0.567831  -0.039835  2.373657  -0.062
O  O61  1  0.73812277  0.67046678  0.80223790  1  -0.630952  -0.042332  2.087757  -0.069  -0.602484  -0.033436  2.357909  -0.05  -0.63948  -0.02555  2.343205  -0.036  -0.32331  -0.570298  -0.04166  2.367803  -0.063
O  O62  1  0.26811909  0.74551704  0.98075568  1  -0.608679  0.031262  2.114125  0.049  -0.57812  0.022266  2.39028  0.03  -0.611565  0.017775  2.375036  0.022  -0.304941  -0.551587  0.025968  2.401089  0.036
O  O63  1  0.72945143  0.25435195  0.01689797  1  -0.605118  -0.049033  2.125108  -0.082  -0.575543  -0.039715  2.402731  -0.062  -0.609714  -0.029491  2.38693  -0.044  -0.30041  -0.547867  -0.05145  2.412989  -0.082
O  O64  1  0.05848017  0.63546811  0.04788694  1  -0.711345  -0.035929  2.242629  -0.055  -0.672611  -0.031257  2.531428  -0.039  -0.709986  -0.026602  2.514484  -0.031  -0.325699  -0.640853  -0.035562  2.543912  -0.046
O  O65  1  0.94079064  0.36444646  0.95149194  1  -0.709116  -0.036572  2.249616  -0.059  -0.671358  -0.030249  2.540998  -0.039  -0.708774  -0.025837  2.523408  -0.031  -0.324731  -0.639035  -0.035168  2.553477  -0.047
O  O66  1  0.83343332  0.97755696  0.28075777  1  -0.30455  0.000141  2.384268  0.0  -0.225086  0.000261  2.599695  0.0  -0.244971  0.0002  2.60268  0.0  -0.140377  -0.211505  0.000302  2.597924  0.0
O  O67  1  0.16741278  0.02200568  0.71979097  1  -0.305522  7.8e-05  2.383572  0.0  -0.226207  0.000112  2.598988  0.0  -0.246071  0.000138  2.601916  0.0  -0.142427  -0.212309  7e-05  2.596867  0.0
O  O68  1  0.63746235  0.36567801  0.69339343  1  -0.630218  -0.032739  1.978865  -0.059  -0.588101  -0.025942  2.215366  -0.044  -0.620771  -0.020521  2.202401  -0.035  -0.307599  -0.562108  -0.031293  2.223383  -0.053
O  O69  1  0.36222970  0.63311560  0.30659867  1  -0.629131  -0.032524  1.974698  -0.058  -0.587086  -0.025764  2.21156  -0.044  -0.619724  -0.020293  2.198972  -0.034  -0.308113  -0.560907  -0.031458  2.218482  -0.053
O  O70  1  0.93288220  0.46686596  0.73381944  1  -0.635508  -0.033224  2.034467  -0.055  -0.584876  -0.02586  2.281136  -0.041  -0.619967  -0.020704  2.269249  -0.033  -0.309083  -0.557374  -0.030353  2.288049  -0.048
O  O71  1  0.06596383  0.53339453  0.26562407  1  -0.636943  -0.032703  2.039106  -0.055  -0.585971  -0.025407  2.285085  -0.041  -0.620764  -0.020379  2.273082  -0.033  -0.308867  -0.558977  -0.029519  2.292499  -0.047
O  O72  1  0.67524413  0.52826917  0.99774834  1  -0.943035  -0.049676  2.029476  -0.083  -0.938463  -0.036481  2.351787  -0.053  -0.996849  -0.029012  2.32661  -0.04  -0.555734  -0.885844  -0.044937  2.366267  -0.068
O  O73  1  0.32421624  0.47376634  0.00236998  1  -0.941934  -0.040244  2.029708  -0.069  -0.935768  -0.030031  2.350491  -0.046  -0.993658  -0.023878  2.323972  -0.036  -0.556533  -0.88387  -0.035654  2.365379  -0.055
O  O74  1  0.38726704  0.28713452  0.81157940  1  -0.814304  -0.020939  1.921296  -0.038  -0.775554  -0.019448  2.123683  -0.03  -0.79677  -0.016469  2.088108  -0.025  -0.561853  -0.759845  -0.022334  2.148728  -0.035
O  O75  1  0.61149187  0.71348960  0.18870851  1  -0.815261  0.020969  1.920247  0.037  -0.776831  0.018903  2.121267  0.029  -0.79835  0.016265  2.085612  0.025  -0.56219  -0.759791  0.02144  2.145427  0.034
O  O76  1  0.70333802  0.44444377  0.24085630  1  -0.810129  -0.023215  1.90686  -0.042  -0.778202  -0.021032  2.096567  -0.034  -0.798994  -0.017574  2.063974  -0.028  -0.561517  -0.762012  -0.024342  2.118079  -0.039
O  O77  1  0.29719986  0.55504265  0.75824478  1  -0.810258  0.022232  1.908773  0.039  -0.778453  0.019547  2.09904  0.031  -0.799544  0.016619  2.066577  0.026  -0.561246  -0.761275  0.022357  2.120073  0.035
