# generated using pymatgen
data_SmH15(C3O2)6
_symmetry_space_group_name_H-M   'P 1'
_cell_length_a   8.17468578
_cell_length_b   9.96933415
_cell_length_c   12.60932491
_cell_angle_alpha   92.41709369
_cell_angle_beta   96.05393705
_cell_angle_gamma   93.06420660
_symmetry_Int_Tables_number   1
_chemical_formula_structural   SmH15(C3O2)6
_chemical_formula_sum   'Sm2 H30 C36 O24'
_cell_volume   1019.23629254
_cell_formula_units_Z   2
loop_
 _symmetry_equiv_pos_site_id
 _symmetry_equiv_pos_as_xyz
  1  'x, y, z'
loop_
 _atom_site_type_symbol
 _atom_site_label
 _atom_site_symmetry_multiplicity
 _atom_site_fract_x
 _atom_site_fract_y
 _atom_site_fract_z
 _atom_site_occupancy
 _atom_site_pbe_bader_spin_density
 _atom_site_pbe_cm5_charge
 _atom_site_pbe_ddec_charge
 _atom_site_pbe_ddec_spin_density
 _atom_site_pbe_ddec_sum_bond_order
 _atom_site_pbe_magmom
Sm  Sm0  1  0.41583618  0.60978096  0.67429260  1  0  1.484085  2.093927  0  2.104413  0
Sm  Sm1  1  0.58416310  0.39021878  0.32570623  1  0  1.48408  2.093967  0  2.10432  0
H  H2  1  0.48236020  0.08852494  0.72749580  1  0  0.111333  0.122168  0  1.056101  0
H  H3  1  0.51764409  0.91147583  0.27250495  1  0  0.111336  0.122195  0  1.056098  0
H  H4  1  0.27743249  0.33449340  0.96377105  1  0  0.112684  0.128857  0  1.000954  0
H  H5  1  0.72256932  0.66550735  0.03622797  1  0  0.112681  0.128869  0  1.000936  0
H  H6  1  0.27331917  0.90147610  0.98454825  1  0  0.112771  0.129831  0  1.009157  0
H  H7  1  0.72667869  0.09852066  0.01545278  1  0  0.112782  0.129849  0  1.009123  0
H  H8  1  0.26594457  0.97339418  0.16628505  1  0  0.107999  0.085497  0  1.001673  0
H  H9  1  0.73406008  0.02661162  0.83371586  1  0  0.10798  0.085424  0  1.001668  0
H  H10  1  0.07647228  0.95104930  0.08007206  1  0  0.105112  0.072807  0  0.994277  0
H  H11  1  0.92352979  0.04895451  0.91993102  1  0  0.105112  0.0728  0  0.994311  0
H  H12  1  0.13507530  0.12700532  0.28835248  1  0  0.109932  0.088884  0  0.985136  0
H  H13  1  0.86492899  0.87299546  0.71164907  1  0  0.109963  0.08891  0  0.985075  0
H  H14  1  0.95027332  0.11916984  0.19712915  1  0  0.1025  0.075103  0  1.009491  0
H  H15  1  0.04973114  0.88083295  0.80287325  1  0  0.102488  0.075091  0  1.009483  0
H  H16  1  0.91234737  0.72229816  0.34547975  1  0  0.113724  0.126567  0  0.992417  0
H  H17  1  0.08764798  0.27769855  0.65451715  1  0  0.113733  0.12655  0  0.99252  0
H  H18  1  0.63846095  0.90409030  0.58262566  1  0  0.113416  0.12736  0  1.041296  0
H  H19  1  0.36153947  0.09590843  0.41737242  1  0  0.113403  0.127349  0  1.041295  0
H  H20  1  0.60803054  0.24280905  0.65458044  1  0  0.310572  0.379476  0  0.944954  0
H  H21  1  0.39196766  0.75719272  0.34541916  1  0  0.310598  0.379522  0  0.944875  0
H  H22  1  0.89055765  0.15338481  0.37235148  1  0  0.113846  0.124857  0  1.043437  0
H  H23  1  0.10944640  0.84661293  0.62764839  1  0  0.113844  0.124838  0  1.043414  0
H  H24  1  0.08691347  0.59740539  0.75849099  1  0  0.339192  0.427518  0  0.84955  0
H  H25  1  0.91308685  0.40259138  0.24151099  1  0  0.339155  0.427494  0  0.849597  0
H  H26  1  0.06264895  0.53485550  0.64112677  1  0  0.32998  0.424469  0  0.866522  0
H  H27  1  0.93734890  0.46514126  0.35887426  1  0  0.329997  0.424499  0  0.866484  0
H  H28  1  0.70845357  0.70474357  0.84168431  1  0  0.306288  0.388108  0  0.943823  0
H  H29  1  0.29154448  0.29525618  0.15831443  1  0  0.306298  0.388126  0  0.943799  0
H  H30  1  0.60849909  0.57813121  0.87436772  1  0  0.32182  0.403934  0  0.89353  0
H  H31  1  0.39149789  0.42187057  0.12563259  1  0  0.321788  0.403886  0  0.893552  0
C  C32  1  0.40521878  0.85161975  0.80070761  1  0  0.182328  0.550262  0  4.269379  0
C  C33  1  0.59478058  0.14838102  0.19929203  1  0  0.182362  0.550317  0  4.269284  0
C  C34  1  0.38039903  0.98545822  0.85224413  1  0  -0.018222  -0.007849  0  3.994745  0
C  C35  1  0.61960026  0.01454154  0.14775629  1  0  -0.018216  -0.007829  0  3.994787  0
C  C36  1  0.42642132  0.10067924  0.80136154  1  0  -0.085227  -0.135489  0  3.946589  0
C  C37  1  0.57357681  0.89932153  0.19863803  1  0  -0.085258  -0.135621  0  3.946726  0
C  C38  1  0.39093984  0.22685034  0.84240390  1  0  -0.015609  -0.007456  0  3.980752  0
C  C39  1  0.60905697  0.77314940  0.15759397  1  0  -0.01557  -0.007387  0  3.980725  0
C  C40  1  0.42546393  0.35248167  0.78579003  1  0  0.205517  0.583164  0  4.199649  0
C  C41  1  0.57453426  0.64752009  0.21420877  1  0  0.205468  0.58319  0  4.199592  0
C  C42  1  0.31168140  0.23640163  0.93516178  1  0  -0.085079  -0.188231  0  3.911417  0
C  C43  1  0.68832281  0.76359814  0.06483895  1  0  -0.085085  -0.188275  0  3.911391  0
C  C44  1  0.27224811  0.12069307  0.98837687  1  0  0.081507  0.244465  0  4.060947  0
C  C45  1  0.72775844  0.87930471  0.01162633  1  0  0.081553  0.244557  0  4.060806  0
C  C46  1  0.30472616  0.99409359  0.94670935  1  0  -0.090801  -0.213753  0  3.949117  0
C  C47  1  0.69527306  0.00590518  0.05329183  1  0  -0.090869  -0.213822  0  3.949054  0
C  C48  1  0.15438029  0.02221056  0.13541453  1  0  -0.064505  0.005275  0  3.86364  0
C  C49  1  0.84562170  0.97779224  0.86458772  1  0  -0.064505  0.005311  0  3.863489  0
C  C50  1  0.05803036  0.06405425  0.22642944  1  0  -0.065654  -0.002994  0  3.864094  0
C  C51  1  0.94197149  0.93594654  0.77357275  1  0  -0.06563  -0.002879  0  3.863886  0
C  C52  1  0.91381665  0.93813436  0.35000916  1  0  0.085261  0.254252  0  4.088167  0
C  C53  1  0.08618126  0.06186338  0.64999032  1  0  0.085253  0.254273  0  4.088117  0
C  C54  1  0.87041925  0.81111917  0.38520820  1  0  -0.084014  -0.183615  0  3.926739  0
C  C55  1  0.12957994  0.18887957  0.61478980  1  0  -0.08402  -0.183659  0  3.926774  0
C  C56  1  0.77137726  0.79776683  0.46814643  1  0  -0.014876  -0.029403  0  3.963069  0
C  C57  1  0.22862557  0.20223091  0.53185336  1  0  -0.014882  -0.029363  0  3.962996  0
C  C58  1  0.71742289  0.65834887  0.49701570  1  0  0.240973  0.667838  0  4.149194  0
C  C59  1  0.28257513  0.34165086  0.50298146  1  0  0.240957  0.667861  0  4.149243  0
C  C60  1  0.71642032  0.91314473  0.51804260  1  0  -0.083163  -0.134711  0  3.911486  0
C  C61  1  0.28357881  0.08685300  0.48195616  1  0  -0.083106  -0.134681  0  3.911446  0
C  C62  1  0.75971132  0.03969406  0.48170192  1  0  -0.013899  -0.027695  0  3.996081  0
C  C63  1  0.24029037  0.96030471  0.51829941  1  0  -0.013934  -0.027717  0  3.996217  0
C  C64  1  0.70181553  0.16563651  0.52867544  1  0  0.256268  0.634669  0  4.058353  0
C  C65  1  0.29817760  0.83436324  0.47132299  1  0  0.256247  0.634656  0  4.058653  0
C  C66  1  0.85808118  0.05322774  0.39766509  1  0  -0.088351  -0.215051  0  3.943028  0
C  C67  1  0.14191680  0.94677101  0.60233442  1  0  -0.088353  -0.215005  0  3.943102  0
O  O68  1  0.33502528  0.74542300  0.83234730  1  0  -0.381582  -0.628971  0  2.18581  0
O  O69  1  0.66497293  0.25457878  0.16765309  1  0  -0.38159  -0.628995  0  2.18582  0
O  O70  1  0.49282381  0.84687093  0.72231174  1  0  -0.3886  -0.638184  0  2.260873  0
O  O71  1  0.50717555  0.15312984  0.27768870  1  0  -0.388616  -0.638202  0  2.260861  0
O  O72  1  0.51726868  0.35543105  0.70944064  1  0  -0.323453  -0.600992  0  2.235068  0
O  O73  1  0.48272712  0.64457171  0.29055725  1  0  -0.323411  -0.600969  0  2.234996  0
O  O74  1  0.35818269  0.45867896  0.81535461  1  0  -0.394613  -0.655662  0  2.229032  0
O  O75  1  0.64181537  0.54132081  0.18464572  1  0  -0.394591  -0.655697  0  2.229032  0
O  O76  1  0.19837998  0.14065433  0.08089199  1  0  -0.178473  -0.214211  0  2.556997  0
O  O77  1  0.80162071  0.85934746  0.91911015  1  0  -0.178468  -0.214231  0  2.556958  0
O  O78  1  0.00785347  0.93823171  0.26716616  1  0  -0.177975  -0.197904  0  2.573002  0
O  O79  1  0.99214712  0.06176905  0.73283357  1  0  -0.177995  -0.197992  0  2.573025  0
O  O80  1  0.75185226  0.55969672  0.43727417  1  0  -0.399329  -0.696882  0  2.304637  0
O  O81  1  0.24814467  0.44030501  0.56272139  1  0  -0.399291  -0.696837  0  2.304651  0
O  O82  1  0.63769532  0.64488825  0.57729891  1  0  -0.416078  -0.6835  0  2.322453  0
O  O83  1  0.36230488  0.35510747  0.42269907  1  0  -0.416073  -0.683515  0  2.322475  0
O  O84  1  0.69668839  0.27151202  0.47970970  1  0  -0.357155  -0.612026  0  2.298677  0
O  O85  1  0.30331184  0.72848372  0.52029066  1  0  -0.357171  -0.612044  0  2.298686  0
O  O86  1  0.65891387  0.15738436  0.62604647  1  0  -0.309325  -0.462486  0  2.351708  0
O  O87  1  0.34108807  0.84261746  0.37395733  1  0  -0.309339  -0.462532  0  2.351938  0
O  O88  1  0.10329675  0.61549880  0.68488948  1  0  -0.594107  -0.792224  0  2.023813  0
O  O89  1  0.89670474  0.38449697  0.31511335  1  0  -0.594081  -0.792224  0  2.023806  0
O  O90  1  0.66105139  0.61500037  0.81512977  1  0  -0.617028  -0.81004  0  2.042089  0
O  O91  1  0.33894674  0.38500041  0.18487060  1  0  -0.617009  -0.810017  0  2.042082  0
