# generated using pymatgen
data_CdH14C20N3O4
_symmetry_space_group_name_H-M   'P 1'
_cell_length_a   11.22689509
_cell_length_b   11.22685538
_cell_length_c   18.72425974
_cell_angle_alpha   94.06603624
_cell_angle_beta   94.06580642
_cell_angle_gamma   114.66065122
_symmetry_Int_Tables_number   1
_chemical_formula_structural   CdH14C20N3O4
_chemical_formula_sum   'Cd4 H56 C80 N12 O16'
_cell_volume   2126.22404251
_cell_formula_units_Z   4
loop_
 _symmetry_equiv_pos_site_id
 _symmetry_equiv_pos_as_xyz
  1  'x, y, z'
loop_
 _atom_site_type_symbol
 _atom_site_label
 _atom_site_symmetry_multiplicity
 _atom_site_fract_x
 _atom_site_fract_y
 _atom_site_fract_z
 _atom_site_occupancy
 _atom_site_pbe_bader_charge
 _atom_site_pbe_bader_spin_density
 _atom_site_pbe_cm5_charge
 _atom_site_pbe_ddec_charge
 _atom_site_pbe_ddec_spin_density
 _atom_site_pbe_ddec_sum_bond_order
 _atom_site_pbe_magmom
Cd  Cd0  1  0.86905766  0.63493776  0.08965337  1  1.238221  0  0.764503  0.83937  0  2.192965  0
Cd  Cd1  1  0.36505976  0.13094238  0.41034985  1  1.238228  0  0.764509  0.839352  0  2.192982  0
Cd  Cd2  1  0.13094181  0.36506048  0.91034754  1  1.238221  0  0.764488  0.839295  0  2.19304  0
Cd  Cd3  1  0.63493973  0.86905588  0.58965213  1  1.238193  0  0.764497  0.839364  0  2.192906  0
H  H4  1  0.56876440  0.85443778  0.42180971  1  0.130632  0  0.113565  0.082176  0  1.032627  0
H  H5  1  0.14555990  0.43122969  0.07818801  1  0.130603  0  0.113541  0.082152  0  1.03267  0
H  H6  1  0.43123508  0.14556404  0.57819188  1  0.130641  0  0.113562  0.082155  0  1.032629  0
H  H7  1  0.85444157  0.56876673  0.92181451  1  0.130641  0  0.11354  0.08217  0  1.032637  0
H  H8  1  0.40565556  0.71342635  0.31945718  1  0.109076  0  0.105495  0.11359  0  1.043031  0
H  H9  1  0.28656737  0.59433699  0.18054248  1  0.109297  0  0.105516  0.113651  0  1.042987  0
H  H10  1  0.59434785  0.28657356  0.68054342  1  0.109092  0  0.105487  0.113596  0  1.043056  0
H  H11  1  0.71343311  0.40566080  0.81945952  1  0.109286  0  0.10549  0.113635  0  1.04302  0
H  H12  1  0.23824138  0.41893572  0.46486756  1  0.076649  0  0.109366  0.11749  0  1.005155  0
H  H13  1  0.58105947  0.76175740  0.03513172  1  0.076672  0  0.109363  0.117483  0  1.005206  0
H  H14  1  0.76176202  0.58106060  0.53513130  1  0.076636  0  0.109355  0.117473  0  1.005185  0
H  H15  1  0.41893600  0.23824179  0.96486586  1  0.076752  0  0.109367  0.117493  0  1.00516  0
H  H16  1  0.41354803  0.57015978  0.56081959  1  0.108108  0  0.124315  0.104331  0  0.968895  0
H  H17  1  0.42983725  0.58645235  0.93917944  1  0.108105  0  0.124299  0.104298  0  0.96887  0
H  H18  1  0.58645145  0.42983846  0.43918132  1  0.108149  0  0.124323  0.104332  0  0.968892  0
H  H19  1  0.57015630  0.41354426  0.06082117  1  0.108046  0  0.124285  0.104269  0  0.968924  0
H  H20  1  0.16230232  0.63339021  0.29285689  1  0.106975  0  0.10721  0.115175  0  1.011828  0
H  H21  1  0.36660938  0.83769339  0.20714331  1  0.10693  0  0.107209  0.115145  0  1.0119  0
H  H22  1  0.83769909  0.36661062  0.70714207  1  0.107343  0  0.107184  0.115142  0  1.011897  0
H  H23  1  0.63339308  0.16230434  0.79285876  1  0.106827  0  0.107235  0.115193  0  1.01173  0
H  H24  1  0.94746738  0.26600578  0.16089643  1  0.109287  0  0.10088  0.097654  0  1.055195  0
H  H25  1  0.73398932  0.05253623  0.33910152  1  0.109351  0  0.10088  0.097694  0  1.055196  0
H  H26  1  0.05253699  0.73399274  0.83910255  1  0.109316  0  0.100858  0.097671  0  1.055233  0
H  H27  1  0.26600816  0.94746741  0.66089899  1  0.109356  0  0.100878  0.0977  0  1.055228  0
H  H28  1  0.05838037  0.15871380  0.23682700  1  0.095799  0  0.110245  0.117343  0  0.98406  0
H  H29  1  0.84128240  0.94162475  0.26317141  1  0.095767  0  0.110248  0.117319  0  0.984008  0
H  H30  1  0.94162497  0.84128424  0.76317093  1  0.095755  0  0.110247  0.117339  0  0.984  0
H  H31  1  0.15871700  0.05838682  0.73682628  1  0.095844  0  0.110212  0.117364  0  0.983989  0
H  H32  1  0.19568823  0.73464633  0.06433560  1  0.130903  0  0.132998  0.098221  0  1.02068  0
H  H33  1  0.26534333  0.80431024  0.43566547  1  0.131079  0  0.132968  0.098203  0  1.020677  0
H  H34  1  0.80431418  0.26535137  0.93566381  1  0.130932  0  0.132982  0.098172  0  1.020737  0
H  H35  1  0.73464825  0.19568464  0.56433500  1  0.130952  0  0.13298  0.09816  0  1.020752  0
H  H36  1  0.16868990  0.00463040  0.92250445  1  0.193528  0  0.119229  0.134507  0  1.054625  0
H  H37  1  0.99537211  0.83131753  0.57750218  1  0.193339  0  0.119246  0.134512  0  1.054669  0
H  H38  1  0.83130756  0.99536517  0.07749360  1  0.19382  0  0.119228  0.134508  0  1.054636  0
H  H39  1  0.00463237  0.16869094  0.42250574  1  0.193831  0  0.119209  0.134473  0  1.054656  0
H  H40  1  0.92079041  0.84779734  0.95867658  1  0.128228  0  0.12187  0.114428  0  0.990622  0
H  H41  1  0.15220841  0.07921786  0.54132871  1  0.128265  0  0.121924  0.114513  0  0.990537  0
H  H42  1  0.07920907  0.15219911  0.04132426  1  0.128228  0  0.121883  0.114494  0  0.990609  0
H  H43  1  0.84780094  0.92078995  0.45867457  1  0.128192  0  0.121897  0.114486  0  0.990655  0
H  H44  1  0.38443839  0.02884728  0.10298396  1  0.082886  0  0.114473  0.130376  0  0.981793  0
H  H45  1  0.97114929  0.61556226  0.39701697  1  0.083101  0  0.1145  0.130377  0  0.981804  0
H  H46  1  0.61556002  0.97115314  0.89701219  1  0.082835  0  0.114459  0.130344  0  0.981799  0
H  H47  1  0.02885022  0.38443781  0.60298668  1  0.082857  0  0.114479  0.130373  0  0.981761  0
H  H48  1  0.27041130  0.74510720  0.87693824  1  0.116931  0  0.09413  0.148595  0  1.034058  0
H  H49  1  0.25489547  0.72958855  0.62305868  1  0.116847  0  0.094121  0.148589  0  1.034022  0
H  H50  1  0.72959005  0.25489536  0.12305704  1  0.11686  0  0.094163  0.148633  0  1.034052  0
H  H51  1  0.74510796  0.27041138  0.37694299  1  0.116893  0  0.094165  0.148605  0  1.034101  0
H  H52  1  0.41259842  0.82020884  0.83060915  1  0.052493  0  0.098  0.144875  0  0.974567  0
H  H53  1  0.17979267  0.58740022  0.66938867  1  0.05244  0  0.098001  0.144885  0  0.974531  0
H  H54  1  0.58740294  0.17979373  0.16938667  1  0.052504  0  0.097998  0.144858  0  0.974583  0
H  H55  1  0.82020681  0.41259446  0.33061210  1  0.052519  0  0.097936  0.144777  0  0.9747  0
H  H56  1  0.29820932  0.89042944  0.83582781  1  0.060148  0  0.090181  0.129237  0  1.027653  0
H  H57  1  0.10957391  0.70179188  0.66417200  1  0.060189  0  0.090192  0.129242  0  1.027641  0
H  H58  1  0.70179205  0.10957135  0.16416847  1  0.060176  0  0.090201  0.129259  0  1.027637  0
H  H59  1  0.89042954  0.29820718  0.33583124  1  0.060168  0  0.090193  0.129242  0  1.027625  0
C  C60  1  0.49468104  0.75649798  0.42888623  1  0.399705  0  0.042869  0.088574  0  3.966245  0
C  C61  1  0.24350152  0.50531613  0.07111272  1  0.399648  0  0.042902  0.088581  0  3.966373  0
C  C62  1  0.50532041  0.24350378  0.57111543  1  0.399688  0  0.042948  0.088695  0  3.966204  0
C  C63  1  0.75649896  0.49468165  0.92888928  1  0.399553  0  0.042953  0.088691  0  3.966218  0
C  C64  1  0.40207142  0.67819987  0.37227997  1  0.001362  0  -0.082212  -0.169445  0  3.926186  0
C  C65  1  0.32179735  0.59792584  0.12771678  1  0.001699  0  -0.082223  -0.169522  0  3.926327  0
C  C66  1  0.59793199  0.32179914  0.62772006  1  0.001829  0  -0.082262  -0.169563  0  3.926226  0
C  C67  1  0.67820310  0.40207370  0.87228369  1  0.00176  0  -0.082201  -0.169548  0  3.92628  0
C  C68  1  0.30665310  0.55371516  0.38332966  1  -0.023941  0  0.019021  0.124796  0  3.976308  0
C  C69  1  0.44627926  0.69334257  0.11667008  1  -0.024173  0  0.019047  0.124833  0  3.976623  0
C  C70  1  0.69334637  0.44628575  0.61667082  1  -0.024271  0  0.019071  0.12486  0  3.97646  0
C  C71  1  0.55371922  0.30665793  0.88333088  1  -0.024197  0  0.018976  0.124781  0  3.976571  0
C  C72  1  0.31054420  0.51386334  0.45255024  1  -0.040048  0  -0.080128  -0.170537  0  3.940372  0
C  C73  1  0.48613419  0.68945470  0.04744756  1  -0.040237  0  -0.080131  -0.17049  0  3.940188  0
C  C74  1  0.68945921  0.48613478  0.54744975  1  -0.0402  0  -0.080164  -0.170535  0  3.940468  0
C  C75  1  0.51386326  0.31054533  0.95255014  1  -0.040158  0  -0.080118  -0.170512  0  3.940282  0
C  C76  1  0.40699161  0.59763568  0.50637170  1  0.522928  0  0.049152  0.097214  0  3.949287  0
C  C77  1  0.40236114  0.59300615  0.99362619  1  0.523147  0  0.049171  0.097238  0  3.949029  0
C  C78  1  0.59300784  0.40236164  0.49362757  1  0.523236  0  0.049161  0.097205  0  3.949187  0
C  C79  1  0.59763438  0.40699130  0.00637400  1  0.523009  0  0.0492  0.097295  0  3.949103  0
C  C80  1  0.20648775  0.47172880  0.32337282  1  0.023499  0  -0.005683  0.029241  0  3.970354  0
C  C81  1  0.52826518  0.79350671  0.17662634  1  0.02352  0  -0.005794  0.029046  0  3.970571  0
C  C82  1  0.79351365  0.52827113  0.67662556  1  0.023582  0  -0.005716  0.02918  0  3.970444  0
C  C83  1  0.47173425  0.20649328  0.82337197  1  0.02333  0  -0.005742  0.029122  0  3.970452  0
C  C84  1  0.14150564  0.52952786  0.28112097  1  -0.077871  0  -0.079977  -0.145755  0  3.948583  0
C  C85  1  0.47046701  0.85849469  0.21887753  1  -0.077854  0  -0.079997  -0.145656  0  3.948393  0
C  C86  1  0.85849873  0.47047066  0.71887801  1  -0.078215  0  -0.079955  -0.145687  0  3.948495  0
C  C87  1  0.52953043  0.14151069  0.78112038  1  -0.078035  0  -0.080025  -0.14572  0  3.948602  0
C  C88  1  0.04900155  0.45601580  0.22259509  1  0.005013  0  -0.017703  -0.028055  0  3.989991  0
C  C89  1  0.54398198  0.95099881  0.27740408  1  0.004795  0  -0.017646  -0.028042  0  3.990051  0
C  C90  1  0.95100182  0.54398318  0.77740280  1  0.004819  0  -0.017705  -0.028036  0  3.990107  0
C  C91  1  0.45602044  0.04900605  0.72259721  1  0.005274  0  -0.0177  -0.028075  0  3.98994  0
C  C92  1  0.01881876  0.32205454  0.20683445  1  -0.042797  0  -0.082567  -0.092144  0  3.984178  0
C  C93  1  0.67794106  0.98118104  0.29316342  1  -0.042695  0  -0.082606  -0.092256  0  3.98428  0
C  C94  1  0.98118460  0.67794354  0.79316287  1  -0.042832  0  -0.082545  -0.092215  0  3.984222  0
C  C95  1  0.32205542  0.01882216  0.70683596  1  -0.042942  0  -0.082548  -0.092238  0  3.984188  0
C  C96  1  0.08082240  0.26282814  0.24900512  1  -0.077062  0  -0.084383  -0.110615  0  3.981537  0
C  C97  1  0.73716648  0.91917794  0.25099260  1  -0.077045  0  -0.084314  -0.110487  0  3.981462  0
C  C98  1  0.91917802  0.73716959  0.75099314  1  -0.077121  0  -0.084339  -0.110503  0  3.981369  0
C  C99  1  0.26283293  0.08083007  0.74900549  1  -0.077095  0  -0.08428  -0.11049  0  3.981429  0
C  C100  1  0.17576628  0.33690193  0.30668468  1  -0.058114  0  -0.001815  -0.035072  0  3.916867  0
C  C101  1  0.66309316  0.82423262  0.19331458  1  -0.058301  0  -0.001768  -0.034989  0  3.916844  0
C  C102  1  0.82423708  0.66309793  0.69331271  1  -0.058291  0  -0.001829  -0.035146  0  3.916884  0
C  C103  1  0.33690818  0.17577798  0.80668155  1  -0.058071  0  -0.001813  -0.035105  0  3.916814  0
C  C104  1  0.24681523  0.27016119  0.34649729  1  1.573428  0  0.186796  0.555268  0  4.268167  0
C  C105  1  0.72983725  0.75318205  0.15350455  1  1.573492  0  0.186742  0.555177  0  4.26806  0
C  C106  1  0.75318520  0.72983923  0.65350214  1  1.573579  0  0.186831  0.555316  0  4.267968  0
C  C107  1  0.27016319  0.24682105  0.84649552  1  1.573521  0  0.18674  0.555187  0  4.26808  0
C  C108  1  0.98644849  0.52124729  0.17550312  1  1.568695  0  0.181741  0.544975  0  4.246771  0
C  C109  1  0.47874655  0.01355099  0.32449487  1  1.568248  0  0.181654  0.544812  0  4.246583  0
C  C110  1  0.01355195  0.47875045  0.82449621  1  1.568715  0  0.181675  0.544803  0  4.246902  0
C  C111  1  0.52125092  0.98645086  0.67550504  1  1.568847  0  0.18167  0.544876  0  4.246726  0
C  C112  1  0.15226343  0.78413485  0.03064637  1  1.024086  0  0.150011  0.118403  0  3.894164  0
C  C113  1  0.21586013  0.84773678  0.46935561  1  1.024  0  0.15008  0.118414  0  3.894021  0
C  C114  1  0.84773701  0.21586111  0.96935289  1  1.024162  0  0.150046  0.11855  0  3.894163  0
C  C115  1  0.78413737  0.15226331  0.53064583  1  1.024158  0  0.150093  0.118648  0  3.89407  0
C  C116  1  0.13691915  0.92341246  0.95571783  1  0.261573  0  0.004226  -0.095967  0  3.87365  0
C  C117  1  0.07658620  0.86308619  0.54428378  1  0.261654  0  0.004312  -0.095945  0  3.873876  0
C  C118  1  0.86307732  0.07658000  0.04427900  1  0.261105  0  0.004274  -0.095781  0  3.87354  0
C  C119  1  0.92341822  0.13692221  0.45571986  1  0.261319  0  0.004281  -0.095737  0  3.8736  0
C  C120  1  0.01451147  0.84546597  0.97445102  1  0.382077  0  0.00251  -0.02578  0  4.004675  0
C  C121  1  0.15453307  0.98548867  0.52555365  1  0.381992  0  0.002452  -0.025846  0  4.004758  0
C  C122  1  0.98548504  0.15452833  0.02554908  1  0.382117  0  0.002452  -0.026015  0  4.004744  0
C  C123  1  0.84547138  0.01451260  0.47445024  1  0.381968  0  0.002415  -0.026035  0  4.004834  0
C  C124  1  0.36448196  0.94202256  0.99433575  1  0.299505  0  0.088965  0.094867  0  3.997115  0
C  C125  1  0.05797493  0.63551889  0.50566380  1  0.299532  0  0.088944  0.094793  0  3.99716  0
C  C126  1  0.63551646  0.05797609  0.00566087  1  0.299491  0  0.088958  0.094868  0  3.997409  0
C  C127  1  0.94202458  0.36448296  0.49433993  1  0.299326  0  0.08894  0.094904  0  3.997393  0
C  C128  1  0.42481958  0.92268021  0.93408537  1  0.084017  0  -0.003062  0.117375  0  3.985171  0
C  C129  1  0.07731810  0.57517926  0.56591564  1  0.084036  0  -0.003043  0.117514  0  3.98507  0
C  C130  1  0.57517887  0.07731579  0.06591275  1  0.084267  0  -0.003035  0.117397  0  3.98528  0
C  C131  1  0.92267942  0.42482174  0.43408690  1  0.084204  0  -0.002963  0.117437  0  3.985164  0
C  C132  1  0.43716994  0.01669796  0.05827167  1  -0.088447  0  -0.086599  -0.220425  0  3.976661  0
C  C133  1  0.98329834  0.56283060  0.44173024  1  -0.088686  0  -0.086661  -0.220481  0  3.976841  0
C  C134  1  0.56282750  0.98330295  0.94172553  1  -0.08841  0  -0.086511  -0.220324  0  3.976892  0
C  C135  1  0.01670015  0.43717437  0.55827196  1  -0.088333  0  -0.086576  -0.220455  0  3.976998  0
C  C136  1  0.34746772  0.83981767  0.86592711  1  -0.101427  0  -0.242533  -0.421812  0  3.941116  0
C  C137  1  0.16018267  0.65253476  0.63407251  1  -0.101328  0  -0.242528  -0.421846  0  3.941028  0
C  C138  1  0.65253465  0.16018177  0.13407022  1  -0.101415  0  -0.242626  -0.4219  0  3.941216  0
C  C139  1  0.83981682  0.34746528  0.36592954  1  -0.101367  0  -0.242582  -0.421767  0  3.941284  0
N  N140  1  0.49763152  0.71719976  0.49495911  1  -1.234445  0  -0.333174  -0.248041  0  3.526769  0
N  N141  1  0.28279635  0.50236445  0.00504014  1  -1.234482  0  -0.333187  -0.248006  0  3.526686  0
N  N142  1  0.50236700  0.28279899  0.50504391  1  -1.234557  0  -0.333216  -0.248053  0  3.526631  0
N  N143  1  0.71720017  0.49763164  0.99496111  1  -1.234455  0  -0.333242  -0.248131  0  3.526704  0
N  N144  1  0.22358158  0.88332383  0.99210090  1  -1.256572  0  -0.225772  0.010921  0  3.794889  0
N  N145  1  0.11667154  0.77642035  0.50790191  1  -1.256464  0  -0.225811  0.010998  0  3.794758  0
N  N146  1  0.77641588  0.11667174  0.00789663  1  -1.256411  0  -0.225821  0.010766  0  3.794872  0
N  N147  1  0.88332696  0.22358375  0.49210133  1  -1.256611  0  -0.225814  0.010687  0  3.79503  0
N  N148  1  0.02535918  0.75896467  0.02066916  1  -1.243139  0  -0.35743  -0.294501  0  3.541405  0
N  N149  1  0.24103458  0.97464459  0.47933325  1  -1.243218  0  -0.357492  -0.294539  0  3.541294  0
N  N150  1  0.97464028  0.24103177  0.97933061  1  -1.243274  0  -0.357389  -0.294438  0  3.541331  0
N  N151  1  0.75896785  0.02535849  0.52066851  1  -1.243103  0  -0.357423  -0.294483  0  3.541334  0
O  O152  1  0.37027716  0.31118571  0.34508478  1  -1.148784  0  -0.334059  -0.543846  0  2.121422  0
O  O153  1  0.68881349  0.62972071  0.15492023  1  -1.148879  0  -0.334044  -0.543812  0  2.121298  0
O  O154  1  0.62972329  0.68881294  0.65491565  1  -1.148775  0  -0.334041  -0.543826  0  2.121401  0
O  O155  1  0.31118397  0.37028648  0.84507936  1  -1.148978  0  -0.33402  -0.543828  0  2.121216  0
O  O156  1  0.17699844  0.17197617  0.37878221  1  -1.162231  0  -0.333593  -0.557741  0  2.166607  0
O  O157  1  0.82801759  0.82299570  0.12121715  1  -1.162213  0  -0.333577  -0.557713  0  2.166599  0
O  O158  1  0.82300596  0.82802327  0.62121841  1  -1.162238  0  -0.333617  -0.557763  0  2.166525  0
O  O159  1  0.17198280  0.17700736  0.87877971  1  -1.162143  0  -0.333553  -0.557625  0  2.16668  0
O  O160  1  0.01641799  0.64353166  0.19058957  1  -1.162081  0  -0.342469  -0.548167  0  2.119139  0
O  O161  1  0.35646097  0.98358021  0.30940956  1  -1.161634  0  -0.342434  -0.548066  0  2.118966  0
O  O162  1  0.98357952  0.35646486  0.80941173  1  -1.162143  0  -0.342428  -0.54807  0  2.119181  0
O  O163  1  0.64353354  0.01642036  0.69058964  1  -1.16215  0  -0.342431  -0.548116  0  2.119132  0
O  O164  1  0.90673362  0.45150333  0.12061085  1  -1.16895  0  -0.338615  -0.561126  0  2.189209  0
O  O165  1  0.54848787  0.09326567  0.37938810  1  -1.168801  0  -0.338577  -0.561059  0  2.18909  0
O  O166  1  0.09326977  0.54849567  0.87938811  1  -1.168913  0  -0.338605  -0.561071  0  2.189244  0
O  O167  1  0.45150566  0.90673450  0.62061158  1  -1.168837  0  -0.338597  -0.561091  0  2.189103  0
