# generated using pymatgen
data_NaH28AuC24N8(ClO2)4
_symmetry_space_group_name_H-M   'P 1'
_cell_length_a   7.85973371
_cell_length_b   14.16141500
_cell_length_c   14.65372559
_cell_angle_alpha   90.52342608
_cell_angle_beta   90.02965006
_cell_angle_gamma   106.06320204
_symmetry_Int_Tables_number   1
_chemical_formula_structural   NaH28AuC24N8(ClO2)4
_chemical_formula_sum   'Na2 H56 Au2 C48 N16 Cl8 O16'
_cell_volume   1567.27864168
_cell_formula_units_Z   2
loop_
 _symmetry_equiv_pos_site_id
 _symmetry_equiv_pos_as_xyz
  1  'x, y, z'
loop_
 _atom_site_type_symbol
 _atom_site_label
 _atom_site_symmetry_multiplicity
 _atom_site_fract_x
 _atom_site_fract_y
 _atom_site_fract_z
 _atom_site_occupancy
 _atom_site_hle17_bader_spin_density
 _atom_site_hle17_ddec_charge
 _atom_site_hle17_ddec_spin_density
 _atom_site_hle17_ddec_sum_bond_order
 _atom_site_hle17_magmom
 _atom_site_hse06_10hf_bader_spin_density
 _atom_site_hse06_10hf_ddec_charge
 _atom_site_hse06_10hf_ddec_spin_density
 _atom_site_hse06_10hf_ddec_sum_bond_order
 _atom_site_hse06_10hf_magmom
 _atom_site_hse06_bader_spin_density
 _atom_site_hse06_ddec_charge
 _atom_site_hse06_ddec_spin_density
 _atom_site_hse06_ddec_sum_bond_order
 _atom_site_hse06_magmom
 _atom_site_pbe_bader_spin_density
 _atom_site_pbe_cm5_charge
 _atom_site_pbe_ddec_charge
 _atom_site_pbe_ddec_spin_density
 _atom_site_pbe_ddec_sum_bond_order
 _atom_site_pbe_magmom
Na  Na0  1  0.17346369  0.99994015  0.25002140  1  0  0.904238  0  0.379464  0  0  0.862868  0  0.531155  0  0  0.871395  0  0.512173  0  0  0.701091  0.856651  0  0.544712  0
Na  Na1  1  0.82653844  0.00005868  0.74997947  1  0  0.90421  0  0.37945  0  0  0.862877  0  0.531098  0  0  0.871394  0  0.512119  0  0  0.701115  0.85666  0  0.544652  0
H  H2  1  0.07290995  0.32166941  0.68111487  1  0  0.096748  0  0.942457  0  0  0.114132  0  1.010636  0  0  0.114083  0  1.011109  0  0  0.098291  0.114047  0  1.010377  0
H  H3  1  0.24978262  0.32204910  0.18093123  1  0  0.096747  0  0.943554  0  0  0.114116  0  1.011821  0  0  0.114025  0  1.012358  0  0  0.098413  0.114088  0  1.011458  0
H  H4  1  0.92709001  0.67833016  0.31888668  1  0  0.096736  0  0.942504  0  0  0.114116  0  1.010677  0  0  0.114065  0  1.011154  0  0  0.098277  0.114033  0  1.010414  0
H  H5  1  0.75022262  0.67795342  0.81906558  1  0  0.096752  0  0.943616  0  0  0.114133  0  1.011871  0  0  0.114042  0  1.012406  0  0  0.098422  0.114105  0  1.011508  0
H  H6  1  0.11395421  0.21669218  0.73341829  1  0  0.113129  0  0.981141  0  0  0.126047  0  1.05304  0  0  0.127765  0  1.052211  0  0  0.10672  0.124722  0  1.053716  0
H  H7  1  0.10430236  0.21708381  0.23331513  1  0  0.112773  0  0.981256  0  0  0.126011  0  1.052669  0  0  0.127718  0  1.051868  0  0  0.106755  0.124689  0  1.053329  0
H  H8  1  0.88604501  0.78330592  0.26658256  1  0  0.113166  0  0.981119  0  0  0.126091  0  1.053002  0  0  0.127808  0  1.052176  0  0  0.106735  0.124766  0  1.053677  0
H  H9  1  0.89570288  0.78291871  0.76668032  1  0  0.112811  0  0.981195  0  0  0.126053  0  1.052619  0  0  0.127761  0  1.051814  0  0  0.106784  0.124731  0  1.05328  0
H  H10  1  0.29519703  0.31092390  0.68760877  1  0  0.119608  0  0.970832  0  0  0.139515  0  1.030241  0  0  0.140645  0  1.03036  0  0  0.109528  0.138558  0  1.030317  0
H  H11  1  0.01673399  0.31120242  0.18742638  1  0  0.119236  0  0.972171  0  0  0.139271  0  1.031607  0  0  0.140372  0  1.03172  0  0  0.109517  0.138339  0  1.031635  0
H  H12  1  0.70480273  0.68907274  0.31239002  1  0  0.119617  0  0.970879  0  0  0.139495  0  1.030321  0  0  0.140625  0  1.030442  0  0  0.109506  0.13854  0  1.030395  0
H  H13  1  0.98327035  0.68880084  0.81257181  1  0  0.119257  0  0.972139  0  0  0.139287  0  1.031595  0  0  0.14039  0  1.03171  0  0  0.109493  0.138356  0  1.031623  0
H  H14  1  0.61031277  0.92223975  0.06407174  1  0  0.117221  0  0.928493  0  0  0.141595  0  0.981196  0  0  0.141937  0  0.981556  0  0  0.108398  0.14117  0  0.981124  0
H  H15  1  0.31066570  0.92198392  0.56425805  1  0  0.116818  0  0.928649  0  0  0.141209  0  0.981585  0  0  0.14149  0  0.981999  0  0  0.107921  0.140858  0  0.981433  0
H  H16  1  0.38968536  0.07775616  0.93592363  1  0  0.117142  0  0.928516  0  0  0.141524  0  0.981211  0  0  0.141864  0  0.981572  0  0  0.108375  0.141099  0  0.981138  0
H  H17  1  0.68933459  0.07801124  0.43574277  1  0  0.116771  0  0.928631  0  0  0.141161  0  0.981593  0  0  0.141441  0  0.982008  0  0  0.107918  0.14081  0  0.98144  0
H  H18  1  0.81330295  0.01348751  0.08378739  1  0  0.104056  0  0.948667  0  0  0.122304  0  1.014064  0  0  0.123251  0  1.01382  0  0  0.108134  0.121544  0  1.014274  0
H  H19  1  0.19889939  0.01331016  0.58400832  1  0  0.103891  0  0.950226  0  0  0.12219  0  1.015495  0  0  0.123117  0  1.015276  0  0  0.107841  0.121416  0  1.015721  0
H  H20  1  0.18668830  0.98651502  0.91620942  1  0  0.104064  0  0.948575  0  0  0.122282  0  1.014018  0  0  0.123229  0  1.013772  0  0  0.108116  0.121518  0  1.014237  0
H  H21  1  0.80110073  0.98668720  0.41599389  1  0  0.103877  0  0.950244  0  0  0.122172  0  1.015527  0  0  0.123098  0  1.015311  0  0  0.107827  0.121395  0  1.015759  0
H  H22  1  0.71679474  0.99591541  0.97079414  1  0  0.123193  0  0.967873  0  0  0.1367  0  1.038072  0  0  0.139006  0  1.036155  0  0  0.112053  0.134921  0  1.039564  0
H  H23  1  0.27778655  0.99573176  0.47103771  1  0  0.122061  0  0.968753  0  0  0.136075  0  1.038467  0  0  0.138379  0  1.036526  0  0  0.111641  0.134299  0  1.039976  0
H  H24  1  0.28320265  0.00407903  0.02920326  1  0  0.123199  0  0.967812  0  0  0.13667  0  1.038078  0  0  0.138979  0  1.036157  0  0  0.112036  0.134893  0  1.03957  0
H  H25  1  0.72220374  0.00426119  0.52896513  1  0  0.121957  0  0.968794  0  0  0.136032  0  1.038452  0  0  0.138337  0  1.036509  0  0  0.111631  0.134255  0  1.039963  0
H  H26  1  0.08238903  0.69930067  0.95304564  1  0  0.122363  0  0.92969  0  0  0.130321  0  0.994013  0  0  0.133975  0  0.989348  0  0  0.129236  0.127737  0  0.997241  0
H  H27  1  0.61589193  0.69969791  0.45271630  1  0  0.122109  0  0.930082  0  0  0.129814  0  0.994687  0  0  0.133453  0  0.990002  0  0  0.129334  0.127192  0  0.997991  0
H  H28  1  0.91761913  0.30070259  0.04694845  1  0  0.122398  0  0.929498  0  0  0.130347  0  0.993827  0  0  0.133997  0  0.989173  0  0  0.129295  0.127766  0  0.997053  0
H  H29  1  0.38409675  0.30029947  0.54728113  1  0  0.122204  0  0.92995  0  0  0.129921  0  0.994542  0  0  0.133527  0  0.98991  0  0  0.129392  0.127311  0  0.997812  0
H  H30  1  0.75059260  0.50808570  0.27889695  1  0  0.101599  0  0.946974  0  0  0.120417  0  1.012756  0  0  0.120447  0  1.013622  0  0  0.100532  0.12028  0  1.012211  0
H  H31  1  0.75776479  0.50853531  0.77882050  1  0  0.101802  0  0.948026  0  0  0.120612  0  1.013891  0  0  0.120634  0  1.014755  0  0  0.100497  0.120486  0  1.013351  0
H  H32  1  0.24940789  0.49191241  0.72110186  1  0  0.101577  0  0.94695  0  0  0.120388  0  1.012758  0  0  0.120417  0  1.013624  0  0  0.100537  0.120251  0  1.012214  0
H  H33  1  0.24223372  0.49146646  0.22118177  1  0  0.101837  0  0.94804  0  0  0.120661  0  1.013869  0  0  0.120683  0  1.014732  0  0  0.100524  0.120535  0  1.013329  0
H  H34  1  0.60501135  0.48170373  0.18303668  1  0  0.091559  0  0.981189  0  0  0.097444  0  1.070307  0  0  0.099282  0  1.067056  0  0  0.088313  0.095945  0  1.072746  0
H  H35  1  0.87672549  0.48207157  0.68293969  1  0  0.091685  0  0.980345  0  0  0.097701  0  1.069551  0  0  0.099543  0  1.066307  0  0  0.088145  0.096209  0  1.071991  0
H  H36  1  0.39498295  0.51829217  0.81696278  1  0  0.091551  0  0.98119  0  0  0.097421  0  1.07031  0  0  0.099253  0  1.067064  0  0  0.088309  0.095924  0  1.072748  0
H  H37  1  0.12327356  0.51792874  0.31706187  1  0  0.091696  0  0.980314  0  0  0.097672  0  1.069573  0  0  0.099516  0  1.066327  0  0  0.088129  0.096179  0  1.072016  0
H  H38  1  0.52701989  0.51184944  0.29177298  1  0  0.117305  0  0.951296  0  0  0.135739  0  1.0142  0  0  0.137074  0  1.013706  0  0  0.107859  0.134666  0  1.01467  0
H  H39  1  0.98507170  0.51218017  0.79166822  1  0  0.117108  0  0.952839  0  0  0.135407  0  1.015667  0  0  0.136727  0  1.015187  0  0  0.10754  0.13434  0  1.016146  0
H  H40  1  0.47297679  0.48814867  0.70822651  1  0  0.117319  0  0.951236  0  0  0.135733  0  1.014161  0  0  0.137066  0  1.013672  0  0  0.107876  0.13466  0  1.014632  0
H  H41  1  0.01492681  0.48782161  0.20833336  1  0  0.117059  0  0.952903  0  0  0.135347  0  1.015737  0  0  0.136667  0  1.015258  0  0  0.107528  0.134282  0  1.016212  0
H  H42  1  0.77258197  0.12597632  0.24978214  1  0  0.111822  0  0.928511  0  0  0.134154  0  0.986711  0  0  0.134708  0  0.986646  0  0  0.108654  0.133622  0  0.98689  0
H  H43  1  0.35484916  0.12643372  0.74963535  1  0  0.111993  0  0.929269  0  0  0.133837  0  0.987879  0  0  0.134346  0  0.987879  0  0  0.108386  0.133328  0  0.988029  0
H  H44  1  0.22740889  0.87402031  0.75021938  1  0  0.111842  0  0.928591  0  0  0.134202  0  0.986748  0  0  0.134759  0  0.986677  0  0  0.108625  0.13367  0  0.986926  0
H  H45  1  0.64515444  0.87356805  0.25036760  1  0  0.111978  0  0.929268  0  0  0.133843  0  0.98787  0  0  0.134352  0  0.987865  0  0  0.108381  0.133334  0  0.988022  0
H  H46  1  0.56133660  0.07412495  0.19745195  1  0  0.120474  0  0.957801  0  0  0.137084  0  1.024117  0  0  0.139079  0  1.022371  0  0  0.116486  0.13544  0  1.025615  0
H  H47  1  0.51401939  0.07444930  0.69723880  1  0  0.12126  0  0.958679  0  0  0.137884  0  1.024749  0  0  0.139942  0  1.022907  0  0  0.116648  0.136263  0  1.026251  0
H  H48  1  0.43865171  0.92587168  0.80255093  1  0  0.120555  0  0.957683  0  0  0.137166  0  1.023985  0  0  0.139161  0  1.02224  0  0  0.116513  0.135526  0  1.025478  0
H  H49  1  0.48598293  0.92555247  0.30276415  1  0  0.121253  0  0.958633  0  0  0.137883  0  1.02471  0  0  0.139943  0  1.022863  0  0  0.116645  0.136263  0  1.026211  0
H  H50  1  0.71685598  0.17623191  0.14545804  1  0  0.106716  0  0.954717  0  0  0.12607  0  1.016916  0  0  0.127195  0  1.01623  0  0  0.108568  0.125215  0  1.017404  0
H  H51  1  0.46033949  0.17657905  0.64526089  1  0  0.106596  0  0.955517  0  0  0.125911  0  1.01784  0  0  0.127036  0  1.017128  0  0  0.108486  0.125061  0  1.018338  0
H  H52  1  0.28313252  0.82376765  0.85454761  1  0  0.106716  0  0.954729  0  0  0.126048  0  1.016951  0  0  0.12717  0  1.016272  0  0  0.108573  0.125192  0  1.017441  0
H  H53  1  0.53965428  0.82341832  0.35473791  1  0  0.106595  0  0.955538  0  0  0.125934  0  1.017845  0  0  0.127016  0  1.017187  0  0  0.108483  0.125084  0  1.018342  0
H  H54  1  0.37805110  0.39080007  0.37808207  1  0  0.105403  0  0.954095  0  0  0.114054  0  1.020693  0  0  0.117331  0  1.016864  0  0  0.116512  0.111703  0  1.023408  0
H  H55  1  0.01322980  0.39125234  0.87805523  1  0  0.104923  0  0.953548  0  0  0.113782  0  1.020114  0  0  0.11691  0  1.016477  0  0  0.116314  0.111491  0  1.022737  0
H  H56  1  0.62194433  0.60920318  0.62191748  1  0  0.105198  0  0.954149  0  0  0.113889  0  1.020717  0  0  0.117167  0  1.016885  0  0  0.116432  0.11153  0  1.02345  0
H  H57  1  0.98677346  0.60875385  0.12194231  1  0  0.104964  0  0.953498  0  0  0.11381  0  1.020077  0  0  0.11694  0  1.016442  0  0  0.116343  0.111522  0  1.022699  0
Au  Au58  1  0.50000358  0.50000251  0.00000432  1  0  0.643278  0  3.021495  0  0  0.622091  0  3.627117  0  0  0.654731  0  3.582995  0  0  0.52273  0.600035  0  3.657694  0
Au  Au59  1  0.00000984  0.50000391  0.49999563  1  0  0.642105  0  3.024129  0  0  0.620561  0  3.629975  0  0  0.653241  0  3.585871  0  0  0.522167  0.598461  0  3.660568  0
C  C60  1  0.15573855  0.27076155  0.67919487  1  0  -0.172751  0  3.620603  0  0  -0.278163  0  3.873639  0  0  -0.274477  0  3.882653  0  0  -0.140695  -0.280197  0  3.867397  0
C  C61  1  0.11622970  0.27109001  0.17904994  1  0  -0.17136  0  3.62212  0  0  -0.277598  0  3.87602  0  0  -0.273849  0  3.88499  0  0  -0.140536  -0.279611  0  3.869704  0
C  C62  1  0.84425940  0.72923655  0.32080598  1  0  -0.172835  0  3.620678  0  0  -0.278227  0  3.873729  0  0  -0.274547  0  3.882756  0  0  -0.140712  -0.280256  0  3.867479  0
C  C63  1  0.88377337  0.72891325  0.82094620  1  0  -0.171451  0  3.622081  0  0  -0.277707  0  3.875984  0  0  -0.273968  0  3.884972  0  0  -0.140551  -0.279728  0  3.86968  0
C  C64  1  0.97415668  0.15099534  0.57404354  1  0  0.614301  0  3.836136  0  0  0.544847  0  4.133603  0  0  0.579292  0  4.130571  0  0  0.340339  0.521869  0  4.134922  0
C  C65  1  0.17788258  0.15100182  0.07411713  1  0  0.614367  0  3.83647  0  0  0.545664  0  4.132721  0  0  0.580048  0  4.129707  0  0  0.341027  0.522725  0  4.134028  0
C  C66  1  0.02584161  0.84899835  0.42595999  1  0  0.614285  0  3.83621  0  0  0.54485  0  4.133602  0  0  0.579296  0  4.130566  0  0  0.340291  0.521876  0  4.134922  0
C  C67  1  0.82211741  0.84900291  0.92587766  1  0  0.614292  0  3.836692  0  0  0.545596  0  4.132936  0  0  0.57998  0  4.129918  0  0  0.340887  0.52266  0  4.134246  0
C  C68  1  0.73860426  0.96012044  0.03384541  1  0  -0.154718  0  3.60553  0  0  -0.256602  0  3.8558  0  0  -0.252284  0  3.863344  0  0  -0.139021  -0.259171  0  3.850785  0
C  C69  1  0.22021536  0.95994042  0.53404836  1  0  -0.152544  0  3.604841  0  0  -0.255241  0  3.854706  0  0  -0.250869  0  3.862225  0  0  -0.137587  -0.257839  0  3.849636  0
C  C70  1  0.26139496  0.03987767  0.96615271  1  0  -0.154626  0  3.605437  0  0  -0.256481  0  3.85573  0  0  -0.252161  0  3.863268  0  0  -0.138965  -0.259053  0  3.850715  0
C  C71  1  0.77977985  0.04005473  0.46595518  1  0  -0.152371  0  3.604794  0  0  -0.255094  0  3.854664  0  0  -0.250723  0  3.862185  0  0  -0.137579  -0.257695  0  3.84959  0
C  C72  1  0.07713149  0.13461134  0.41658690  1  0  0.515273  0  3.825944  0  0  0.464427  0  4.117278  0  0  0.495563  0  4.115706  0  0  0.233714  0.44374  0  4.117624  0
C  C73  1  0.05881084  0.13469223  0.91653399  1  0  0.514526  0  3.825788  0  0  0.463701  0  4.118429  0  0  0.494854  0  4.116837  0  0  0.233181  0.443052  0  4.11875  0
C  C74  1  0.92286007  0.86538160  0.58341867  1  0  0.515195  0  3.825402  0  0  0.464193  0  4.116959  0  0  0.495329  0  4.115382  0  0  0.233596  0.44353  0  4.117284  0
C  C75  1  0.94121224  0.86531543  0.08346425  1  0  0.514713  0  3.825849  0  0  0.46395  0  4.118362  0  0  0.495109  0  4.116746  0  0  0.233204  0.443299  0  4.118692  0
C  C76  1  0.24303418  0.20545956  0.44015955  1  0  -0.150278  0  3.834029  0  0  -0.142139  0  4.09742  0  0  -0.155976  0  4.123689  0  0  -0.030504  -0.133066  0  4.079532  0
C  C77  1  0.96394649  0.20576065  0.93994522  1  0  -0.147632  0  3.830979  0  0  -0.141153  0  4.096037  0  0  -0.154916  0  4.122217  0  0  -0.030631  -0.132138  0  4.078209  0
C  C78  1  0.75695178  0.79454001  0.55983995  1  0  -0.150076  0  3.833698  0  0  -0.141911  0  4.097119  0  0  -0.155753  0  4.123404  0  0  -0.03048  -0.132843  0  4.07922  0
C  C79  1  0.03607294  0.79424481  0.06004958  1  0  -0.147713  0  3.831  0  0  -0.141193  0  4.095945  0  0  -0.154995  0  4.122227  0  0  -0.030712  -0.132178  0  4.078114  0
C  C80  1  0.26303529  0.24597245  0.52576673  1  0  0.089542  0  3.677938  0  0  0.02915  0  3.9467  0  0  0.044283  0  3.959834  0  0  0.053667  0.018702  0  3.938983  0
C  C81  1  0.98436328  0.24629950  0.02555160  1  0  0.088388  0  3.677023  0  0  0.028255  0  3.946217  0  0  0.043258  0  3.959289  0  0  0.05361  0.017691  0  3.938832  0
C  C82  1  0.73695211  0.75402492  0.47423207  1  0  0.089409  0  3.678019  0  0  0.029072  0  3.94674  0  0  0.044193  0  3.959866  0  0  0.053642  0.018625  0  3.939009  0
C  C83  1  0.01564997  0.75370378  0.97443908  1  0  0.088371  0  3.67709  0  0  0.028183  0  3.946308  0  0  0.043192  0  3.959364  0  0  0.053708  0.01764  0  3.93889  0
C  C84  1  0.61365781  0.47444339  0.25716240  1  0  -0.160988  0  3.641228  0  0  -0.265481  0  3.895792  0  0  -0.261057  0  3.904478  0  0  -0.139682  -0.268027  0  3.889854  0
C  C85  1  0.86102356  0.47483625  0.75706707  1  0  -0.162609  0  3.643362  0  0  -0.266868  0  3.897392  0  0  -0.26255  0  3.906292  0  0  -0.139471  -0.269382  0  3.89134  0
C  C86  1  0.38634013  0.52555471  0.74283709  1  0  -0.160992  0  3.641067  0  0  -0.265421  0  3.895626  0  0  -0.260994  0  3.904311  0  0  -0.13969  -0.267973  0  3.889693  0
C  C87  1  0.13897696  0.52516699  0.24293453  1  0  -0.162571  0  3.64336  0  0  -0.266792  0  3.897398  0  0  -0.262475  0  3.906299  0  0  -0.139459  -0.269306  0  3.891341  0
C  C88  1  0.64426607  0.30957175  0.23602519  1  0  0.615165  0  3.827657  0  0  0.542826  0  4.127451  0  0  0.577253  0  4.125336  0  0  0.33921  0.51987  0  4.128085  0
C  C89  1  0.66606859  0.30995283  0.73581419  1  0  0.614625  0  3.827343  0  0  0.542994  0  4.126081  0  0  0.577441  0  4.123903  0  0  0.338545  0.520004  0  4.126798  0
C  C90  1  0.35572351  0.69042487  0.76397837  1  0  0.615044  0  3.827564  0  0  0.542746  0  4.127288  0  0  0.577176  0  4.125168  0  0  0.339187  0.51979  0  4.127925  0
C  C91  1  0.33393176  0.69005263  0.26418402  1  0  0.614561  0  3.827314  0  0  0.542903  0  4.126076  0  0  0.577353  0  4.123896  0  0  0.338439  0.519916  0  4.126784  0
C  C92  1  0.66561387  0.14226993  0.21008971  1  0  -0.14877  0  3.602701  0  0  -0.251426  0  3.850695  0  0  -0.246656  0  3.857799  0  0  -0.134177  -0.254285  0  3.845943  0
C  C93  1  0.47791221  0.14264668  0.70989027  1  0  -0.14909  0  3.604772  0  0  -0.251315  0  3.852706  0  0  -0.246539  0  3.859737  0  0  -0.134185  -0.254234  0  3.847962  0
C  C94  1  0.33437570  0.85772670  0.78991385  1  0  -0.148899  0  3.602681  0  0  -0.251548  0  3.85063  0  0  -0.246778  0  3.857737  0  0  -0.13416  -0.254408  0  3.845876  0
C  C95  1  0.52208885  0.85735509  0.29010995  1  0  -0.149027  0  3.604709  0  0  -0.251319  0  3.852677  0  0  -0.246508  0  3.859732  0  0  -0.134175  -0.254235  0  3.847923  0
C  C96  1  0.46268451  0.17176385  0.32657171  1  0  0.501435  0  3.851266  0  0  0.447307  0  4.148083  0  0  0.479024  0  4.145038  0  0  0.228183  0.426185  0  4.149437  0
C  C97  1  0.71060526  0.17214980  0.82629007  1  0  0.503881  0  3.849106  0  0  0.4487  0  4.146892  0  0  0.48051  0  4.143781  0  0  0.228304  0.427541  0  4.148273  0
C  C98  1  0.53730746  0.82824012  0.67343399  1  0  0.501149  0  3.851701  0  0  0.447003  0  4.148545  0  0  0.478744  0  4.145467  0  0  0.228126  0.425873  0  4.149911  0
C  C99  1  0.28940490  0.82785493  0.17370404  1  0  0.504174  0  3.848768  0  0  0.44901  0  4.1465  0  0  0.480828  0  4.143367  0  0  0.228513  0.427842  0  4.147898  0
C  C100  1  0.38138548  0.23984024  0.37074135  1  0  -0.142633  0  3.82839  0  0  -0.134453  0  4.090736  0  0  -0.14749  0  4.116221  0  0  -0.029278  -0.125856  0  4.073396  0
C  C101  1  0.85987748  0.24019517  0.87047868  1  0  -0.144517  0  3.82786  0  0  -0.134711  0  4.089871  0  0  -0.14784  0  4.115354  0  0  -0.028786  -0.126096  0  4.072564  0
C  C102  1  0.61859957  0.76016007  0.62925953  1  0  -0.142557  0  3.828153  0  0  -0.134392  0  4.090543  0  0  -0.147444  0  4.116044  0  0  -0.029219  -0.125795  0  4.073205  0
C  C103  1  0.14013795  0.75980737  0.12951267  1  0  -0.14446  0  3.82792  0  0  -0.134653  0  4.089864  0  0  -0.147777  0  4.115331  0  0  -0.028684  -0.126032  0  4.072552  0
C  C104  1  0.43511278  0.33646221  0.34671577  1  0  0.096039  0  3.672341  0  0  0.037175  0  3.93494  0  0  0.051652  0  3.948854  0  0  0.054223  0.027017  0  3.926834  0
C  C105  1  0.90214738  0.33684962  0.84659041  1  0  0.097002  0  3.670218  0  0  0.037831  0  3.932586  0  0  0.052429  0  3.946546  0  0  0.054598  0.027826  0  3.924018  0
C  C106  1  0.56487646  0.66353884  0.65328443  1  0  0.096267  0  3.672288  0  0  0.037392  0  3.934906  0  0  0.05187  0  3.948824  0  0  0.054324  0.027255  0  3.926756  0
C  C107  1  0.09785822  0.66315363  0.15340778  1  0  0.096828  0  3.670222  0  0  0.037658  0  3.932577  0  0  0.052257  0  3.946529  0  0  0.054469  0.027631  0  3.924055  0
N  N108  1  0.13445644  0.22062463  0.59046773  1  0  -0.15414  0  3.520231  0  0  -0.058495  0  3.753953  0  0  -0.081603  0  3.776829  0  0  -0.247546  -0.04318  0  3.738035  0
N  N109  1  0.08741822  0.22084376  0.09037439  1  0  -0.154112  0  3.520898  0  0  -0.058248  0  3.754043  0  0  -0.081171  0  3.776731  0  0  -0.247717  -0.043026  0  3.738219  0
N  N110  1  0.86553696  0.77937200  0.40953515  1  0  -0.153974  0  3.520115  0  0  -0.058383  0  3.753844  0  0  -0.081492  0  3.776727  0  0  -0.247434  -0.043068  0  3.737922  0
N  N111  1  0.91259030  0.77916022  0.90962312  1  0  -0.154115  0  3.520993  0  0  -0.058232  0  3.754134  0  0  -0.081153  0  3.77682  0  0  -0.247751  -0.043012  0  3.738308  0
N  N112  1  0.84045460  0.89005627  0.01304155  1  0  -0.25412  0  3.385982  0  0  -0.163033  0  3.62078  0  0  -0.187889  0  3.639376  0  0  -0.242772  -0.146586  0  3.607799  0
N  N113  1  0.04841204  0.89000772  0.51312581  1  0  -0.255041  0  3.384965  0  0  -0.163225  0  3.619284  0  0  -0.188036  0  3.637828  0  0  -0.243137  -0.14681  0  3.606335  0
N  N114  1  0.15955700  0.10994624  0.98695868  1  0  -0.254024  0  3.38632  0  0  -0.162876  0  3.621059  0  0  -0.187736  0  3.639667  0  0  -0.242711  -0.146418  0  3.608055  0
N  N115  1  0.95158025  0.10998669  0.48688046  1  0  -0.254983  0  3.385154  0  0  -0.163277  0  3.619553  0  0  -0.188086  0  3.638092  0  0  -0.243117  -0.146839  0  3.606577  0
N  N116  1  0.55999135  0.37062156  0.28164903  1  0  -0.159568  0  3.522852  0  0  -0.062493  0  3.754194  0  0  -0.085806  0  3.777461  0  0  -0.250202  -0.046977  0  3.737919  0
N  N117  1  0.81115959  0.37101357  0.78152897  1  0  -0.157772  0  3.521677  0  0  -0.060769  0  3.752573  0  0  -0.084101  0  3.775808  0  0  -0.249893  -0.045265  0  3.736356  0
N  N118  1  0.44000570  0.62937727  0.71835252  1  0  -0.159563  0  3.522643  0  0  -0.06252  0  3.753996  0  0  -0.085833  0  3.777257  0  0  -0.250268  -0.047008  0  3.737725  0
N  N119  1  0.18884093  0.62898968  0.21847058  1  0  -0.15785  0  3.521814  0  0  -0.06085  0  3.752704  0  0  -0.084181  0  3.775938  0  0  -0.249945  -0.045341  0  3.736478  0
N  N120  1  0.58986264  0.21110887  0.26003682  1  0  -0.243757  0  3.384701  0  0  -0.152344  0  3.620256  0  0  -0.176834  0  3.637901  0  0  -0.242286  -0.136077  0  3.607839  0
N  N121  1  0.62252558  0.21147726  0.75974803  1  0  -0.246354  0  3.387427  0  0  -0.154913  0  3.623134  0  0  -0.179445  0  3.640688  0  0  -0.242355  -0.138651  0  3.610814  0
N  N122  1  0.41012948  0.78888776  0.73996674  1  0  -0.243688  0  3.384691  0  0  -0.152268  0  3.620216  0  0  -0.176766  0  3.637853  0  0  -0.242372  -0.135999  0  3.607803  0
N  N123  1  0.37747749  0.78852600  0.24024810  1  0  -0.246407  0  3.387164  0  0  -0.154974  0  3.622904  0  0  -0.179504  0  3.640442  0  0  -0.242342  -0.138705  0  3.610584  0
Cl  Cl124  1  0.20251492  0.48441137  0.01621520  1  0  -0.336419  0  1.144964  0  0  -0.31169  0  1.45088  0  0  -0.323269  0  1.432293  0  0  -0.211737  -0.303319  0  1.463716  0
Cl  Cl125  1  0.28176376  0.48406409  0.51624264  1  0  -0.336248  0  1.144893  0  0  -0.311292  0  1.450575  0  0  -0.322871  0  1.431913  0  0  -0.211783  -0.302863  0  1.463319  0
Cl  Cl126  1  0.79749249  0.51559040  0.98378706  1  0  -0.336415  0  1.144938  0  0  -0.311661  0  1.45083  0  0  -0.323242  0  1.432243  0  0  -0.211741  -0.303291  0  1.463664  0
Cl  Cl127  1  0.71825932  0.51594358  0.48375082  1  0  -0.336136  0  1.144902  0  0  -0.311219  0  1.450647  0  0  -0.322796  0  1.431982  0  0  -0.211744  -0.302789  0  1.463391  0
Cl  Cl128  1  0.43737734  0.34481525  0.93481684  1  0  -0.347867  0  1.020127  0  0  -0.328195  0  1.28145  0  0  -0.338437  0  1.266549  0  0  -0.24766  -0.321121  0  1.291743  0
Cl  Cl129  1  0.90768838  0.34493945  0.43456897  1  0  -0.34749  0  1.021172  0  0  -0.327717  0  1.282575  0  0  -0.33803  0  1.267779  0  0  -0.247364  -0.320597  0  1.292788  0
Cl  Cl130  1  0.56263263  0.65519164  0.06519299  1  0  -0.347837  0  1.020086  0  0  -0.328164  0  1.281402  0  0  -0.338407  0  1.266502  0  0  -0.247609  -0.321088  0  1.291692  0
Cl  Cl131  1  0.09230289  0.65506823  0.56542312  1  0  -0.347472  0  1.021167  0  0  -0.327678  0  1.282565  0  0  -0.337989  0  1.267766  0  0  -0.24736  -0.32056  0  1.292777  0
O  O132  1  0.86022988  0.12721168  0.63429145  1  0  -0.589116  0  1.948543  0  0  -0.55251  0  2.187907  0  0  -0.571476  0  2.178958  0  0  -0.331626  -0.539451  0  2.193628  0
O  O133  1  0.26774513  0.12707275  0.13449631  1  0  -0.589809  0  1.94999  0  0  -0.553073  0  2.188372  0  0  -0.572049  0  2.179452  0  0  -0.332079  -0.540012  0  2.19408  0
O  O134  1  0.13976948  0.87277905  0.36571750  1  0  -0.589066  0  1.948657  0  0  -0.552433  0  2.187955  0  0  -0.571398  0  2.179008  0  0  -0.331544  -0.539374  0  2.193672  0
O  O135  1  0.73225973  0.87292901  0.86551005  1  0  -0.589595  0  1.950423  0  0  -0.552879  0  2.188837  0  0  -0.57185  0  2.179914  0  0  -0.331896  -0.53982  0  2.194544  0
O  O136  1  0.94184089  0.90428674  0.16036631  1  0  -0.597751  0  1.958312  0  0  -0.560818  0  2.196299  0  0  -0.578282  0  2.185297  0  0  -0.35875  -0.548708  0  2.20329  0
O  O137  1  0.96118242  0.90423115  0.66037169  1  0  -0.597992  0  1.958422  0  0  -0.561358  0  2.196673  0  0  -0.578798  0  2.185657  0  0  -0.3602  -0.549317  0  2.203822  0
O  O138  1  0.05819053  0.09571725  0.83962847  1  0  -0.597656  0  1.958052  0  0  -0.560722  0  2.19611  0  0  -0.578201  0  2.185143  0  0  -0.35875  -0.548613  0  2.203098  0
O  O139  1  0.03881016  0.09574855  0.33963714  1  0  -0.598047  0  1.958667  0  0  -0.561442  0  2.196825  0  0  -0.578886  0  2.185814  0  0  -0.36028  -0.549402  0  2.204003  0
O  O140  1  0.75819611  0.34258750  0.17765596  1  0  -0.562255  0  1.95557  0  0  -0.522469  0  2.186357  0  0  -0.542792  0  2.178299  0  0  -0.295343  -0.508383  0  2.191374  0
O  O141  1  0.58485598  0.34296876  0.67748792  1  0  -0.561451  0  1.953372  0  0  -0.521941  0  2.184067  0  0  -0.542273  0  2.175999  0  0  -0.294695  -0.507828  0  2.189053  0
O  O142  1  0.24179582  0.65740619  0.82234484  1  0  -0.562157  0  1.955644  0  0  -0.522404  0  2.186439  0  0  -0.542729  0  2.178381  0  0  -0.29528  -0.508318  0  2.191456  0
O  O143  1  0.41514128  0.65703816  0.32251508  1  0  -0.561408  0  1.953342  0  0  -0.521852  0  2.184004  0  0  -0.542189  0  2.175937  0  0  -0.294642  -0.507747  0  2.189006  0
O  O144  1  0.42593511  0.08218975  0.34385379  1  0  -0.58099  0  1.977586  0  0  -0.542861  0  2.217473  0  0  -0.560884  0  2.207309  0  0  -0.33766  -0.530363  0  2.224074  0
O  O145  1  0.65791286  0.08259406  0.84363974  1  0  -0.581911  0  1.976742  0  0  -0.544247  0  2.218516  0  0  -0.562217  0  2.208109  0  0  -0.339635  -0.531727  0  2.225102  0
O  O146  1  0.57406720  0.91781197  0.65616349  1  0  -0.580832  0  1.978076  0  0  -0.542695  0  2.21796  0  0  -0.560721  0  2.207778  0  0  -0.337593  -0.530195  0  2.224568  0
O  O147  1  0.34209402  0.91740920  0.15635504  1  0  -0.582095  0  1.976862  0  0  -0.544398  0  2.218563  0  0  -0.562389  0  2.20819  0  0  -0.339758  -0.531875  0  2.225154  0
