# generated using pymatgen
data_MnH14C16(NO3)2
_symmetry_space_group_name_H-M   'P 1'
_cell_length_a   8.58811870
_cell_length_b   8.58812443
_cell_length_c   10.74193630
_cell_angle_alpha   105.27429100
_cell_angle_beta   105.27498113
_cell_angle_gamma   93.00931992
_symmetry_Int_Tables_number   1
_chemical_formula_structural   MnH14C16(NO3)2
_chemical_formula_sum   'Mn2 H28 C32 N4 O12'
_cell_volume   730.94006326
_cell_formula_units_Z   2
loop_
 _symmetry_equiv_pos_site_id
 _symmetry_equiv_pos_as_xyz
  1  'x, y, z'
loop_
 _atom_site_type_symbol
 _atom_site_label
 _atom_site_symmetry_multiplicity
 _atom_site_fract_x
 _atom_site_fract_y
 _atom_site_fract_z
 _atom_site_occupancy
 _atom_site_hle17_ddec_charge
 _atom_site_hle17_ddec_spin_density
 _atom_site_hle17_ddec_sum_bond_order
 _atom_site_hle17_magmom
 _atom_site_hse06_10hf_ddec_charge
 _atom_site_hse06_10hf_ddec_spin_density
 _atom_site_hse06_10hf_ddec_sum_bond_order
 _atom_site_hse06_10hf_magmom
 _atom_site_hse06_ddec_charge
 _atom_site_hse06_ddec_spin_density
 _atom_site_hse06_ddec_sum_bond_order
 _atom_site_hse06_magmom
 _atom_site_pbe_cm5_charge
 _atom_site_pbe_ddec_charge
 _atom_site_pbe_ddec_spin_density
 _atom_site_pbe_ddec_sum_bond_order
 _atom_site_pbe_magmom
Mn  Mn0  1  0.94275571  0.05723464  0.25000624  1  1.144463  4.918172  1.731039  4.679  0.976016  4.806848  2.219293  4.534  1.032041  4.830219  2.152205  4.598  0.596497  0.935237  4.768028  2.268915  4.464
Mn  Mn1  1  0.07003583  0.92994056  0.74997421  1  0.892615  -1.416964  2.598354  -1.359  0.821651  -1.314263  3.12051  -1.268  0.842959  -1.185828  3.07352  -1.135  0.676501  0.809537  -1.384578  3.144554  -1.338
H  H2  1  0.73889964  0.98114625  0.93333568  1  0.07738  0.00027  0.966553  0.0  0.084133  0.000766  1.035018  0.001  0.088016  0.000561  1.031128  0.0  0.118837  0.081483  0.00093  1.037913  0.001
H  H3  1  0.01885840  0.26109024  0.56668067  1  0.077438  0.000269  0.966487  0.0  0.084064  0.000766  1.035084  0.001  0.087947  0.000561  1.031194  0.0  0.118851  0.081412  0.00093  1.037982  0.001
H  H4  1  0.25750810  0.03830664  0.05677948  1  0.065048  -0.000371  0.996902  -0.001  0.073171  0.000487  1.066629  0.0  0.076172  0.000222  1.061745  0.0  0.117173  0.07188  0.000621  1.069117  0.0
H  H5  1  0.96172029  0.74240255  0.44311699  1  0.064925  -0.000367  0.997181  -0.001  0.073114  0.000487  1.066894  0.0  0.076126  0.000222  1.061989  0.0  0.117098  0.071823  0.000622  1.06938  0.0
H  H6  1  0.51343893  0.08752493  0.79440760  1  0.116725  0.000334  0.964713  0.0  0.122819  0.000342  1.029681  0.0  0.126083  0.000262  1.029303  0.0  0.108329  0.120912  0.000448  1.029635  0.0
H  H7  1  0.91248249  0.48654229  0.70560148  1  0.116923  0.000334  0.964789  0.0  0.122997  0.000341  1.029741  0.0  0.126268  0.000262  1.029348  0.0  0.108378  0.121087  0.000448  1.029697  0.0
H  H8  1  0.47618496  0.93405282  0.19976193  1  0.11692  0.000158  0.967208  0.0  0.123042  -0.000152  1.031052  0.0  0.126156  -0.000256  1.030063  0.0  0.106384  0.122152  -3.6e-05  1.029955  0.0
H  H9  1  0.06603353  0.52375316  0.30018357  1  0.116945  0.000157  0.966758  0.0  0.122892  -0.000152  1.030872  0.0  0.125939  -0.000257  1.029963  0.0  0.106303  0.122013  -3.7e-05  1.029736  0.0
H  H10  1  0.38281693  0.31495888  0.91010960  1  0.104483  3.2e-05  0.976461  0.0  0.114525  4.5e-05  1.037694  0.0  0.117594  -3.4e-05  1.036143  0.0  0.109256  0.112151  0.000142  1.039536  0.0
H  H11  1  0.68507373  0.61719062  0.58990467  1  0.104589  3.2e-05  0.976479  0.0  0.114553  4.5e-05  1.037756  0.0  0.117621  -3.4e-05  1.036208  0.0  0.109267  0.112184  0.000142  1.039586  0.0
H  H12  1  0.61099810  0.70247905  0.09278907  1  0.105615  -0.000897  0.978241  -0.001  0.114099  0.000131  1.04297  0.0  0.117558  -5e-05  1.03985  0.0  0.106725  0.112107  0.000299  1.044683  0.0
H  H13  1  0.29761981  0.38897456  0.40721925  1  0.105579  -0.000894  0.978283  -0.001  0.114091  0.000131  1.043014  0.0  0.117514  -5e-05  1.039989  0.0  0.10683  0.112102  0.000299  1.044736  0.0
H  H14  1  0.37241256  0.51182953  0.12624867  1  0.096773  0.000233  0.953523  0.0  0.10971  0.0003  1.011285  0.0  0.110799  0.000182  1.013197  0.0  0.104307  0.108921  0.000458  1.010365  0.0
H  H15  1  0.48821792  0.62763622  0.37373957  1  0.096809  0.000232  0.95357  0.0  0.109722  0.000299  1.011358  0.0  0.110813  0.000182  1.013263  0.0  0.104298  0.108932  0.000458  1.010446  0.0
H  H16  1  0.62160570  0.49693600  0.87318642  1  0.096367  7.3e-05  0.954937  0.0  0.108461  4.9e-05  1.013692  0.0  0.110186  4.2e-05  1.014662  0.0  0.103394  0.108269  0.000118  1.011962  0.0
H  H17  1  0.50312776  0.37840749  0.62686600  1  0.096315  7.5e-05  0.954947  0.0  0.108446  4.9e-05  1.013673  0.0  0.110146  4.3e-05  1.014669  0.0  0.103392  0.108292  0.000118  1.011897  0.0
H  H18  1  0.38758057  0.91845306  0.55548850  1  0.126639  -0.000563  0.950153  -0.001  0.132022  3e-06  1.014986  0.0  0.136783  -1.6e-05  1.011815  0.0  0.108231  0.127385  8.6e-05  1.019644  0.0
H  H19  1  0.08156640  0.61243653  0.94454911  1  0.126613  -0.000562  0.949924  -0.001  0.131858  3e-06  1.015039  0.0  0.136613  -1.6e-05  1.011881  0.0  0.10827  0.127229  8.6e-05  1.01968  0.0
H  H20  1  0.64322279  0.08426207  0.46100089  1  0.124382  -0.000367  0.960795  0.0  0.12987  -0.00046  1.025353  0.0  0.133821  -0.000428  1.023301  0.0  0.107425  0.126321  -0.000455  1.028399  0.0
H  H21  1  0.91575556  0.35676410  0.03901469  1  0.124148  -0.000367  0.960916  0.0  0.129647  -0.00046  1.025446  0.0  0.133596  -0.000428  1.023397  0.0  0.107342  0.126119  -0.000455  1.028467  0.0
H  H22  1  0.08377507  0.16480427  0.08408658  1  0.412703  0.000634  0.876355  0.001  0.383521  0.001395  0.952288  0.002  0.393603  0.001013  0.937703  0.002  0.297092  0.376542  0.001717  0.961352  0.002
H  H23  1  0.83519345  0.91620999  0.41592487  1  0.41276  0.000634  0.876081  0.001  0.383644  0.001394  0.952065  0.002  0.393722  0.001013  0.937485  0.002  0.297176  0.376666  0.001716  0.960995  0.002
H  H24  1  0.94568413  0.82689430  0.91705201  1  0.411414  -0.001561  0.877695  -0.003  0.384452  -0.001197  0.951266  -0.002  0.392812  -0.000962  0.941045  -0.002  0.298515  0.378217  -0.001309  0.9573  -0.003
H  H25  1  0.17308658  0.05429669  0.58292784  1  0.411534  -0.001563  0.877579  -0.003  0.38444  -0.001197  0.95143  -0.003  0.392795  -0.000962  0.941134  -0.002  0.298523  0.378206  -0.00131  0.95746  -0.003
H  H26  1  0.21425955  0.17340180  0.23122445  1  0.412837  0.000465  0.905082  0.001  0.379383  0.001384  0.973814  0.001  0.3914  0.001066  0.956589  0.001  0.287109  0.370666  0.001659  0.986334  0.002
H  H27  1  0.82658749  0.78572506  0.26878026  1  0.412863  0.000465  0.905054  0.001  0.379387  0.001384  0.973825  0.001  0.391404  0.001066  0.956602  0.001  0.287141  0.370658  0.001659  0.986366  0.002
H  H28  1  0.81096573  0.82850551  0.77411036  1  0.404265  0.000487  0.909621  0.0  0.373445  0.000174  0.981161  0.0  0.384811  4.8e-05  0.965369  0.0  0.292113  0.3655  0.000202  0.992261  0.0
H  H29  1  0.17149458  0.18900475  0.72588266  1  0.40414  0.000486  0.909818  0.0  0.373395  0.000173  0.981207  0.0  0.38476  4.7e-05  0.965415  0.0  0.292107  0.365447  0.000202  0.992311  0.0
C  C30  1  0.68223396  0.08119932  0.98072853  1  0.150427  0.003442  3.695279  0.003  0.115137  0.006668  3.957387  0.005  0.123206  0.005431  3.97372  0.004  0.058136  0.10921  0.008158  3.946495  0.006
C  C31  1  0.91880725  0.31776411  0.51928700  1  0.150388  0.003446  3.695223  0.003  0.115224  0.006672  3.957282  0.005  0.123293  0.005435  3.973619  0.004  0.058063  0.109296  0.008162  3.946389  0.006
C  C32  1  0.31244967  0.93572603  0.01200266  1  0.128955  0.024407  3.677992  0.019  0.093238  0.015862  3.943419  0.01  0.104714  0.012921  3.953519  0.009  0.045295  0.086739  0.012614  3.931838  0.008
C  C33  1  0.06429195  0.68751346  0.48796123  1  0.129263  0.024295  3.678804  0.019  0.093345  0.015821  3.94435  0.01  0.104815  0.012884  3.954451  0.009  0.045214  0.086839  0.012596  3.932773  0.008
C  C34  1  0.55549712  0.14191914  0.90291595  1  -0.107677  -0.000353  3.708945  0.0  -0.122489  -0.000276  3.966088  0.0  -0.128835  -0.000773  3.986011  -0.001  -0.082005  -0.118366  0.00021  3.952738  0.0
C  C35  1  0.85809515  0.44449823  0.59709761  1  -0.107839  -0.000356  3.709254  0.0  -0.122667  -0.000278  3.966365  0.0  -0.129013  -0.000776  3.986288  -0.001  -0.081992  -0.118545  0.000208  3.953021  0.0
C  C36  1  0.43688248  0.87572037  0.09168098  1  -0.115762  -0.002562  3.729692  -0.004  -0.131127  0.003651  3.990673  0.001  -0.13602  -0.001587  4.006594  -0.003  -0.089186  -0.125682  0.006229  3.973993  0.003
C  C37  1  0.12432333  0.56308360  0.40830520  1  -0.11594  -0.002488  3.729352  -0.004  -0.131107  0.00367  3.990471  0.001  -0.135938  -0.001572  4.006419  -0.003  -0.088914  -0.125649  0.00624  3.97379  0.003
C  C38  1  0.48351412  0.26666596  0.96704740  1  -0.045273  0.002587  3.675439  0.002  -0.070811  0.004626  3.924211  0.003  -0.067976  0.003841  3.940934  0.003  -0.062169  -0.073252  0.005949  3.913898  0.004
C  C39  1  0.73335355  0.51649474  0.53296805  1  -0.045396  0.002591  3.675421  0.002  -0.070825  0.004631  3.924143  0.003  -0.067987  0.003845  3.940864  0.003  -0.062186  -0.073273  0.005955  3.913846  0.004
C  C40  1  0.51137211  0.74822329  0.03257156  1  -0.066034  0.034155  3.687645  0.028  -0.095632  0.02615  3.945206  0.02  -0.088063  0.019338  3.956935  0.015  -0.074285  -0.097124  0.021997  3.932817  0.016
C  C41  1  0.25183884  0.48859447  0.46744609  1  -0.066226  0.034056  3.687116  0.028  -0.09586  0.026123  3.944724  0.02  -0.088293  0.019313  3.956418  0.015  -0.074482  -0.09737  0.021991  3.932349  0.016
C  C42  1  0.54040840  0.33217262  0.10829981  1  0.026572  -9.2e-05  3.786734  0.0  0.042388  0.000249  4.018401  0.0  0.039253  -0.000208  4.042816  0.0  0.001217  0.044451  0.000497  4.002271  0.0
C  C43  1  0.66784305  0.45960260  0.39170812  1  0.026653  -9.5e-05  3.786447  0.0  0.042488  0.000246  4.018068  0.0  0.03935  -0.000211  4.042479  0.0  0.001206  0.044549  0.000495  4.001936  0.0
C  C44  1  0.45561914  0.67864993  0.89229613  1  0.033432  -0.00719  3.801244  -0.008  0.047222  -0.00125  4.038481  -0.003  0.044388  -0.002382  4.057775  -0.004  -0.000899  0.049275  0.000365  4.022557  -0.002
C  C45  1  0.32136924  0.54436935  0.60771761  1  0.034103  -0.007131  3.800992  -0.008  0.047844  -0.001237  4.038315  -0.003  0.045022  -0.002368  4.057595  -0.004  -0.000804  0.049894  0.000369  4.022409  -0.002
C  C46  1  0.47382641  0.46290667  0.18186000  1  -0.087371  0.000291  3.726189  0.0  -0.108013  0.000614  3.974481  0.0  -0.111079  0.000274  3.998162  0.0  -0.080077  -0.10637  0.001097  3.959754  0.001
C  C47  1  0.53711541  0.52620448  0.31813469  1  -0.087457  0.000294  3.726169  0.0  -0.108108  0.000616  3.974484  0.0  -0.111164  0.000275  3.998153  0.0  -0.080161  -0.106463  0.001099  3.959756  0.001
C  C48  1  0.51961608  0.54571456  0.81809363  1  -0.088609  -0.002104  3.716277  -0.001  -0.109761  -0.000929  3.967778  -0.001  -0.111139  -0.000976  3.987276  -0.001  -0.080374  -0.107684  -0.000384  3.951745  0.0
C  C49  1  0.45429931  0.48039595  0.68192719  1  -0.08874  -0.00217  3.716112  -0.001  -0.109897  -0.000939  3.967645  -0.001  -0.111259  -0.000988  3.987156  -0.001  -0.080382  -0.107839  -0.000387  3.951583  0.0
C  C50  1  0.67117141  0.26468637  0.17812116  1  0.139984  0.001585  3.748051  0.002  0.134281  0.003966  3.981634  0.003  0.13899  0.003066  4.003042  0.003  0.125559  0.130976  0.005076  3.96706  0.004
C  C51  1  0.73532727  0.32884143  0.32188706  1  0.139864  0.001588  3.747954  0.002  0.134122  0.003968  3.981549  0.003  0.138831  0.003068  4.002955  0.003  0.125511  0.130819  0.005079  3.966973  0.004
C  C52  1  0.32499792  0.74301818  0.81969340  1  0.124871  0.020418  3.757935  0.014  0.117972  0.020264  3.997533  0.013  0.126801  0.014888  4.010375  0.01  0.113088  0.113432  0.017489  3.985206  0.011
C  C53  1  0.25695713  0.67496010  0.68024989  1  0.124365  0.020345  3.758753  0.014  0.117447  0.020241  3.998367  0.013  0.12626  0.014868  4.011218  0.01  0.112825  0.112903  0.017476  3.986043  0.011
C  C54  1  0.31453719  0.05976237  0.40936740  1  0.679313  0.0045  3.872846  0.003  0.632733  0.007488  4.162295  0.006  0.668017  0.00428  4.151052  0.004  0.210824  0.607675  0.012834  4.172619  0.009
C  C55  1  0.94020554  0.68545220  0.09064531  1  0.678896  0.004493  3.873722  0.003  0.632563  0.007485  4.162817  0.006  0.66786  0.004278  4.151589  0.004  0.211055  0.607499  0.012827  4.173133  0.009
C  C56  1  0.71483900  0.94801780  0.61105447  1  0.659119  0.013992  3.849286  0.011  0.614287  0.007929  4.14101  0.005  0.652184  0.001307  4.127918  0.001  0.209194  0.587054  0.016223  4.152606  0.011
C  C57  1  0.05200186  0.28514471  0.88895455  1  0.659407  0.01396  3.848859  0.011  0.614494  0.007911  4.14063  0.005  0.652383  0.001303  4.127556  0.001  0.209468  0.587266  0.016192  4.152211  0.011
C  C58  1  0.43452882  0.98975784  0.49988878  1  -0.173448  0.018546  3.639892  0.014  -0.193462  0.008251  3.898857  0.006  -0.193733  0.000528  3.904949  0.0  -0.090455  -0.198336  0.019887  3.90311  0.013
C  C59  1  0.01024616  0.56546448  0.00013584  1  -0.173228  0.018508  3.63959  0.014  -0.193371  0.008227  3.898644  0.006  -0.193653  0.000521  3.904756  0.0  -0.090626  -0.198234  0.019847  3.902884  0.013
C  C60  1  0.59615981  0.01355995  0.51686023  1  -0.168993  -0.003218  3.657369  -0.004  -0.188611  0.005241  3.915098  0.003  -0.190438  0.003128  3.921631  0.002  -0.088272  -0.191656  0.01273  3.918363  0.007
C  C61  1  0.98647334  0.40382597  0.98316296  1  -0.168864  -0.003216  3.657279  -0.004  -0.188328  0.005242  3.914865  0.003  -0.190165  0.003133  3.921428  0.002  -0.088184  -0.191375  0.01272  3.918092  0.007
N  N62  1  0.73900429  0.14020718  0.11429230  1  -0.367123  0.030807  3.242169  0.019  -0.30056  0.034259  3.514278  0.018  -0.32116  0.030049  3.530991  0.015  -0.316652  -0.285695  0.038199  3.502893  0.021
N  N63  1  0.85980315  0.26099419  0.38571423  1  -0.367208  0.030811  3.242049  0.019  -0.300629  0.034264  3.514152  0.018  -0.321229  0.030053  3.530865  0.015  -0.31661  -0.285762  0.038204  3.502764  0.021
N  N64  1  0.25497431  0.87306011  0.87705624  1  -0.309047  0.039595  3.305331  0.043  -0.259597  0.032048  3.596444  0.035  -0.274683  0.018603  3.609328  0.021  -0.349601  -0.245252  0.032909  3.580772  0.038
N  N65  1  0.12693333  0.74496142  0.62288953  1  -0.308883  0.0396  3.305565  0.043  -0.259295  0.032028  3.596615  0.035  -0.274387  0.018592  3.609509  0.021  -0.349429  -0.24495  0.032891  3.580958  0.038
O  O66  1  0.16607480  0.04804223  0.41688625  1  -0.672125  0.027252  1.976675  0.015  -0.597588  0.033047  2.222666  0.017  -0.625097  0.029399  2.206948  0.015  -0.312419  -0.578992  0.037505  2.234559  0.021
O  O67  1  0.95187316  0.83389700  0.08307870  1  -0.67202  0.02724  1.976958  0.015  -0.597656  0.033037  2.222834  0.017  -0.625203  0.029397  2.207161  0.015  -0.312545  -0.579055  0.037489  2.234725  0.021
O  O68  1  0.86586790  0.96643160  0.60951442  1  -0.608361  -0.001195  2.049462  0.001  -0.550701  -0.003393  2.309853  0.0  -0.580715  -0.0016  2.297478  0.003  -0.301377  -0.529945  -0.003353  2.317044  -0.001
O  O69  1  0.03358275  0.13412366  0.89050252  1  -0.608512  -0.00119  2.049365  0.001  -0.550786  -0.003372  2.30969  0.0  -0.580805  -0.001586  2.297326  0.003  -0.301368  -0.530027  -0.003328  2.316884  0.0
O  O70  1  0.36131864  0.12686505  0.33117908  1  -0.608398  0.002881  1.976018  0.003  -0.551304  0.004039  2.194676  0.005  -0.576363  0.001843  2.186684  0.002  -0.304723  -0.535858  0.007164  2.201175  0.008
O  O71  1  0.87313395  0.63865517  0.16884990  1  -0.608321  0.002876  1.976517  0.003  -0.551157  0.004037  2.194931  0.005  -0.576222  0.001844  2.186932  0.002  -0.304779  -0.535698  0.00716  2.201431  0.008
O  O72  1  0.66535050  0.87776697  0.68645320  1  -0.598247  0.004438  1.992976  0.005  -0.542266  0.003351  2.212135  0.003  -0.565264  2.7e-05  2.201794  0.0  -0.305144  -0.528308  0.007414  2.220439  0.008
O  O73  1  0.12226525  0.33465929  0.81356621  1  -0.598294  0.004427  1.99251  0.005  -0.54234  0.003339  2.21168  0.003  -0.565355  2.4e-05  2.20136  0.0  -0.305269  -0.52837  0.007397  2.219975  0.007
O  O74  1  0.10224196  0.19592887  0.18240412  1  -0.837332  0.033642  1.932775  0.02  -0.776589  0.041809  2.162301  0.024  -0.80258  0.037538  2.127908  0.021  -0.571547  -0.756815  0.0459  2.185205  0.027
O  O75  1  0.80405311  0.89774998  0.31760067  1  -0.837426  0.033646  1.932383  0.02  -0.776797  0.041812  2.162075  0.024  -0.802798  0.037539  2.127698  0.021  -0.57166  -0.757007  0.045903  2.18485  0.027
O  O76  1  0.92453889  0.80015467  0.81700299  1  -0.778857  0.004788  2.016971  0.014  -0.730067  -0.003162  2.255997  0.006  -0.76746  -0.00275  2.236724  0.005  -0.555492  -0.704244  -0.00325  2.267424  0.006
O  O77  1  0.19981968  0.07543709  0.68297443  1  -0.778813  0.004789  2.017231  0.014  -0.729956  -0.003163  2.256319  0.006  -0.767351  -0.002748  2.236989  0.005  -0.555448  -0.704127  -0.003253  2.267741  0.006
