# generated using pymatgen
data_Zn3H42C46(NO2)8
_symmetry_space_group_name_H-M   'P 1'
_cell_length_a   10.27596545
_cell_length_b   10.80243160
_cell_length_c   12.54662454
_cell_angle_alpha   109.32116435
_cell_angle_beta   106.13388773
_cell_angle_gamma   95.74337666
_symmetry_Int_Tables_number   1
_chemical_formula_structural   Zn3H42C46(NO2)8
_chemical_formula_sum   'Zn3 H42 C46 N8 O16'
_cell_volume   1233.89075244
_cell_formula_units_Z   1
loop_
 _symmetry_equiv_pos_site_id
 _symmetry_equiv_pos_as_xyz
  1  'x, y, z'
loop_
 _atom_site_type_symbol
 _atom_site_label
 _atom_site_symmetry_multiplicity
 _atom_site_fract_x
 _atom_site_fract_y
 _atom_site_fract_z
 _atom_site_occupancy
 _atom_site_hle17_bader_spin_density
 _atom_site_hle17_ddec_charge
 _atom_site_hle17_ddec_spin_density
 _atom_site_hle17_ddec_sum_bond_order
 _atom_site_hle17_magmom
 _atom_site_hse06_10hf_bader_spin_density
 _atom_site_hse06_10hf_ddec_charge
 _atom_site_hse06_10hf_ddec_spin_density
 _atom_site_hse06_10hf_ddec_sum_bond_order
 _atom_site_hse06_10hf_magmom
 _atom_site_hse06_bader_spin_density
 _atom_site_hse06_ddec_charge
 _atom_site_hse06_ddec_spin_density
 _atom_site_hse06_ddec_sum_bond_order
 _atom_site_hse06_magmom
 _atom_site_pbe_bader_spin_density
 _atom_site_pbe_cm5_charge
 _atom_site_pbe_ddec_charge
 _atom_site_pbe_ddec_spin_density
 _atom_site_pbe_ddec_sum_bond_order
 _atom_site_pbe_magmom
Zn  Zn0  1  0.99999882  0.50000119  0.49999859  1  0  1.186015  0  1.682756  0  0  1.038048  0  2.120105  0  0  1.084976  0  2.060204  0  0  0.651858  1.004744  0  2.161113  0
Zn  Zn1  1  0.53118017  0.25248968  0.67743771  1  0  1.00038  0  1.874761  0  0  0.810831  0  2.348538  0  0  0.856669  0  2.295139  0  0  0.697259  0.775792  0  2.388151  0
Zn  Zn2  1  0.46882040  0.74750597  0.32256285  1  0  1.000361  0  1.874744  0  0  0.810794  0  2.34852  0  0  0.856671  0  2.295131  0  0  0.69726  0.775788  0  2.388143  0
H  H3  1  0.17999469  0.92120151  0.61602865  1  0  0.097942  0  0.960557  0  0  0.104452  0  1.032256  0  0  0.108299  0  1.028578  0  0  0.104503  0.101782  0  1.034562  0
H  H4  1  0.82000290  0.07879915  0.38397110  1  0  0.097852  0  0.960567  0  0  0.104406  0  1.032231  0  0  0.108236  0  1.028571  0  0  0.104488  0.101735  0  1.034538  0
H  H5  1  0.03729660  0.29189743  0.67969186  1  0  0.085543  0  0.994331  0  0  0.092011  0  1.06836  0  0  0.096593  0  1.063002  0  0  0.10206  0.089071  0  1.071554  0
H  H6  1  0.96270583  0.70810225  0.32030710  1  0  0.085558  0  0.994334  0  0  0.092028  0  1.068351  0  0  0.096612  0  1.062991  0  0  0.102062  0.089089  0  1.071545  0
H  H7  1  0.79106361  0.94490113  0.67747720  1  0  0.116011  0  0.940647  0  0  0.121395  0  1.009478  0  0  0.125521  0  1.006295  0  0  0.110014  0.118528  0  1.011507  0
H  H8  1  0.20894073  0.05510256  0.32252731  1  0  0.115975  0  0.940674  0  0  0.121396  0  1.009462  0  0  0.125521  0  1.006282  0  0  0.110042  0.118528  0  1.011492  0
H  H9  1  0.39215350  0.97618505  0.21434640  1  0  0.106163  0  0.978351  0  0  0.114105  0  1.044951  0  0  0.117322  0  1.042975  0  0  0.101632  0.111687  0  1.046635  0
H  H10  1  0.60784353  0.02381761  0.78565619  1  0  0.106116  0  0.978382  0  0  0.114077  0  1.044965  0  0  0.117292  0  1.042994  0  0  0.101618  0.111658  0  1.04665  0
H  H11  1  0.17885490  0.84343818  0.04882767  1  0  0.08605  0  0.941231  0  0  0.09938  0  0.994082  0  0  0.101904  0  0.993479  0  0  0.100959  0.097488  0  0.994647  0
H  H12  1  0.82114509  0.15655947  0.95117334  1  0  0.086067  0  0.941214  0  0  0.099407  0  0.994048  0  0  0.101933  0  0.993448  0  0  0.100975  0.097514  0  0.994616  0
H  H13  1  0.10655957  0.89791994  0.86478627  1  0  0.096749  0  0.972989  0  0  0.105497  0  1.034729  0  0  0.108053  0  1.033961  0  0  0.09943  0.103678  0  1.035187  0
H  H14  1  0.89343853  0.10207370  0.13521236  1  0  0.096722  0  0.97305  0  0  0.105482  0  1.034781  0  0  0.108037  0  1.034016  0  0  0.099415  0.103664  0  1.035238  0
H  H15  1  0.25406823  0.08459893  0.85081435  1  0  0.078621  0  1.003512  0  0  0.088008  0  1.072345  0  0  0.089442  0  1.073375  0  0  0.092472  0.086839  0  1.071802  0
H  H16  1  0.74592646  0.91539772  0.14918199  1  0  0.078594  0  1.003551  0  0  0.088001  0  1.072356  0  0  0.089436  0  1.073385  0  0  0.092491  0.086808  0  1.071836  0
H  H17  1  0.64207880  0.12085172  0.25423337  1  0  0.094005  0  0.925532  0  0  0.108849  0  0.990142  0  0  0.109306  0  0.990054  0  0  0.118924  0.108356  0  0.990322  0
H  H18  1  0.35791937  0.87914694  0.74576433  1  0  0.093966  0  0.925562  0  0  0.108822  0  0.990165  0  0  0.109279  0  0.990078  0  0  0.118904  0.108344  0  0.990352  0
H  H19  1  0.63031406  0.27133202  0.22967321  1  0  0.08758  0  0.939927  0  0  0.101422  0  1.004356  0  0  0.102694  0  1.00267  0  0  0.111081  0.100413  0  1.005619  0
H  H20  1  0.36968455  0.72866865  0.77032597  1  0  0.087538  0  0.939943  0  0  0.101391  0  1.004371  0  0  0.102663  0  1.002682  0  0  0.111074  0.100395  0  1.005646  0
H  H21  1  0.47003770  0.23201931  0.91616126  1  0  0.094587  0  0.927298  0  0  0.106455  0  0.994014  0  0  0.107466  0  0.993476  0  0  0.113942  0.105494  0  0.99464  0
H  H22  1  0.52995800  0.76797735  0.08383531  1  0  0.094597  0  0.927293  0  0  0.106453  0  0.993991  0  0  0.10747  0  0.993453  0  0  0.113931  0.105491  0  0.994625  0
H  H23  1  0.59467290  0.27846026  0.05944316  1  0  0.083966  0  0.93701  0  0  0.097869  0  1.001101  0  0  0.098684  0  1.000804  0  0  0.115191  0.097059  0  1.001612  0
H  H24  1  0.40532745  0.72153439  0.94055547  1  0  0.084016  0  0.937053  0  0  0.09789  0  1.001134  0  0  0.09871  0  1.00084  0  0  0.115196  0.097115  0  1.001613  0
H  H25  1  0.63056481  0.13110881  0.44909778  1  0  0.103642  0  0.940035  0  0  0.113048  0  1.003958  0  0  0.115426  0  1.000987  0  0  0.139129  0.111188  0  1.006141  0
H  H26  1  0.36943560  0.86889086  0.55090071  1  0  0.103629  0  0.940035  0  0  0.11304  0  1.003952  0  0  0.11542  0  1.000975  0  0  0.139115  0.11118  0  1.006136  0
H  H27  1  0.36194365  0.39833649  0.51230128  1  0  0.115537  0  0.953546  0  0  0.125374  0  1.011569  0  0  0.127757  0  1.01071  0  0  0.121609  0.123522  0  1.012514  0
H  H28  1  0.63805757  0.60166217  0.48770029  1  0  0.115548  0  0.953518  0  0  0.125382  0  1.011541  0  0  0.12777  0  1.010674  0  0  0.121609  0.123525  0  1.012497  0
H  H29  1  0.39320994  0.36364235  0.29276808  1  0  0.120207  0  0.942789  0  0  0.133586  0  0.995029  0  0  0.136018  0  0.994482  0  0  0.126879  0.131766  0  0.995662  0
H  H30  1  0.60678644  0.63635730  0.70723349  1  0  0.120226  0  0.942719  0  0  0.133608  0  0.994954  0  0  0.13604  0  0.994409  0  0  0.126884  0.131789  0  0.995589  0
H  H31  1  0.60293886  0.49335835  0.21709804  1  0  0.104752  0  0.978464  0  0  0.109769  0  1.051313  0  0  0.113151  0  1.046725  0  0  0.13511  0.107177  0  1.054647  0
H  H32  1  0.39706193  0.50663831  0.78290126  1  0  0.104752  0  0.978508  0  0  0.109804  0  1.051318  0  0  0.113143  0  1.046783  0  0  0.135127  0.107209  0  1.054657  0
H  H33  1  0.21777288  0.58264502  0.07346181  1  0  0.11128  0  0.941875  0  0  0.123276  0  0.99479  0  0  0.1258  0  0.993588  0  0  0.122403  0.121356  0  0.995843  0
H  H34  1  0.78222921  0.41735766  0.92653952  1  0  0.111273  0  0.941856  0  0  0.123252  0  0.9948  0  0  0.125775  0  0.993599  0  0  0.122385  0.12133  0  0.995854  0
H  H35  1  0.23218851  0.33390490  0.91953522  1  0  0.119188  0  0.955522  0  0  0.131431  0  1.01246  0  0  0.133553  0  1.012161  0  0  0.124593  0.129918  0  1.012664  0
H  H36  1  0.76781233  0.66609679  0.08046315  1  0  0.119224  0  0.955514  0  0  0.131429  0  1.012487  0  0  0.133552  0  1.012187  0  0  0.124614  0.129916  0  1.012691  0
H  H37  1  0.81463398  0.57609206  0.34076302  1  0  0.425447  0  0.881625  0  0  0.392564  0  0.949689  0  0  0.403812  0  0.933281  0  0  0.287325  0.38462  0  0.961232  0
H  H38  1  0.18536752  0.42391263  0.65923716  1  0  0.425483  0  0.881579  0  0  0.392599  0  0.949644  0  0  0.403844  0  0.933241  0  0  0.287363  0.384655  0  0.961187  0
H  H39  1  0.89988972  0.48123487  0.27553040  1  0  0.409998  0  0.836523  0  0  0.394343  0  0.891217  0  0  0.40285  0  0.880969  0  0  0.315222  0.388261  0  0.898548  0
H  H40  1  0.10011236  0.51876782  0.72447013  1  0  0.409966  0  0.836542  0  0  0.394333  0  0.891204  0  0  0.40284  0  0.880956  0  0  0.315229  0.388251  0  0.898533  0
H  H41  1  0.83603086  0.42000481  0.61900863  1  0  0.432682  0  0.864209  0  0  0.403226  0  0.925553  0  0  0.413506  0  0.910504  0  0  0.288323  0.395953  0  0.936193  0
H  H42  1  0.16396920  0.57999787  0.38099145  1  0  0.432606  0  0.864313  0  0  0.403146  0  0.925665  0  0  0.413427  0  0.910616  0  0  0.288278  0.395873  0  0.936306  0
H  H43  1  0.85547553  0.57625201  0.63121704  1  0  0.410398  0  0.906118  0  0  0.379272  0  0.97001  0  0  0.391503  0  0.952386  0  0  0.280579  0.370668  0  0.982429  0
H  H44  1  0.14452757  0.42375067  0.36878611  1  0  0.410453  0  0.906043  0  0  0.379329  0  0.969926  0  0  0.391563  0  0.952301  0  0  0.280596  0.370725  0  0.982346  0
C  C45  1  0.98410652  0.91919756  0.64565024  1  0  -0.064567  0  3.742199  0  0  -0.035666  0  3.977341  0  0  -0.045449  0  3.99912  0  0  -0.013603  -0.029638  0  3.962269  0
C  C46  1  0.01589412  0.08080311  0.35435019  1  0  -0.064566  0  3.74211  0  0  -0.035672  0  3.977271  0  0  -0.045455  0  3.999048  0  0  -0.013597  -0.029643  0  3.962201  0
C  C47  1  0.10416893  0.98050177  0.63591108  1  0  -0.052226  0  3.698502  0  0  -0.092645  0  3.949811  0  0  -0.087776  0  3.966625  0  0  -0.070654  -0.094759  0  3.937645  0
C  C48  1  0.89582990  0.01949990  0.36408923  1  0  -0.052018  0  3.698287  0  0  -0.092451  0  3.949577  0  0  -0.087566  0  3.966393  0  0  -0.070599  -0.094564  0  3.93741  0
C  C49  1  0.12739583  0.11637184  0.65261636  1  0  -0.088906  0  3.799017  0  0  -0.061092  0  4.036583  0  0  -0.071847  0  4.060203  0  0  -0.024503  -0.054552  0  4.02138  0
C  C50  1  0.87260401  0.88362983  0.34738498  1  0  -0.088949  0  3.799017  0  0  -0.061177  0  4.036668  0  0  -0.071931  0  4.06028  0  0  -0.024524  -0.054638  0  4.021465  0
C  C51  1  0.02475890  0.18791721  0.67178097  1  0  -0.055738  0  3.720543  0  0  -0.09671  0  3.971421  0  0  -0.092122  0  3.98862  0  0  -0.076625  -0.099073  0  3.959545  0
C  C52  1  0.97524152  0.81208247  0.32821832  1  0  -0.055797  0  3.720517  0  0  -0.096733  0  3.971391  0  0  -0.092146  0  3.98859  0  0  -0.076625  -0.099095  0  3.959515  0
C  C53  1  0.90295684  0.12724402  0.67949781  1  0  -0.081307  0  3.768901  0  0  -0.054242  0  4.005517  0  0  -0.06523  0  4.02958  0  0  -0.022947  -0.047543  0  3.990019  0
C  C54  1  0.09704525  0.87275866  0.32050432  1  0  -0.081247  0  3.768801  0  0  -0.054223  0  4.005452  0  0  -0.06521  0  4.029515  0  0  -0.02293  -0.047524  0  3.989954  0
C  C55  1  0.88400799  0.99298318  0.66912148  1  0  -0.039036  0  3.642444  0  0  -0.079181  0  3.890373  0  0  -0.07365  0  3.906128  0  0  -0.06545  -0.081927  0  3.879216  0
C  C56  1  0.11599511  0.00701951  0.33088008  1  0  -0.039057  0  3.642431  0  0  -0.079228  0  3.890378  0  0  -0.073697  0  3.906136  0  0  -0.065492  -0.081976  0  3.879223  0
C  C57  1  0.96450364  0.77417812  0.63113173  1  0  0.653382  0  3.910783  0  0  0.600528  0  4.208301  0  0  0.634955  0  4.201449  0  0  0.207192  0.577047  0  4.212334  0
C  C58  1  0.03549801  0.22582256  0.36886972  1  0  0.65332  0  3.910885  0  0  0.600456  0  4.208418  0  0  0.634883  0  4.201564  0  0  0.20715  0.576976  0  4.212449  0
C  C59  1  0.26125589  0.18653450  0.65474762  1  0  0.643249  0  3.908931  0  0  0.591068  0  4.200486  0  0  0.624983  0  4.194541  0  0  0.204386  0.56774  0  4.204083  0
C  C60  1  0.73874859  0.81346518  0.34525418  1  0  0.64334  0  3.908912  0  0  0.591116  0  4.200513  0  0  0.62503  0  4.194565  0  0  0.204415  0.56779  0  4.204113  0
C  C61  1  0.79541426  0.20899202  0.69641912  1  0  0.638595  0  3.928232  0  0  0.589039  0  4.218838  0  0  0.622342  0  4.213178  0  0  0.203067  0.566181  0  4.222182  0
C  C62  1  0.20458435  0.79100865  0.30358086  1  0  0.638636  0  3.928066  0  0  0.589103  0  4.218659  0  0  0.622405  0  4.212998  0  0  0.203049  0.566247  0  4.222004  0
C  C63  1  0.44492015  0.10818782  0.12856950  1  0  0.025777  0  3.721053  0  0  0.039113  0  3.963417  0  0  0.037545  0  3.988274  0  0  -0.011413  0.040084  0  3.946617  0
C  C64  1  0.55507600  0.89181084  0.87142934  1  0  0.025718  0  3.721036  0  0  0.039082  0  3.963383  0  0  0.037516  0  3.988235  0  0  -0.011414  0.040072  0  3.946594  0
C  C65  1  0.36291168  0.00022027  0.13418690  1  0  -0.111571  0  3.733659  0  0  -0.133911  0  3.985609  0  0  -0.136586  0  4.007482  0  0  -0.091231  -0.132038  0  3.970796  0
C  C66  1  0.63708729  0.99977739  0.86581229  1  0  -0.111516  0  3.733611  0  0  -0.133873  0  3.98555  0  0  -0.136551  0  4.007425  0  0  -0.091233  -0.131998  0  3.970731  0
C  C67  1  0.24209350  0.92495761  0.04071136  1  0  -0.060152  0  3.776349  0  0  -0.070555  0  4.020421  0  0  -0.072648  0  4.042429  0  0  -0.088153  -0.069004  0  4.005138  0
C  C68  1  0.75790345  0.07504004  0.95928817  1  0  -0.06014  0  3.776291  0  0  -0.070549  0  4.02037  0  0  -0.072647  0  4.04238  0  0  -0.088144  -0.068998  0  4.005088  0
C  C69  1  0.20165231  0.95553333  0.93808414  1  0  -0.067165  0  3.766216  0  0  -0.077692  0  4.006806  0  0  -0.07973  0  4.029098  0  0  -0.09169  -0.076119  0  3.991141  0
C  C70  1  0.79834557  0.04445931  0.06191336  1  0  -0.067367  0  3.766509  0  0  -0.077928  0  4.00716  0  0  -0.079962  0  4.029444  0  0  -0.091806  -0.076349  0  3.99148  0
C  C71  1  0.28390945  0.06134416  0.93127791  1  0  -0.118486  0  3.767421  0  0  -0.137504  0  4.013211  0  0  -0.14061  0  4.036825  0  0  -0.09641  -0.135259  0  3.997177  0
C  C72  1  0.71608706  0.93865149  0.06871935  1  0  -0.118221  0  3.767548  0  0  -0.137244  0  4.013298  0  0  -0.140347  0  4.036907  0  0  -0.09631  -0.13498  0  3.997274  0
C  C73  1  0.40502183  0.13915843  0.02544173  1  0  0.01725  0  3.733152  0  0  0.031468  0  3.972312  0  0  0.029669  0  3.997482  0  0  -0.015719  0.032651  0  3.955299  0
C  C74  1  0.59497249  0.86084123  0.97455460  1  0  0.0172  0  3.733356  0  0  0.03138  0  3.972475  0  0  0.02959  0  3.99765  0  0  -0.015791  0.032569  0  3.955461  0
C  C75  1  0.57077674  0.18671327  0.23756939  1  0  -0.037952  0  3.640272  0  0  -0.106189  0  3.890987  0  0  -0.101261  0  3.901239  0  0  -0.043207  -0.109246  0  3.883933  0
C  C76  1  0.42921983  0.81328740  0.76242773  1  0  -0.037784  0  3.640085  0  0  -0.106064  0  3.890818  0  0  -0.101136  0  3.901069  0  0  -0.043134  -0.109193  0  3.883859  0
C  C77  1  0.48319636  0.25564493  0.01109416  1  0  -0.043308  0  3.64986  0  0  -0.112387  0  3.904185  0  0  -0.107583  0  3.914713  0  0  -0.047491  -0.11548  0  3.897302  0
C  C78  1  0.51679934  0.74435173  0.98890081  1  0  -0.043355  0  3.649937  0  0  -0.112318  0  3.904082  0  0  -0.107542  0  3.914649  0  0  -0.047436  -0.115449  0  3.897207  0
C  C79  1  0.56510202  0.20239336  0.44021789  1  0  0.176915  0  3.631331  0  0  0.114676  0  3.89325  0  0  0.12875  0  3.905842  0  0  0.150089  0.105437  0  3.88466  0
C  C80  1  0.43489985  0.79760832  0.55978231  1  0  0.176766  0  3.631342  0  0  0.114534  0  3.893269  0  0  0.128608  0  3.905866  0  0  0.150017  0.105296  0  3.884675  0
C  C81  1  0.42435885  0.33968504  0.46795602  1  0  0.02457  0  3.734857  0  0  -0.012391  0  4.003599  0  0  -0.009826  0  4.023273  0  0  0.004873  -0.01433  0  3.990593  0
C  C82  1  0.57564157  0.66031462  0.53204407  1  0  0.024538  0  3.73489  0  0  -0.012413  0  4.00364  0  0  -0.009849  0  4.023311  0  0  0.004875  -0.014355  0  3.990634  0
C  C83  1  0.43972134  0.32401661  0.35960276  1  0  -0.050027  0  3.64717  0  0  -0.091031  0  3.906132  0  0  -0.090109  0  3.924466  0  0  0.007376  -0.091686  0  3.894095  0
C  C84  1  0.56027929  0.67598406  0.64039687  1  0  -0.050055  0  3.647163  0  0  -0.091059  0  3.906115  0  0  -0.090137  0  3.92445  0  0  0.007384  -0.091714  0  3.894075  0
C  C85  1  0.50012114  0.48536642  0.15837185  1  0  0.156089  0  3.655725  0  0  0.090946  0  3.926923  0  0  0.104853  0  3.938976  0  0  0.140821  0.082114  0  3.918242  0
C  C86  1  0.49987945  0.51462923  0.84163030  1  0  0.156146  0  3.655802  0  0  0.090969  0  3.927005  0  0  0.104908  0  3.939089  0  0  0.140789  0.082129  0  3.918324  0
C  C87  1  0.30031481  0.52768177  0.07947592  1  0  0.009919  0  3.745787  0  0  -0.023117  0  4.00762  0  0  -0.020912  0  4.026991  0  0  0.001768  -0.024763  0  3.994921  0
C  C88  1  0.69968626  0.47232091  0.92052439  1  0  0.009942  0  3.745844  0  0  -0.023085  0  4.00768  0  0  -0.020876  0  4.027054  0  0  0.001796  -0.024733  0  3.994977  0
C  C89  1  0.30586757  0.40472339  0.00337108  1  0  -0.064101  0  3.667362  0  0  -0.103854  0  3.920704  0  0  -0.103039  0  3.940731  0  0  0.00114  -0.10474  0  3.907726  0
C  C90  1  0.69413407  0.59527729  0.99662878  1  0  -0.064128  0  3.667337  0  0  -0.103853  0  3.920695  0  0  -0.103037  0  3.94072  0  0  0.001115  -0.104739  0  3.907719  0
N  N91  1  0.50318980  0.26368030  0.51745520  1  0  -0.390963  0  3.333671  0  0  -0.307976  0  3.634575  0  0  -0.32885  0  3.647263  0  0  -0.362746  -0.293661  0  3.625798  0
N  N92  1  0.49681062  0.73631936  0.48254489  1  0  -0.390786  0  3.333637  0  0  -0.307809  0  3.634531  0  0  -0.328696  0  3.64724  0  0  -0.362667  -0.2935  0  3.625762  0
N  N93  1  0.52962821  0.23783898  0.34396814  1  0  -0.051082  0  3.572167  0  0  0.043686  0  3.789488  0  0  0.029149  0  3.815832  0  0  -0.238573  0.053238  0  3.771731  0
N  N94  1  0.47037242  0.76216169  0.65603149  1  0  -0.051058  0  3.572179  0  0  0.043712  0  3.7895  0  0  0.029176  0  3.815843  0  0  -0.238592  0.053284  0  3.771756  0
N  N95  1  0.42226950  0.57722018  0.17589518  1  0  -0.384312  0  3.311382  0  0  -0.303812  0  3.61473  0  0  -0.323262  0  3.625392  0  0  -0.357861  -0.290253  0  3.606968  0
N  N96  1  0.57773395  0.42277950  0.82410399  1  0  -0.384357  0  3.311424  0  0  -0.30386  0  3.614792  0  0  -0.323304  0  3.625434  0  0  -0.357863  -0.290274  0  3.607004  0
N  N97  1  0.43300647  0.37962840  0.05484319  1  0  -0.054197  0  3.556533  0  0  0.039941  0  3.775574  0  0  0.024956  0  3.802461  0  0  -0.237669  0.049908  0  3.75742  0
N  N98  1  0.56699250  0.62036927  0.94515440  1  0  -0.05424  0  3.556507  0  0  0.039874  0  3.77552  0  0  0.024899  0  3.802403  0  0  -0.237666  0.049842  0  3.757381  0
O  O99  1  0.02027260  0.70207221  0.55996230  1  0  -0.659512  0  2.047757  0  0  -0.590755  0  2.309346  0  0  -0.621436  0  2.297915  0  0  -0.328161  -0.569264  0  2.316043  0
O  O100  1  0.97972928  0.29792945  0.44004189  1  0  -0.659585  0  2.047724  0  0  -0.590807  0  2.309295  0  0  -0.621487  0  2.29786  0  0  -0.328179  -0.569317  0  2.315991  0
O  O101  1  0.89763698  0.73602811  0.68938316  1  0  -0.620923  0  1.944198  0  0  -0.569944  0  2.154337  0  0  -0.593449  0  2.144412  0  0  -0.322493  -0.553717  0  2.160766  0
O  O102  1  0.10236063  0.26397255  0.31061898  1  0  -0.620833  0  1.944334  0  0  -0.569856  0  2.154476  0  0  -0.59336  0  2.144551  0  0  -0.322443  -0.553631  0  2.160902  0
O  O103  1  0.67873952  0.14613064  0.69204112  1  0  -0.63838  0  2.03571  0  0  -0.562818  0  2.30081  0  0  -0.590478  0  2.286233  0  0  -0.32733  -0.541919  0  2.311161  0
O  O104  1  0.32125909  0.85387003  0.30795886  1  0  -0.638361  0  2.035602  0  0  -0.562832  0  2.300728  0  0  -0.590503  0  2.286162  0  0  -0.32731  -0.541935  0  2.311071  0
O  O105  1  0.82073491  0.33142690  0.71207285  1  0  -0.648324  0  1.964473  0  0  -0.597118  0  2.184729  0  0  -0.6198  0  2.173936  0  0  -0.328517  -0.580979  0  2.191541  0
O  O106  1  0.17926469  0.66857378  0.28792416  1  0  -0.648361  0  1.964417  0  0  -0.597151  0  2.184663  0  0  -0.619834  0  2.173869  0  0  -0.32851  -0.581016  0  2.191479  0
O  O107  1  0.27198353  0.30058499  0.64688077  1  0  -0.637547  0  2.013686  0  0  -0.574149  0  2.24092  0  0  -0.600188  0  2.232633  0  0  -0.30853  -0.555424  0  2.245573  0
O  O108  1  0.72802116  0.69941569  0.35311977  1  0  -0.63758  0  2.013663  0  0  -0.574148  0  2.240906  0  0  -0.600202  0  2.232644  0  0  -0.308557  -0.555426  0  2.245561  0
O  O109  1  0.36474518  0.12780652  0.66933278  1  0  -0.634088  0  1.992843  0  0  -0.566469  0  2.261322  0  0  -0.593493  0  2.24676  0  0  -0.328475  -0.546441  0  2.271988  0
O  O110  1  0.63525640  0.87218914  0.33066801  1  0  -0.634179  0  1.992887  0  0  -0.566533  0  2.261388  0  0  -0.593567  0  2.246833  0  0  -0.328511  -0.546508  0  2.272051  0
O  O111  1  0.83999718  0.48558905  0.32415529  1  0  -0.809763  0  1.83388  0  0  -0.761009  0  2.018173  0  0  -0.779571  0  1.988025  0  0  -0.568399  -0.747908  0  2.039043  0
O  O112  1  0.16000613  0.51441463  0.67584741  1  0  -0.809766  0  1.833855  0  0  -0.761034  0  2.018143  0  0  -0.779595  0  1.98799  0  0  -0.568446  -0.747934  0  2.039013  0
O  O113  1  0.84122825  0.47994939  0.57464767  1  0  -0.855851  0  1.869273  0  0  -0.793438  0  2.059949  0  0  -0.816121  0  2.025168  0  0  -0.587421  -0.777675  0  2.084057  0
O  O114  1  0.15877629  0.52005530  0.42535479  1  0  -0.855827  0  1.869292  0  0  -0.793416  0  2.05997  0  0  -0.816099  0  2.02518  0  0  -0.587403  -0.777655  0  2.084082  0
