# generated using pymatgen
data_NiH8(C5N7)2
_symmetry_space_group_name_H-M   'P 1'
_cell_length_a   8.10703263
_cell_length_b   8.14434335
_cell_length_c   11.79292307
_cell_angle_alpha   109.78564153
_cell_angle_beta   90.80702594
_cell_angle_gamma   98.12872822
_symmetry_Int_Tables_number   1
_chemical_formula_structural   NiH8(C5N7)2
_chemical_formula_sum   'Ni2 H16 C20 N28'
_cell_volume   723.71113439
_cell_formula_units_Z   2
loop_
 _symmetry_equiv_pos_site_id
 _symmetry_equiv_pos_as_xyz
  1  'x, y, z'
loop_
 _atom_site_type_symbol
 _atom_site_label
 _atom_site_symmetry_multiplicity
 _atom_site_fract_x
 _atom_site_fract_y
 _atom_site_fract_z
 _atom_site_occupancy
 _atom_site_hle17_ddec_charge
 _atom_site_hle17_ddec_spin_density
 _atom_site_hle17_ddec_sum_bond_order
 _atom_site_hle17_magmom
 _atom_site_hse06_10hf_ddec_charge
 _atom_site_hse06_10hf_ddec_spin_density
 _atom_site_hse06_10hf_ddec_sum_bond_order
 _atom_site_hse06_10hf_magmom
 _atom_site_hse06_ddec_charge
 _atom_site_hse06_ddec_spin_density
 _atom_site_hse06_ddec_sum_bond_order
 _atom_site_hse06_magmom
 _atom_site_pbe_cm5_charge
 _atom_site_pbe_ddec_charge
 _atom_site_pbe_ddec_spin_density
 _atom_site_pbe_ddec_sum_bond_order
 _atom_site_pbe_magmom
Ni  Ni0  1  0.29910513  0.48771255  0.51743391  1  0.654341  -1.670226  2.323315  -1.32  0.699108  -1.74489  2.714221  -1.484  0.799211  -1.881207  2.634944  -1.622  0.673253  0.628302  -1.57773  2.770385  -1.324
Ni  Ni1  1  0.70090209  0.51229168  0.48256792  1  0.654179  1.670205  2.32333  1.32  0.69902  1.744899  2.71419  1.484  0.799139  1.881213  2.634875  1.622  0.673188  0.628207  1.577721  2.77038  1.324
H  H2  1  0.33672461  0.64621610  0.78891203  1  0.080179  -0.000645  0.98114  -0.001  0.082865  -0.000458  1.055775  -0.001  0.084691  -0.000299  1.052693  -0.001  0.114573  0.081431  -0.000611  1.058226  -0.001
H  H3  1  0.66326661  0.35378025  0.21109031  1  0.080157  0.000644  0.981121  0.001  0.082813  0.000457  1.055783  0.001  0.084639  0.0003  1.052702  0.001  0.114549  0.081384  0.000611  1.058236  0.001
H  H4  1  0.35723758  0.54500301  0.96416697  1  0.12439  -0.000198  0.945479  0.0  0.133142  -0.000282  1.006955  0.0  0.136505  -0.000211  1.006037  0.0  0.111266  0.130853  -0.000343  1.007639  0.0
H  H5  1  0.64274811  0.45498939  0.03583523  1  0.124499  0.000195  0.94544  0.0  0.133237  0.000282  1.006922  0.0  0.136601  0.000211  1.006003  0.0  0.111299  0.130947  0.000343  1.0076  0.0
H  H6  1  0.29954008  0.00916909  0.71050642  1  0.119593  0.000316  0.973064  0.0  0.124558  0.000247  1.043122  0.0  0.127517  0.00025  1.043017  0.0  0.105482  0.12235  0.000232  1.043455  0.0
H  H7  1  0.70046700  0.99082591  0.28948899  1  0.119625  -0.000312  0.972993  0.0  0.1246  -0.000247  1.043061  0.0  0.127561  -0.00025  1.042953  0.0  0.105514  0.122397  -0.000232  1.043395  0.0
H  H8  1  0.28652143  0.13627561  0.54546705  1  0.078028  -0.000661  0.955027  -0.001  0.087121  -0.000551  1.019853  -0.001  0.08917  -0.000406  1.016896  -0.001  0.115976  0.085529  -0.000683  1.022247  -0.001
H  H9  1  0.71349670  0.86372727  0.45453119  1  0.077945  0.000662  0.955123  0.001  0.087044  0.000551  1.019956  0.001  0.089091  0.000406  1.017002  0.001  0.115973  0.085462  0.000683  1.022343  0.001
H  H10  1  0.29485480  0.83919819  0.49413449  1  0.074837  -0.000524  0.955519  -0.001  0.083651  -0.000498  1.019495  -0.001  0.085396  -0.000375  1.017584  -0.001  0.116275  0.082233  -0.000604  1.021306  -0.001
H  H11  1  0.70515037  0.16080871  0.50586540  1  0.0748  0.000525  0.955429  0.001  0.083639  0.000498  1.019383  0.001  0.085383  0.000375  1.017473  0.001  0.116296  0.082223  0.000604  1.021197  0.001
H  H12  1  0.18026468  0.96189314  0.34717283  1  0.118252  0.000239  0.975238  0.0  0.123393  0.000211  1.045047  0.0  0.126578  0.000266  1.044131  0.0  0.106945  0.120956  0.000136  1.046056  0.0
H  H13  1  0.81973516  0.03811113  0.65282638  1  0.11826  -0.00024  0.975247  0.0  0.123393  -0.000211  1.045063  0.0  0.126582  -0.000266  1.044144  0.0  0.106948  0.120958  -0.000136  1.046071  0.0
H  H14  1  0.10778481  0.43133501  0.08555715  1  0.119328  -0.000224  0.967724  0.0  0.1199  -0.000286  1.043589  0.0  0.124102  -0.000211  1.041708  0.0  0.10688  0.117053  -0.000353  1.044879  0.0
H  H15  1  0.89220578  0.56866532  0.91444527  1  0.119357  0.000225  0.967653  0.0  0.119905  0.000286  1.043533  0.0  0.124108  0.000211  1.041652  0.0  0.106873  0.117058  0.000353  1.044823  0.0
H  H16  1  0.21944190  0.33196568  0.24499148  1  0.073458  -0.000581  0.983093  -0.001  0.076195  -0.000459  1.05807  -0.001  0.077555  -0.00033  1.056204  -0.001  0.113774  0.075034  -0.000574  1.059754  -0.001
H  H17  1  0.78055176  0.66803861  0.75501106  1  0.073532  0.00058  0.982935  0.001  0.076179  0.000459  1.058007  0.001  0.077536  0.00033  1.056143  0.001  0.113778  0.075064  0.000574  1.05965  0.001
C  C18  1  0.33224789  0.50665623  0.77474691  1  0.144162  0.008366  3.687053  0.01  0.115869  0.001907  3.943977  0.003  0.126412  0.002365  3.962048  0.004  0.046693  0.108443  0.001676  3.932175  0.003
C  C19  1  0.66774828  0.49334012  0.22525294  1  0.144234  -0.008335  3.686997  -0.01  0.115948  -0.001907  3.943919  -0.003  0.126488  -0.002365  3.961994  -0.004  0.046719  0.108526  -0.001675  3.932118  -0.003
C  C20  1  0.34250595  0.44990345  0.87265105  1  -0.19477  -0.008502  3.69162  -0.01  -0.217076  -0.00274  3.946519  -0.003  -0.22546  -0.002775  3.963236  -0.003  -0.088002  -0.211584  -0.002797  3.93549  -0.004
C  C21  1  0.65749125  0.55009157  0.12734849  1  -0.194897  0.008473  3.691677  0.01  -0.217198  0.002739  3.946534  0.003  -0.225582  0.002773  3.963248  0.003  -0.087972  -0.211694  0.002797  3.935493  0.004
C  C22  1  0.33228079  0.26868771  0.85156913  1  0.241854  0.00806  3.845476  0.009  0.238657  0.002626  4.106437  0.003  0.251911  0.002558  4.123528  0.003  0.110522  0.22952  0.002934  4.094946  0.003
C  C23  1  0.66771765  0.73130732  0.14842874  1  0.241846  -0.00803  3.845481  -0.009  0.238698  -0.002626  4.106366  -0.003  0.251953  -0.002557  4.123456  -0.003  0.110566  0.229564  -0.002934  4.094873  -0.003
C  C24  1  0.31020761  0.15145576  0.73166262  1  -0.222794  -0.007939  3.713607  -0.009  -0.24245  -0.002261  3.964218  -0.003  -0.253199  -0.002347  3.984184  -0.003  -0.101231  -0.23548  -0.002293  3.951365  -0.003
C  C25  1  0.68979720  0.84854057  0.26833477  1  -0.222831  0.007902  3.713653  0.009  -0.242526  0.002261  3.964251  0.003  -0.253279  0.002345  3.984212  0.003  -0.101224  -0.235554  0.002293  3.951401  0.003
C  C26  1  0.30281324  0.22138338  0.63978666  1  0.146875  0.008283  3.696266  0.01  0.119971  0.001844  3.951448  0.003  0.131177  0.002315  3.968758  0.004  0.045489  0.112068  0.001606  3.940254  0.003
C  C27  1  0.69719729  0.77861821  0.36021119  1  0.147012  -0.008265  3.696321  -0.01  0.120073  -0.001846  3.951515  -0.003  0.131277  -0.002315  3.968832  -0.004  0.045465  0.112174  -0.001606  3.940321  -0.003
C  C28  1  0.25156243  0.75417582  0.40248333  1  0.14254  0.007165  3.7113  0.009  0.116405  0.001218  3.964635  0.002  0.126573  0.001746  3.983324  0.003  0.042208  0.109112  0.000881  3.9526  0.002
C  C29  1  0.74843616  0.24582845  0.59751671  1  0.142686  -0.00718  3.711158  -0.009  0.116539  -0.001217  3.964482  -0.002  0.126707  -0.001745  3.983169  -0.003  0.042231  0.109246  -0.000881  3.952446  -0.002
C  C30  1  0.18925306  0.82176908  0.32051437  1  -0.211055  -0.007304  3.715286  -0.008  -0.23021  -0.002104  3.964281  -0.003  -0.239862  -0.002133  3.983387  -0.003  -0.09562  -0.224037  -0.002193  3.952174  -0.003
C  C31  1  0.81074144  0.17823256  0.67948586  1  -0.211166  0.007316  3.715293  0.009  -0.230297  0.002105  3.964271  0.003  -0.239953  0.002133  3.983373  0.003  -0.09564  -0.224121  0.002193  3.95216  0.003
C  C32  1  0.13687309  0.70453184  0.20368927  1  0.250313  0.007169  3.827252  0.008  0.249306  0.002081  4.080275  0.002  0.261891  0.002113  4.097657  0.003  0.115568  0.240626  0.002251  4.068689  0.003
C  C33  1  0.86312038  0.29547113  0.79631126  1  0.250405  -0.007179  3.827287  -0.008  0.249355  -0.002082  4.080312  -0.002  0.261943  -0.002113  4.097692  -0.003  0.115573  0.240676  -0.002251  4.06872  -0.003
C  C34  1  0.14912648  0.52567026  0.17505025  1  -0.18878  -0.007944  3.684252  -0.009  -0.207781  -0.00262  3.935366  -0.003  -0.216444  -0.00258  3.9522  -0.003  -0.086247  -0.202152  -0.002765  3.924357  -0.004
C  C35  1  0.85086288  0.47433007  0.82495131  1  -0.188873  0.007955  3.68434  0.009  -0.207829  0.002621  3.935416  0.003  -0.21649  0.002581  3.952246  0.003  -0.086285  -0.202199  0.002765  3.924418  0.004
C  C36  1  0.21131923  0.47069935  0.26403947  1  0.144933  0.007557  3.692048  0.009  0.115705  0.001451  3.94842  0.002  0.126011  0.001916  3.967397  0.003  0.043447  0.108419  0.001201  3.936077  0.002
C  C37  1  0.78867546  0.52930361  0.73596276  1  0.144947  -0.007563  3.691981  -0.009  0.115786  -0.001451  3.948373  -0.002  0.126096  -0.001916  3.967348  -0.003  0.043472  0.108467  -0.001201  3.936008  -0.002
N  N38  1  0.47655982  0.32885434  0.42649590  1  -0.485152  0.000153  2.866223  0.0  -0.533792  0.000215  3.225953  0.0  -0.582721  0.000315  3.240833  0.0  -0.295039  -0.49851  0.000131  3.21471  0.0
N  N39  1  0.52343755  0.67114994  0.57350414  1  -0.485338  -0.000145  2.866196  0.0  -0.533962  -0.000216  3.225906  0.0  -0.582888  -0.000314  3.24078  0.0  -0.295097  -0.498682  -0.000129  3.214668  0.0
N  N40  1  0.44703515  0.21387817  0.32917419  1  0.375049  -9e-06  4.165358  0.0  0.430336  -9.6e-05  4.469436  0.0  0.451787  -8.9e-05  4.502618  0.0  0.082883  0.414987  -9.9e-05  4.445718  0.0
N  N41  1  0.55296571  0.78612477  0.67082726  1  0.375207  -4e-06  4.165024  0.0  0.430494  9.4e-05  4.4691  0.0  0.451943  8.6e-05  4.502279  0.0  0.082928  0.415146  9.6e-05  4.445385  0.0
N  N42  1  0.41744869  0.10034058  0.23552905  1  -0.381843  -0.000864  2.400793  -0.001  -0.407592  -0.000652  2.651945  -0.001  -0.419449  -0.000563  2.663838  -0.001  -0.203028  -0.397733  -0.000621  2.643008  -0.001
N  N43  1  0.58255073  0.89966103  0.76447377  1  -0.381873  0.00087  2.400607  0.001  -0.407616  0.00065  2.651745  0.001  -0.419472  0.000559  2.663635  0.001  -0.203006  -0.397757  0.00062  2.642811  0.001
N  N44  1  0.31394996  0.39549808  0.65946075  1  -0.276482  -0.05284  3.309696  -0.075  -0.234174  -0.034875  3.587731  -0.052  -0.266232  -0.029724  3.611244  -0.045  -0.32567  -0.211907  -0.038002  3.571867  -0.055
N  N45  1  0.68605318  0.60450354  0.34053618  1  -0.276504  0.052826  3.309583  0.075  -0.234152  0.034875  3.587563  0.052  -0.266207  0.029724  3.611076  0.045  -0.325685  -0.211883  0.038002  3.571706  0.055
N  N46  1  0.34279929  0.21831847  0.95365052  1  -0.256155  -0.001046  3.006322  -0.002  -0.242624  -6.1e-05  3.287732  0.0  -0.262933  -0.000135  3.304069  0.0  -0.151172  -0.22868  -5.5e-05  3.276577  0.0
N  N47  1  0.65719895  0.78167523  0.04634788  1  -0.256033  0.001047  3.006163  0.002  -0.242507  6.3e-05  3.287547  0.0  -0.262816  0.000136  3.303889  0.0  -0.151202  -0.228556  5.6e-05  3.276382  0.0
N  N48  1  0.32917106  0.06058988  0.94314586  1  0.337462  0.000171  3.99896  0.0  0.363294  5.9e-05  4.308054  0.0  0.375648  -1.5e-05  4.329824  0.0  0.145435  0.354616  0.00015  4.293759  0.0
N  N49  1  0.67083068  0.93940249  0.05685057  1  0.337407  -0.000171  3.998985  0.0  0.363225  -5.9e-05  4.308091  0.0  0.375579  1.3e-05  4.329868  0.0  0.145494  0.354547  -0.00015  4.29379  0.0
N  N50  1  0.31740121  0.92286883  0.95030551  1  -0.156745  0.003083  2.424292  0.004  -0.166116  0.000951  2.6672  0.001  -0.162565  0.001004  2.673421  0.001  -0.050397  -0.168767  0.001061  2.66363  0.002
N  N51  1  0.68260073  0.07712485  0.04969377  1  -0.156823  -0.003079  2.424464  -0.004  -0.166156  -0.000953  2.667321  -0.001  -0.162607  -0.001003  2.673545  -0.001  -0.050467  -0.168802  -0.001061  2.663748  -0.002
N  N52  1  0.26021823  0.58138994  0.37695017  1  -0.290963  -0.054118  3.30685  -0.076  -0.248277  -0.036139  3.582195  -0.053  -0.280415  -0.030359  3.607544  -0.045  -0.327962  -0.225964  -0.040075  3.564971  -0.057
N  N53  1  0.73978016  0.41861300  0.62305295  1  -0.291004  0.054128  3.306915  0.076  -0.248342  0.036138  3.582257  0.053  -0.280482  0.030358  3.607604  0.045  -0.327972  -0.226032  0.040077  3.565057  0.057
N  N54  1  0.07112770  0.75506105  0.11202168  1  -0.251217  -0.001022  3.010426  -0.002  -0.23487  -4.6e-05  3.28547  0.0  -0.254272  -0.000133  3.300522  0.0  -0.145098  -0.221582  -2e-05  3.275209  0.0
N  N55  1  0.92886907  0.24493927  0.88797657  1  -0.251354  0.001022  3.010468  0.002  -0.234976  4.4e-05  3.285493  0.0  -0.254381  0.000134  3.300545  0.0  -0.145113  -0.221687  2e-05  3.275231  0.0
N  N56  1  0.05832310  0.91149940  0.13257497  1  0.344293  0.000299  3.994036  0.0  0.371168  8.7e-05  4.301003  0.0  0.384266  2.5e-05  4.32215  0.0  0.145984  0.362068  0.000169  4.28709  0.0
N  N57  1  0.94167940  0.08850618  0.86742374  1  0.344454  -0.000309  3.993907  0.0  0.371319  -8.8e-05  4.300854  0.0  0.384421  -2.5e-05  4.322003  0.0  0.146061  0.362219  -0.000169  4.286937  0.0
N  N58  1  0.03704089  0.04978964  0.13732237  1  -0.173441  0.002836  2.408338  0.004  -0.179047  0.000814  2.642396  0.001  -0.177198  0.000859  2.650384  0.001  -0.060604  -0.180662  0.000905  2.637591  0.001
N  N59  1  0.96296985  0.95021328  0.86267494  1  -0.173526  -0.002829  2.408238  -0.004  -0.179143  -0.000811  2.642303  -0.001  -0.177303  -0.000859  2.650297  -0.001  -0.060663  -0.180755  -0.000905  2.637501  -0.001
N  N60  1  0.10422956  0.28204866  0.43832181  1  -0.428824  0.041442  2.6703  0.05  -0.469765  0.024007  2.984404  0.03  -0.500086  0.028092  2.995168  0.037  -0.249238  -0.446728  0.020988  2.976027  0.026
N  N61  1  0.89577908  0.71795687  0.56168373  1  -0.428957  -0.041439  2.670532  -0.05  -0.469889  -0.024005  2.984642  -0.03  -0.500213  -0.028088  2.995401  -0.037  -0.249296  -0.44687  -0.020979  2.976312  -0.026
N  N62  1  0.83932500  0.32748288  0.37650839  1  -0.420523  -0.042071  2.679535  -0.05  -0.460803  -0.024125  2.994667  -0.03  -0.491283  -0.028188  3.005822  -0.037  -0.243734  -0.437819  -0.021106  2.986221  -0.026
N  N63  1  0.16068266  0.67251607  0.62349135  1  -0.420543  0.042071  2.679643  0.05  -0.460802  0.024123  2.994769  0.03  -0.491276  0.028187  3.005917  0.037  -0.243706  -0.437808  0.021111  2.986299  0.026
N  N64  1  0.97222291  0.30788675  0.40886685  1  0.368942  3e-05  4.174043  0.0  0.423967  -9.1e-05  4.481395  0.0  0.445748  -4.2e-05  4.517515  0.0  0.080386  0.408008  -0.000134  4.454771  0.0
N  N65  1  0.02778391  0.69211482  0.59113774  1  0.369088  -2e-05  4.174293  0.0  0.424092  8.8e-05  4.481658  0.0  0.445874  3.8e-05  4.517777  0.0  0.080407  0.408129  0.000127  4.455031  0.0
