# generated using pymatgen
data_CdH8C10(N4Cl)2
_symmetry_space_group_name_H-M   'P 1'
_cell_length_a   6.98060429
_cell_length_b   8.57675989
_cell_length_c   12.05067787
_cell_angle_alpha   90.89769533
_cell_angle_beta   83.57352109
_cell_angle_gamma   83.10046023
_symmetry_Int_Tables_number   1
_chemical_formula_structural   CdH8C10(N4Cl)2
_chemical_formula_sum   'Cd2 H16 C20 N16 Cl4'
_cell_volume   711.45018986
_cell_formula_units_Z   2
loop_
 _symmetry_equiv_pos_site_id
 _symmetry_equiv_pos_as_xyz
  1  'x, y, z'
loop_
 _atom_site_type_symbol
 _atom_site_label
 _atom_site_symmetry_multiplicity
 _atom_site_fract_x
 _atom_site_fract_y
 _atom_site_fract_z
 _atom_site_occupancy
 _atom_site_hle17_bader_spin_density
 _atom_site_hle17_ddec_charge
 _atom_site_hle17_ddec_spin_density
 _atom_site_hle17_ddec_sum_bond_order
 _atom_site_hle17_magmom
 _atom_site_hse06_10hf_bader_spin_density
 _atom_site_hse06_10hf_ddec_charge
 _atom_site_hse06_10hf_ddec_spin_density
 _atom_site_hse06_10hf_ddec_sum_bond_order
 _atom_site_hse06_10hf_magmom
 _atom_site_hse06_bader_spin_density
 _atom_site_hse06_ddec_charge
 _atom_site_hse06_ddec_spin_density
 _atom_site_hse06_ddec_sum_bond_order
 _atom_site_hse06_magmom
 _atom_site_pbe_bader_spin_density
 _atom_site_pbe_cm5_charge
 _atom_site_pbe_ddec_charge
 _atom_site_pbe_ddec_spin_density
 _atom_site_pbe_ddec_sum_bond_order
 _atom_site_pbe_magmom
Cd  Cd0  1  0.24574225  0.97188028  0.05958076  1  0  0.945835  0  1.999907  0  0  0.77986  0  2.470276  0  0  0.825967  0  2.42973  0  0  0.583722  0.747344  0  2.497701  0
Cd  Cd1  1  0.75426172  0.02812016  0.94041977  1  0  0.945809  0  1.999923  0  0  0.779829  0  2.470292  0  0  0.825937  0  2.429745  0  0  0.583731  0.747311  0  2.497723  0
H  H2  1  0.19756549  0.72706877  0.49597115  1  0  0.290742  0  0.928897  0  0  0.273166  0  1.004722  0  0  0.279554  0  0.999322  0  0  0.30442  0.268555  0  1.008522  0
H  H3  1  0.80243387  0.27293297  0.50403210  1  0  0.290638  0  0.928984  0  0  0.273168  0  1.004678  0  0  0.279555  0  0.999278  0  0  0.304412  0.268557  0  1.008476  0
H  H4  1  0.22236337  0.88567737  0.58727447  1  0  0.303583  0  0.923189  0  0  0.283628  0  0.997772  0  0  0.291175  0  0.991021  0  0  0.305508  0.278183  0  1.002578  0
H  H5  1  0.77763703  0.11432783  0.41272705  1  0  0.303529  0  0.923301  0  0  0.283607  0  0.997821  0  0  0.291155  0  0.991069  0  0  0.305515  0.278162  0  1.002626  0
H  H6  1  0.13839393  0.59404592  0.02741128  1  0  0.087586  0  0.921191  0  0  0.096321  0  0.983322  0  0  0.098877  0  0.980601  0  0  0.118063  0.094376  0  0.985367  0
H  H7  1  0.86161024  0.40595333  0.97258841  1  0  0.087564  0  0.921049  0  0  0.096269  0  0.983229  0  0  0.098823  0  0.980507  0  0  0.11802  0.094327  0  0.985273  0
H  H8  1  0.10095291  0.35365100  0.14688399  1  0  0.127166  0  0.980767  0  0  0.130918  0  1.048442  0  0  0.134744  0  1.046908  0  0  0.096551  0.128105  0  1.049852  0
H  H9  1  0.89903864  0.64634493  0.85311885  1  0  0.127256  0  0.980706  0  0  0.13102  0  1.048346  0  0  0.134834  0  1.046825  0  0  0.096604  0.128207  0  1.049757  0
H  H10  1  0.12576699  0.38678456  0.35293209  1  0  0.084436  0  0.950372  0  0  0.08847  0  1.018291  0  0  0.091685  0  1.01483  0  0  0.116429  0.086074  0  1.02085  0
H  H11  1  0.87423188  0.61322071  0.64707117  1  0  0.084437  0  0.950429  0  0  0.088469  0  1.018345  0  0  0.091684  0  1.014884  0  0  0.116439  0.086074  0  1.020904  0
H  H12  1  0.41196425  0.51506980  0.59926025  1  0  0.079613  0  0.935132  0  0  0.087889  0  0.998223  0  0  0.091342  0  0.994365  0  0  0.115615  0.085322  0  1.001074  0
H  H13  1  0.58803022  0.48493875  0.40073491  1  0  0.079557  0  0.935262  0  0  0.087841  0  0.998335  0  0  0.091295  0  0.994476  0  0  0.115616  0.085276  0  1.001179  0
H  H14  1  0.34910927  0.40020029  0.79082081  1  0  0.12737  0  0.933438  0  0  0.139053  0  0.985643  0  0  0.142708  0  0.985052  0  0  0.110717  0.136403  0  0.986327  0
H  H15  1  0.65087746  0.59981187  0.20917556  1  0  0.127408  0  0.933507  0  0  0.139028  0  0.985765  0  0  0.142686  0  0.985173  0  0  0.110665  0.136374  0  0.986448  0
H  H16  1  0.26484024  0.12115616  0.79746235  1  0  0.08208  0  0.970894  0  0  0.085059  0  1.045885  0  0  0.087637  0  1.043036  0  0  0.100065  0.083078  0  1.048003  0
H  H17  1  0.73516040  0.87884781  0.20253750  1  0  0.082073  0  0.970947  0  0  0.085066  0  1.045929  0  0  0.087647  0  1.043082  0  0  0.100047  0.083085  0  1.048047  0
C  C18  1  0.28391268  0.07924300  0.42742920  1  0  0.132157  0  3.722909  0  0  0.087033  0  4.010167  0  0  0.09487  0  4.023379  0  0  0.213648  0.081981  0  4.001211  0
C  C19  1  0.71609723  0.92075622  0.57257103  1  0  0.1322  0  3.722855  0  0  0.087056  0  4.010139  0  0  0.094883  0  4.023349  0  0  0.213615  0.082006  0  4.001183  0
C  C20  1  0.22606103  0.88935479  0.31793540  1  0  0.144187  0  3.738163  0  0  0.098779  0  4.006828  0  0  0.1073  0  4.022724  0  0  0.216287  0.093436  0  3.995887  0
C  C21  1  0.77394246  0.11063863  0.68206518  1  0  0.144028  0  3.738184  0  0  0.098639  0  4.006866  0  0  0.107174  0  4.022782  0  0  0.216244  0.093298  0  3.995929  0
C  C22  1  0.18404140  0.74074013  0.27324686  1  0  0.317872  0  3.829638  0  0  0.300469  0  4.088769  0  0  0.31379  0  4.10288  0  0  0.244365  0.291471  0  4.079248  0
C  C23  1  0.81596538  0.25925191  0.72674858  1  0  0.317928  0  3.829695  0  0  0.300503  0  4.088872  0  0  0.313758  0  4.103086  0  0  0.244329  0.291504  0  4.079355  0
C  C24  1  0.14416455  0.59685280  0.11756883  1  0  0.195249  0  3.654314  0  0  0.160898  0  3.907473  0  0  0.17084  0  3.92302  0  0  0.074592  0.154485  0  3.896956  0
C  C25  1  0.85582560  0.40314522  0.88242659  1  0  0.195339  0  3.654253  0  0  0.161003  0  3.907414  0  0  0.170952  0  3.922948  0  0  0.074669  0.154589  0  3.896898  0
C  C26  1  0.12400109  0.46600600  0.18301256  1  0  -0.154878  0  3.66829  0  0  -0.16577  0  3.916816  0  0  -0.175437  0  3.936636  0  0  -0.075568  -0.159773  0  3.903821  0
C  C27  1  0.87599210  0.53398765  0.81699269  1  0  -0.155092  0  3.668523  0  0  -0.165962  0  3.917008  0  0  -0.175624  0  3.936839  0  0  -0.075624  -0.159964  0  3.904018  0
C  C28  1  0.13566413  0.48478875  0.29707315  1  0  0.192542  0  3.665975  0  0  0.16065  0  3.929247  0  0  0.170525  0  3.941888  0  0  0.071049  0.154324  0  3.920672  0
C  C29  1  0.86432753  0.51521659  0.70293048  1  0  0.192725  0  3.665744  0  0  0.160836  0  3.928992  0  0  0.170714  0  3.941624  0  0  0.071144  0.154508  0  3.920424  0
C  C30  1  0.30377278  0.17075057  0.52777987  1  0  0.313707  0  3.814843  0  0  0.296848  0  4.085267  0  0  0.310421  0  4.096642  0  0  0.240668  0.287691  0  4.077639  0
C  C31  1  0.69623536  0.82925207  0.47221712  1  0  0.313727  0  3.814916  0  0  0.296935  0  4.085286  0  0  0.310533  0  4.096627  0  0  0.240677  0.287776  0  4.077656  0
C  C32  1  0.36820579  0.39726884  0.60904545  1  0  0.164635  0  3.699899  0  0  0.135607  0  3.962684  0  0  0.144766  0  3.976749  0  0  0.059443  0.129797  0  3.953051  0
C  C33  1  0.63178439  0.60273866  0.39095243  1  0  0.164666  0  3.700154  0  0  0.13564  0  3.962948  0  0  0.144799  0  3.977017  0  0  0.059491  0.129829  0  3.953309  0
C  C34  1  0.33536998  0.33452737  0.71470476  1  0  -0.173758  0  3.702866  0  0  -0.187257  0  3.955024  0  0  -0.197727  0  3.977597  0  0  -0.085892  -0.180615  0  3.939991  0
C  C35  1  0.66461992  0.66547083  0.28529566  1  0  -0.173763  0  3.702921  0  0  -0.187168  0  3.955039  0  0  -0.197642  0  3.977616  0  0  -0.085861  -0.180523  0  3.939999  0
C  C36  1  0.28864962  0.18106728  0.71882360  1  0  0.18325  0  3.680737  0  0  0.148976  0  3.948079  0  0  0.157875  0  3.963758  0  0  0.057437  0.143345  0  3.937461  0
C  C37  1  0.71135391  0.81893772  0.28117279  1  0  0.183133  0  3.680359  0  0  0.148796  0  3.947758  0  0  0.157689  0  3.963441  0  0  0.057367  0.143164  0  3.937135  0
N  N38  1  0.27771318  0.00837945  0.25506555  1  0  -0.2446  0  3.169015  0  0  -0.19359  0  3.464659  0  0  -0.208393  0  3.482457  0  0  -0.216977  -0.183396  0  3.452204  0
N  N39  1  0.72229176  0.99161395  0.74493496  1  0  -0.24445  0  3.16895  0  0  -0.193412  0  3.46454  0  0  -0.20821  0  3.482335  0  0  -0.216943  -0.183221  0  3.452091  0
N  N40  1  0.31333508  0.12589996  0.32179087  1  0  -0.188127  0  2.922087  0  0  -0.184486  0  3.215519  0  0  -0.188959  0  3.228395  0  0  -0.197603  -0.181299  0  3.206655  0
N  N41  1  0.68667523  0.87409685  0.67820770  1  0  -0.188304  0  2.922135  0  0  -0.184667  0  3.215575  0  0  -0.189143  0  3.228454  0  0  -0.197649  -0.181479  0  3.206714  0
N  N42  1  0.23012170  0.92952606  0.42751728  1  0  0.073716  0  3.564849  0  0  0.174489  0  3.754987  0  0  0.167998  0  3.776277  0  0  -0.117393  0.178075  0  3.740792  0
N  N43  1  0.76988448  0.07046959  0.57248066  1  0  0.073799  0  3.564759  0  0  0.174501  0  3.75502  0  0  0.168025  0  3.776284  0  0  -0.117372  0.178087  0  3.740827  0
N  N44  1  0.16738339  0.84423300  0.51812701  1  0  -0.49014  0  2.933046  0  0  -0.497864  0  3.172264  0  0  -0.515518  0  3.175358  0  0  -0.473601  -0.484655  0  3.169652  0
N  N45  1  0.83261692  0.15577225  0.48187617  1  0  -0.490059  0  2.933168  0  0  -0.497872  0  3.172346  0  0  -0.515528  0  3.175438  0  0  -0.473618  -0.484661  0  3.169732  0
N  N46  1  0.17229076  0.73491248  0.16250912  1  0  -0.371418  0  3.183117  0  0  -0.306287  0  3.44038  0  0  -0.326642  0  3.45786  0  0  -0.311568  -0.29263  0  3.428462  0
N  N47  1  0.82771145  0.26508083  0.83748821  1  0  -0.371497  0  3.182995  0  0  -0.306366  0  3.44026  0  0  -0.326703  0  3.457759  0  0  -0.311642  -0.292708  0  3.428348  0
N  N48  1  0.16673597  0.62165389  0.34323166  1  0  -0.37351  0  3.04062  0  0  -0.337028  0  3.30602  0  0  -0.350291  0  3.317618  0  0  -0.307628  -0.328204  0  3.298232  0
N  N49  1  0.83326311  0.37833856  0.65677413  1  0  -0.37352  0  3.040489  0  0  -0.337071  0  3.305924  0  0  -0.350315  0  3.317543  0  0  -0.30763  -0.328244  0  3.298139  0
N  N50  1  0.35333969  0.31682213  0.51461328  1  0  -0.36305  0  3.007509  0  0  -0.333193  0  3.279909  0  0  -0.346127  0  3.290791  0  0  -0.310412  -0.32459  0  3.272556  0
N  N51  1  0.64666291  0.68317828  0.48538566  1  0  -0.362954  0  3.00735  0  0  -0.333137  0  3.279743  0  0  -0.346079  0  3.290617  0  0  -0.310388  -0.324536  0  3.272391  0
N  N52  1  0.27210028  0.09880582  0.62557602  1  0  -0.370699  0  3.052743  0  0  -0.333503  0  3.319253  0  0  -0.346732  0  3.330784  0  0  -0.308919  -0.324796  0  3.311628  0
N  N53  1  0.72790208  0.90119475  0.37442791  1  0  -0.370595  0  3.052571  0  0  -0.333412  0  3.319088  0  0  -0.34665  0  3.330614  0  0  -0.308856  -0.324705  0  3.311462  0
Cl  Cl54  1  0.10928571  0.87124243  0.88374608  1  0  -0.557028  0  0.967165  0  0  -0.493851  0  1.231507  0  0  -0.511645  0  1.21004  0  0  -0.31163  -0.480942  0  1.245981  0
Cl  Cl55  1  0.89071946  0.12876029  0.11625272  1  0  -0.557035  0  0.967199  0  0  -0.493853  0  1.231538  0  0  -0.51165  0  1.210076  0  0  -0.311628  -0.480944  0  1.246009  0
Cl  Cl56  1  0.41038567  0.20824746  0.98773687  1  0  -0.558532  0  0.984205  0  0  -0.495288  0  1.255473  0  0  -0.514604  0  1.235937  0  0  -0.311385  -0.481149  0  1.268504  0
Cl  Cl57  1  0.58961553  0.79175187  0.01226464  1  0  -0.558533  0  0.984211  0  0  -0.495283  0  1.255477  0  0  -0.514598  0  1.23594  0  0  -0.311376  -0.481145  0  1.26851  0
