# generated using pymatgen
data_CdH20C22SN4O7
_symmetry_space_group_name_H-M   'P 1'
_cell_length_a   10.67097807
_cell_length_b   10.59296922
_cell_length_c   11.67281073
_cell_angle_alpha   78.47830997
_cell_angle_beta   72.89934990
_cell_angle_gamma   82.05914594
_symmetry_Int_Tables_number   1
_chemical_formula_structural   CdH20C22SN4O7
_chemical_formula_sum   'Cd2 H40 C44 S2 N8 O14'
_cell_volume   1231.26575891
_cell_formula_units_Z   2
loop_
 _symmetry_equiv_pos_site_id
 _symmetry_equiv_pos_as_xyz
  1  'x, y, z'
loop_
 _atom_site_type_symbol
 _atom_site_label
 _atom_site_symmetry_multiplicity
 _atom_site_fract_x
 _atom_site_fract_y
 _atom_site_fract_z
 _atom_site_occupancy
 _atom_site_hle17_bader_spin_density
 _atom_site_hle17_ddec_charge
 _atom_site_hle17_ddec_spin_density
 _atom_site_hle17_ddec_sum_bond_order
 _atom_site_hle17_magmom
 _atom_site_hse06_10hf_bader_spin_density
 _atom_site_hse06_10hf_ddec_charge
 _atom_site_hse06_10hf_ddec_spin_density
 _atom_site_hse06_10hf_ddec_sum_bond_order
 _atom_site_hse06_10hf_magmom
 _atom_site_hse06_bader_spin_density
 _atom_site_hse06_ddec_charge
 _atom_site_hse06_ddec_spin_density
 _atom_site_hse06_ddec_sum_bond_order
 _atom_site_hse06_magmom
 _atom_site_pbe_bader_spin_density
 _atom_site_pbe_cm5_charge
 _atom_site_pbe_ddec_charge
 _atom_site_pbe_ddec_spin_density
 _atom_site_pbe_ddec_sum_bond_order
 _atom_site_pbe_magmom
Cd  Cd0  1  0.27654484  0.23915115  0.73042354  1  0  1.098339  0  1.645633  0  0  0.906969  0  2.07804  0  0  0.967362  0  2.025349  0  0  0.758746  0.859824  0  2.118556  0
Cd  Cd1  1  0.72343297  0.76085709  0.26959110  1  0  1.098392  0  1.645517  0  0  0.907064  0  2.077924  0  0  0.967455  0  2.025229  0  0  0.758747  0.859923  0  2.118441  0
H  H2  1  0.43793020  0.27717389  0.50221275  1  0  0.418794  0  0.842185  0  0  0.398218  0  0.902725  0  0  0.406771  0  0.893234  0  0  0.307846  0.391923  0  0.909851  0
H  H3  1  0.56207576  0.72281150  0.49781982  1  0  0.418806  0  0.842216  0  0  0.398255  0  0.902721  0  0  0.406792  0  0.893255  0  0  0.307851  0.391958  0  0.909851  0
H  H4  1  0.33938201  0.20605923  0.46258493  1  0  0.428107  0  0.874597  0  0  0.396452  0  0.939786  0  0  0.407613  0  0.923519  0  0  0.288955  0.388499  0  0.951358  0
H  H5  1  0.66061382  0.79395761  0.53742730  1  0  0.428212  0  0.874454  0  0  0.396559  0  0.939667  0  0  0.40772  0  0.923397  0  0  0.288978  0.388608  0  0.951234  0
H  H6  1  0.09315361  0.04111933  0.90173504  1  0  0.09158  0  0.965436  0  0  0.101873  0  1.025392  0  0  0.104456  0  1.023102  0  0  0.116966  0.099746  0  1.027488  0
H  H7  1  0.90683922  0.95888282  0.09827833  1  0  0.091516  0  0.965393  0  0  0.101809  0  1.025376  0  0  0.10439  0  1.023094  0  0  0.116958  0.09968  0  1.027469  0
H  H8  1  0.44226509  0.96659721  0.64422896  1  0  0.096618  0  0.927925  0  0  0.103775  0  0.990632  0  0  0.10707  0  0.987215  0  0  0.119289  0.10137  0  0.993206  0
H  H9  1  0.55773168  0.03342457  0.35577399  1  0  0.096616  0  0.927972  0  0  0.103787  0  0.990676  0  0  0.107086  0  0.987249  0  0  0.119295  0.101387  0  0.993248  0
H  H10  1  0.46106122  0.73413004  0.74058620  1  0  0.114517  0  0.942268  0  0  0.125934  0  0.999419  0  0  0.129663  0  0.997641  0  0  0.112033  0.123097  0  1.001135  0
H  H11  1  0.53892743  0.26588504  0.25940933  1  0  0.114733  0  0.942025  0  0  0.126066  0  0.999277  0  0  0.129839  0  0.997443  0  0  0.112141  0.123203  0  1.001029  0
H  H12  1  0.09923903  0.81267745  0.01445328  1  0  0.123431  0  0.983425  0  0  0.126717  0  1.054427  0  0  0.130816  0  1.052352  0  0  0.105333  0.123526  0  1.056451  0
H  H13  1  0.90074338  0.18732148  0.98555749  1  0  0.123255  0  0.983558  0  0  0.126596  0  1.054474  0  0  0.130695  0  1.052399  0  0  0.105282  0.123407  0  1.056489  0
H  H14  1  0.29522239  0.39459447  0.06233792  1  0  0.084134  0  0.981834  0  0  0.097912  0  1.044575  0  0  0.098123  0  1.046254  0  0  0.111498  0.097677  0  1.043592  0
H  H15  1  0.70477974  0.60540414  0.93763276  1  0  0.084255  0  0.98175  0  0  0.098036  0  1.044444  0  0  0.098249  0  1.046121  0  0  0.111543  0.097803  0  1.043453  0
H  H16  1  0.37555766  0.43642301  0.16200762  1  0  0.07519  0  0.920954  0  0  0.088963  0  0.988511  0  0  0.088846  0  0.988982  0  0  0.104908  0.089025  0  0.988164  0
H  H17  1  0.62444172  0.56357789  0.83798465  1  0  0.075069  0  0.921042  0  0  0.088903  0  0.988534  0  0  0.088785  0  0.989005  0  0  0.104888  0.088967  0  0.988179  0
H  H18  1  0.49176721  0.64221215  0.08862078  1  0  0.07404  0  0.940491  0  0  0.085575  0  1.011336  0  0  0.085371  0  1.012128  0  0  0.104091  0.085639  0  1.010814  0
H  H19  1  0.50824159  0.35779092  0.91134535  1  0  0.074064  0  0.940565  0  0  0.085657  0  1.011323  0  0  0.08546  0  1.012107  0  0  0.104073  0.085694  0  1.010836  0
H  H20  1  0.48306424  0.73602380  0.94700488  1  0  0.074271  0  0.962603  0  0  0.091525  0  1.024057  0  0  0.090828  0  1.026374  0  0  0.10885  0.091952  0  1.022657  0
H  H21  1  0.51694312  0.26397897  0.05297718  1  0  0.074277  0  0.962656  0  0  0.091508  0  1.024097  0  0  0.090816  0  1.026411  0  0  0.108856  0.091933  0  1.022692  0
H  H22  1  0.35991248  0.03312719  0.16551434  1  0  0.124852  0  0.945323  0  0  0.130727  0  1.011029  0  0  0.135141  0  1.008129  0  0  0.109262  0.127321  0  1.013689  0
H  H23  1  0.64009615  0.96687915  0.83448282  1  0  0.124734  0  0.945437  0  0  0.130677  0  1.011049  0  0  0.13509  0  1.008151  0  0  0.109239  0.127272  0  1.013713  0
H  H24  1  0.01343040  0.30555121  0.19511308  1  0  0.127124  0  0.916074  0  0  0.139729  0  0.966988  0  0  0.143423  0  0.965709  0  0  0.120714  0.136939  0  0.968299  0
H  H25  1  0.98655245  0.69445165  0.80490687  1  0  0.127177  0  0.916124  0  0  0.139831  0  0.967004  0  0  0.143528  0  0.965721  0  0  0.12076  0.137041  0  0.968311  0
H  H26  1  0.06577136  0.34496189  0.97036941  1  0  0.103215  0  0.922541  0  0  0.110819  0  0.982989  0  0  0.113735  0  0.979864  0  0  0.126154  0.108678  0  0.98525  0
H  H27  1  0.93421136  0.65502726  0.02965158  1  0  0.103125  0  0.922654  0  0  0.110843  0  0.982986  0  0  0.113761  0  0.97986  0  0  0.126161  0.108707  0  0.98525  0
H  H28  1  0.39843662  0.08666775  0.93805695  1  0  0.091443  0  0.94878  0  0  0.101987  0  1.006781  0  0  0.104579  0  1.004826  0  0  0.11773  0.100107  0  1.00811  0
H  H29  1  0.60155212  0.91333055  0.06193864  1  0  0.091454  0  0.948911  0  0  0.10208  0  1.006842  0  0  0.104672  0  1.004886  0  0  0.117765  0.100199  0  1.008173  0
H  H30  1  0.90843443  0.54046396  0.57067866  1  0  0.119831  0  0.942824  0  0  0.129141  0  1.004582  0  0  0.132154  0  1.00288  0  0  0.108946  0.126845  0  1.005872  0
H  H31  1  0.09156418  0.45952677  0.42926397  1  0  0.119672  0  0.943084  0  0  0.129023  0  1.004796  0  0  0.13207  0  1.003054  0  0  0.108947  0.126767  0  1.006036  0
H  H32  1  0.67038768  0.52108172  0.55251621  1  0  0.117826  0  0.94396  0  0  0.128471  0  1.004354  0  0  0.131901  0  1.001586  0  0  0.108877  0.125884  0  1.00663  0
H  H33  1  0.32962739  0.47886286  0.44742924  1  0  0.118018  0  0.943483  0  0  0.128603  0  1.003966  0  0  0.132035  0  1.001195  0  0  0.108856  0.126011  0  1.006251  0
H  H34  1  0.99632017  0.03533525  0.28744648  1  0  0.087851  0  0.943595  0  0  0.102954  0  1.008023  0  0  0.102862  0  1.009568  0  0  0.115794  0.102981  0  1.006951  0
H  H35  1  0.00371379  0.96464796  0.71256595  1  0  0.08794  0  0.94338  0  0  0.102938  0  1.007951  0  0  0.102845  0  1.009493  0  0  0.115723  0.102971  0  1.00688  0
H  H36  1  0.87424749  0.10099588  0.40657829  1  0  0.080583  0  0.894687  0  0  0.099416  0  0.948552  0  0  0.099656  0  0.949004  0  0  0.1131  0.099101  0  0.948393  0
H  H37  1  0.12579334  0.89898959  0.59342754  1  0  0.080804  0  0.8948  0  0  0.099608  0  0.948631  0  0  0.099854  0  0.949071  0  0  0.11325  0.099289  0  0.948476  0
H  H38  1  0.13153290  0.13530195  0.55663736  1  0  0.093832  0  0.935216  0  0  0.108342  0  0.996527  0  0  0.108988  0  0.996169  0  0  0.119877  0.107804  0  0.996864  0
H  H39  1  0.86848484  0.86468800  0.44338249  1  0  0.09373  0  0.935501  0  0  0.108362  0  0.99658  0  0  0.108991  0  0.996213  0  0  0.11984  0.107793  0  0.996955  0
H  H40  1  0.95850813  0.15875759  0.57600085  1  0  0.068072  0  0.963335  0  0  0.078817  0  1.033474  0  0  0.07852  0  1.034846  0  0  0.102425  0.078881  0  1.032623  0
H  H41  1  0.04152723  0.84123284  0.42401451  1  0  0.068206  0  0.963289  0  0  0.07882  0  1.033518  0  0  0.078515  0  1.034868  0  0  0.102364  0.078879  0  1.032665  0
C  C42  1  0.17245527  0.96898269  0.87047548  1  0  0.114629  0  3.728235  0  0  0.083563  0  3.981576  0  0  0.090727  0  4.000059  0  0  0.03667  0.079059  0  3.968656  0
C  C43  1  0.82753362  0.03102122  0.12953582  1  0  0.114734  0  3.727909  0  0  0.083657  0  3.981277  0  0  0.090823  0  3.999761  0  0  0.036709  0.079161  0  3.968345  0
C  C44  1  0.36747281  0.92792560  0.72516822  1  0  0.137824  0  3.690098  0  0  0.107241  0  3.943983  0  0  0.114801  0  3.960976  0  0  0.049775  0.102239  0  3.932431  0
C  C45  1  0.63251397  0.07208849  0.27482717  1  0  0.137438  0  3.690765  0  0  0.106867  0  3.944626  0  0  0.114421  0  3.961632  0  0  0.0496  0.10186  0  3.933072  0
C  C46  1  0.37728576  0.79847995  0.77963568  1  0  -0.151546  0  3.709744  0  0  -0.170388  0  3.95358  0  0  -0.176043  0  3.971969  0  0  -0.083056  -0.167114  0  3.94205  0
C  C47  1  0.62269936  0.20153007  0.22035860  1  0  -0.151513  0  3.709838  0  0  -0.170298  0  3.953655  0  0  -0.175984  0  3.972022  0  0  -0.083065  -0.166998  0  3.942142  0
C  C48  1  0.28072096  0.75532883  0.88583000  1  0  0.025152  0  3.753491  0  0  0.041257  0  3.988963  0  0  0.042491  0  4.007075  0  0  0.011726  0.040309  0  3.976841  0
C  C49  1  0.71927224  0.24468554  0.11417750  1  0  0.025097  0  3.753381  0  0  0.041182  0  3.98886  0  0  0.042411  0  4.006982  0  0  0.011672  0.040233  0  3.976738  0
C  C50  1  0.17538017  0.84251355  0.93106091  1  0  -0.147242  0  3.719637  0  0  -0.169633  0  3.974393  0  0  -0.17661  0  3.994713  0  0  -0.084795  -0.165004  0  3.960972  0
C  C51  1  0.82460657  0.15749095  0.06895593  1  0  -0.14725  0  3.719563  0  0  -0.169665  0  3.974303  0  0  -0.176642  0  3.994622  0  0  -0.084787  -0.165039  0  3.960876  0
C  C52  1  0.27800662  0.61866053  0.95246219  1  0  0.478868  0  3.857023  0  0  0.429015  0  4.149763  0  0  0.4582  0  4.1482  0  0  0.23846  0.409524  0  4.149713  0
C  C53  1  0.72198349  0.38134430  0.04753910  1  0  0.478995  0  3.856983  0  0  0.429219  0  4.149761  0  0  0.458399  0  4.148208  0  0  0.238421  0.409725  0  4.149723  0
C  C54  1  0.38140975  0.43670652  0.06612212  1  0  -0.015497  0  3.631881  0  0  -0.076631  0  3.889679  0  0  -0.072116  0  3.900907  0  0  -0.062554  -0.079675  0  3.882027  0
C  C55  1  0.61858807  0.56329005  0.93386651  1  0  -0.015632  0  3.631909  0  0  -0.076745  0  3.889877  0  0  -0.072234  0  3.901107  0  0  -0.062608  -0.079776  0  3.882232  0
C  C56  1  0.49131217  0.63711276  0.99549948  1  0  -0.022727  0  3.667315  0  0  -0.089448  0  3.936796  0  0  -0.085321  0  3.949649  0  0  -0.062278  -0.091965  0  3.927966  0
C  C57  1  0.50868865  0.36288843  0.00447687  1  0  -0.022879  0  3.667455  0  0  -0.089477  0  3.936831  0  0  -0.08534  0  3.949657  0  0  -0.062191  -0.091964  0  3.92797  0
C  C58  1  0.17269079  0.15390677  0.33086071  1  0  0.498096  0  3.825325  0  0  0.448333  0  4.111198  0  0  0.477995  0  4.109492  0  0  0.253157  0.428501  0  4.111315  0
C  C59  1  0.82729346  0.84612715  0.66914475  1  0  0.498342  0  3.825141  0  0  0.448377  0  4.111073  0  0  0.478036  0  4.109376  0  0  0.253123  0.428544  0  4.111184  0
C  C60  1  0.29291200  0.10274464  0.12502913  1  0  -0.144279  0  3.706911  0  0  -0.164933  0  3.958527  0  0  -0.171055  0  3.977423  0  0  -0.081862  -0.161125  0  3.946194  0
C  C61  1  0.70707380  0.89725813  0.87499012  1  0  -0.144291  0  3.707412  0  0  -0.16498  0  3.958986  0  0  -0.171106  0  3.977886  0  0  -0.081825  -0.161179  0  3.94666  0
C  C62  1  0.18382194  0.16616828  0.19810941  1  0  0.012355  0  3.76289  0  0  0.026652  0  4.003725  0  0  0.027405  0  4.022408  0  0  0.009315  0.026035  0  3.991273  0
C  C63  1  0.81616282  0.83385122  0.80190916  1  0  0.012633  0  3.762587  0  0  0.027056  0  4.0033  0  0  0.027809  0  4.022001  0  0  0.009431  0.026438  0  3.990842  0
C  C64  1  0.09903103  0.25267268  0.14276680  1  0  -0.137691  0  3.680074  0  0  -0.159412  0  3.931719  0  0  -0.165186  0  3.949321  0  0  -0.073427  -0.156155  0  3.920765  0
C  C65  1  0.90096661  0.74734533  0.85724725  1  0  -0.138001  0  3.679772  0  0  -0.159794  0  3.931509  0  0  -0.165575  0  3.949117  0  0  -0.073538  -0.156533  0  3.920559  0
C  C66  1  0.12845913  0.27604917  0.01610750  1  0  0.154679  0  3.682334  0  0  0.119986  0  3.946949  0  0  0.12949  0  3.96072  0  0  0.059873  0.113606  0  3.937937  0
C  C67  1  0.87153574  0.72395031  0.98390865  1  0  0.154731  0  3.682109  0  0  0.11992  0  3.946828  0  0  0.129419  0  3.960603  0  0  0.05984  0.113526  0  3.937832  0
C  C68  1  0.31400651  0.13102174  0.99979882  1  0  0.121163  0  3.714115  0  0  0.091864  0  3.96614  0  0  0.098575  0  3.985277  0  0  0.04192  0.087784  0  3.952481  0
C  C69  1  0.68597867  0.86896269  0.00021504  1  0  0.12107  0  3.714628  0  0  0.091629  0  3.966771  0  0  0.098343  0  3.9859  0  0  0.041777  0.087553  0  3.95311  0
C  C70  1  0.66584550  0.34091009  0.68057437  1  0  -0.149847  0  3.740823  0  0  -0.132978  0  4.009511  0  0  -0.138667  0  4.027726  0  0  -0.030432  -0.129339  0  3.997918  0
C  C71  1  0.33416829  0.65907205  0.31939945  1  0  -0.149834  0  3.741435  0  0  -0.132887  0  4.010009  0  0  -0.138575  0  4.028221  0  0  -0.030385  -0.129247  0  3.998413  0
C  C72  1  0.88884463  0.35769518  0.69676018  1  0  -0.145966  0  3.723697  0  0  -0.127566  0  3.988685  0  0  -0.13412  0  4.007556  0  0  -0.027768  -0.123271  0  3.976448  0
C  C73  1  0.11115083  0.64231550  0.30321243  1  0  -0.146115  0  3.723495  0  0  -0.127569  0  3.988321  0  0  -0.134125  0  4.007197  0  0  -0.027722  -0.123306  0  3.97614  0
C  C74  1  0.84761956  0.46203169  0.61998874  1  0  -0.067398  0  3.727637  0  0  -0.098622  0  3.991534  0  0  -0.096613  0  4.007734  0  0  -0.093625  -0.099432  0  3.980138  0
C  C75  1  0.15238214  0.53796456  0.37996889  1  0  -0.067234  0  3.727114  0  0  -0.098518  0  3.99096  0  0  -0.096535  0  4.007145  0  0  -0.093571  -0.099348  0  3.979558  0
C  C76  1  0.72013892  0.45246849  0.61087860  1  0  -0.071867  0  3.725235  0  0  -0.101724  0  3.987321  0  0  -0.100451  0  4.00326  0  0  -0.095352  -0.102194  0  3.976298  0
C  C77  1  0.27987123  0.54751452  0.38908470  1  0  -0.071998  0  3.724968  0  0  -0.101844  0  3.987137  0  0  -0.100573  0  4.003084  0  0  -0.095328  -0.102307  0  3.976115  0
C  C78  1  0.01807048  0.31980829  0.72204437  1  0  0.627033  0  4.002208  0  0  0.580992  0  4.290583  0  0  0.615726  0  4.28425  0  0  0.181614  0.557005  0  4.29415  0
C  C79  1  0.98192204  0.68020686  0.27795190  1  0  0.627348  0  4.00173  0  0  0.581288  0  4.290044  0  0  0.616022  0  4.283701  0  0  0.18174  0.557313  0  4.293614  0
C  C80  1  0.53600443  0.29445629  0.69660176  1  0  0.6269  0  4.007361  0  0  0.582742  0  4.2951  0  0  0.617212  0  4.288625  0  0  0.177428  0.559025  0  4.298837  0
C  C81  1  0.46400117  0.70552216  0.30339312  1  0  0.626831  0  4.008203  0  0  0.582631  0  4.295993  0  0  0.617103  0  4.289517  0  0  0.177297  0.558907  0  4.299739  0
C  C82  1  0.96805054  0.04046452  0.38458357  1  0  -0.009951  0  3.632759  0  0  -0.078619  0  3.904601  0  0  -0.074371  0  3.915995  0  0  -0.052349  -0.081285  0  3.896594  0
C  C83  1  0.03198858  0.95951219  0.61543272  1  0  -0.010249  0  3.632514  0  0  -0.078845  0  3.90427  0  0  -0.07457  0  3.915677  0  0  -0.052489  -0.081521  0  3.89628  0
C  C84  1  0.04817011  0.09622452  0.54337659  1  0  -0.014735  0  3.630242  0  0  -0.074447  0  3.888275  0  0  -0.069706  0  3.899027  0  0  -0.058082  -0.077556  0  3.880941  0
C  C85  1  0.95185890  0.90375813  0.45663979  1  0  -0.014784  0  3.630514  0  0  -0.074405  0  3.88811  0  0  -0.069581  0  3.898737  0  0  -0.058006  -0.077496  0  3.880771  0
S  S86  1  0.77096647  0.24824239  0.75748881  1  0  0.146804  0  2.670395  0  0  0.143063  0  3.000607  0  0  0.143249  0  3.008033  0  0  0.09119  0.142593  0  2.996509  0
S  S87  1  0.22903792  0.75175488  0.24250662  1  0  0.146795  0  2.670626  0  0  0.143  0  3.000765  0  0  0.143187  0  3.00819  0  0  0.091127  0.142536  0  2.996676  0
N  N88  1  0.26725043  0.01197123  0.77041625  1  0  -0.337317  0  3.256032  0  0  -0.262025  0  3.519604  0  0  -0.282227  0  3.539444  0  0  -0.330986  -0.247525  0  3.505127  0
N  N89  1  0.73273901  0.98803791  0.22959785  1  0  -0.337066  0  3.255964  0  0  -0.2618  0  3.519551  0  0  -0.282  0  3.539389  0  0  -0.33092  -0.247297  0  3.505066  0
N  N90  1  0.37842560  0.56972588  0.00213003  1  0  -0.213574  0  3.419294  0  0  -0.126778  0  3.658818  0  0  -0.148371  0  3.680845  0  0  -0.279297  -0.112022  0  3.643275  0
N  N91  1  0.62157402  0.43027274  0.99785934  1  0  -0.213445  0  3.419205  0  0  -0.126962  0  3.659067  0  0  -0.148557  0  3.681101  0  0  -0.279321  -0.112216  0  3.643517  0
N  N92  1  0.23455999  0.21730099  0.94594721  1  0  -0.336655  0  3.239779  0  0  -0.26269  0  3.504902  0  0  -0.282691  0  3.523245  0  0  -0.323968  -0.248636  0  3.492158  0
N  N93  1  0.76542572  0.78269200  0.05406343  1  0  -0.336458  0  3.239784  0  0  -0.262463  0  3.504974  0  0  -0.282468  0  3.523334  0  0  -0.323879  -0.24841  0  3.492234  0
N  N94  1  0.06914147  0.09856572  0.41365817  1  0  -0.199329  0  3.401188  0  0  -0.11438  0  3.640411  0  0  -0.13514  0  3.660645  0  0  -0.268512  -0.100279  0  3.626186  0
N  N95  1  0.93088379  0.90142901  0.58636028  1  0  -0.199622  0  3.400958  0  0  -0.114369  0  3.639834  0  0  -0.135161  0  3.660047  0  0  -0.268336  -0.100264  0  3.625598  0
O  O96  1  0.18220272  0.55826956  0.96274868  1  0  -0.525714  0  1.892349  0  0  -0.488373  0  2.103333  0  0  -0.510232  0  2.098694  0  0  -0.295518  -0.472757  0  2.105724  0
O  O97  1  0.81778421  0.44173274  0.03726610  1  0  -0.525834  0  1.892407  0  0  -0.488464  0  2.103337  0  0  -0.510317  0  2.098696  0  0  -0.29547  -0.472842  0  2.105731  0
O  O98  1  0.26083012  0.19922066  0.35727621  1  0  -0.555846  0  1.964085  0  0  -0.507193  0  2.180641  0  0  -0.531008  0  2.173854  0  0  -0.289842  -0.490278  0  2.184408  0
O  O99  1  0.73918151  0.80080115  0.64271789  1  0  -0.555888  0  1.964358  0  0  -0.507272  0  2.181105  0  0  -0.531067  0  2.174278  0  0  -0.289905  -0.490358  0  2.184869  0
O  O100  1  0.11572905  0.38634170  0.66462453  1  0  -0.622464  0  1.909238  0  0  -0.55621  0  2.132252  0  0  -0.585041  0  2.122415  0  0  -0.333833  -0.534025  0  2.139477  0
O  O101  1  0.88426543  0.61367340  0.33537127  1  0  -0.62264  0  1.909035  0  0  -0.556399  0  2.132088  0  0  -0.585228  0  2.122242  0  0  -0.333928  -0.534213  0  2.139313  0
O  O102  1  0.02704131  0.21541077  0.79683486  1  0  -0.655411  0  1.986468  0  0  -0.601641  0  2.229582  0  0  -0.628098  0  2.220619  0  0  -0.335837  -0.582512  0  2.234917  0
O  O103  1  0.97294255  0.78461093  0.20317647  1  0  -0.655483  0  1.986453  0  0  -0.601803  0  2.229709  0  0  -0.62826  0  2.22074  0  0  -0.335872  -0.582674  0  2.235044  0
O  O104  1  0.45048982  0.37277860  0.65468614  1  0  -0.640784  0  1.909775  0  0  -0.57617  0  2.131103  0  0  -0.604533  0  2.119807  0  0  -0.345384  -0.554335  0  2.139113  0
O  O105  1  0.54951471  0.62720171  0.34530766  1  0  -0.640758  0  1.909928  0  0  -0.576156  0  2.131287  0  0  -0.60452  0  2.119987  0  0  -0.345332  -0.554319  0  2.139301  0
O  O106  1  0.51500192  0.18026223  0.75313610  1  0  -0.646743  0  1.928084  0  0  -0.598417  0  2.161165  0  0  -0.624449  0  2.15208  0  0  -0.341532  -0.579785  0  2.166827  0
O  O107  1  0.48500083  0.81972122  0.24687798  1  0  -0.646802  0  1.928557  0  0  -0.598448  0  2.161659  0  0  -0.624478  0  2.152566  0  0  -0.341547  -0.579818  0  2.167325  0
O  O108  1  0.39164452  0.19903495  0.52166252  1  0  -0.824389  0  1.824875  0  0  -0.770645  0  2.00637  0  0  -0.791654  0  1.978081  0  0  -0.582234  -0.756122  0  2.02692  0
O  O109  1  0.60834481  0.80095960  0.47835370  1  0  -0.824471  0  1.824785  0  0  -0.770789  0  2.006207  0  0  -0.791777  0  1.977967  0  0  -0.582226  -0.756272  0  2.02676  0
