# generated using pymatgen
data_Zr2H8C19(O7F)2
_symmetry_space_group_name_H-M   'P 1'
_cell_length_a   14.75072272
_cell_length_b   14.76656211
_cell_length_c   14.76120368
_cell_angle_alpha   60.28853498
_cell_angle_beta   59.95718815
_cell_angle_gamma   59.96557927
_symmetry_Int_Tables_number   1
_chemical_formula_structural   Zr2H8C19(O7F)2
_chemical_formula_sum   'Zr6 H24 C57 O42 F6'
_cell_volume   2277.10311451
_cell_formula_units_Z   3
loop_
 _symmetry_equiv_pos_site_id
 _symmetry_equiv_pos_as_xyz
  1  'x, y, z'
loop_
 _atom_site_type_symbol
 _atom_site_label
 _atom_site_symmetry_multiplicity
 _atom_site_fract_x
 _atom_site_fract_y
 _atom_site_fract_z
 _atom_site_occupancy
 _atom_site_pbe_bader_charge
 _atom_site_pbe_bader_spin_density
 _atom_site_pbe_cm5_charge
 _atom_site_pbe_ddec_charge
 _atom_site_pbe_ddec_spin_density
 _atom_site_pbe_ddec_sum_bond_order
 _atom_site_pbe_magmom
Zr  Zr0  1  0.87109270  0.88478508  0.62329014  1  2.635921  0  1.628166  2.375042  0  2.751604  0
Zr  Zr1  1  0.11274025  0.12145417  0.38459518  1  2.638366  0  1.633223  2.380979  0  2.738386  0
Zr  Zr2  1  0.11155066  0.88347809  0.62304891  1  2.633947  0  1.630594  2.378155  0  2.745288  0
Zr  Zr3  1  0.87215008  0.12261055  0.38429299  1  2.635523  0  1.6289  2.375272  0  2.750542  0
Zr  Zr4  1  0.11152110  0.88313323  0.38372689  1  2.63933  0  1.632068  2.379478  0  2.737183  0
Zr  Zr5  1  0.87111820  0.12383539  0.62353884  1  2.634201  0  1.629275  2.378429  0  2.740572  0
H  H6  1  0.08569747  0.72154415  0.59673706  1  0.612689  0  0.311963  0.403602  0  0.914285  0
H  H7  1  0.08780371  0.09401653  0.22207522  1  0.610041  0  0.314046  0.406069  0  0.907856  0
H  H8  1  0.08548894  0.09812876  0.59811397  1  0.589778  0  0.32572  0.41327  0  0.871402  0
H  H9  1  0.70842577  0.09937735  0.59848086  1  0.593615  0  0.332778  0.424991  0  0.853257  0
H  H10  1  0.83670713  0.59638932  0.64181071  1  0.109016  0  0.115538  0.124509  0  0.979626  0
H  H11  1  0.12331411  0.60281610  0.34579165  1  0.113387  0  0.116244  0.13206  0  0.991334  0
H  H12  1  0.83845157  0.42705915  0.63892922  1  0.146355  0  0.113572  0.125419  0  0.99412  0
H  H13  1  0.57793225  0.85736498  0.91899342  1  0.072615  0  0.114129  0.12129  0  0.982909  0
H  H14  1  0.59474974  0.13025146  0.93734841  1  0.127988  0  0.113471  0.13199  0  1.014913  0
H  H15  1  0.41017264  0.85548503  0.09122885  1  0.123883  0  0.114155  0.128836  0  0.997714  0
H  H16  1  0.13178563  0.85101984  0.09308856  1  0.110209  0  0.11896  0.128354  0  0.97428  0
H  H17  1  0.83584460  0.13744146  0.10207376  1  0.108809  0  0.118451  0.13113  0  0.978751  0
H  H18  1  0.12791963  0.85179949  0.92466276  1  0.171881  0  0.115534  0.128451  0  0.991695  0
H  H19  1  0.58911454  0.43440667  0.63474054  1  0.112812  0  0.117947  0.127532  0  0.974989  0
H  H20  1  0.58736512  0.42418245  0.34967480  1  0.096314  0  0.116396  0.128977  0  0.982199  0
H  H21  1  0.42022682  0.60497128  0.63188490  1  0.159265  0  0.114464  0.131134  0  1.005598  0
H  H22  1  0.57557486  0.14788532  0.35809623  1  0.09564  0  0.117214  0.125645  0  0.975226  0
H  H23  1  0.58795522  0.85021885  0.63946484  1  0.127441  0  0.116169  0.127958  0  0.985159  0
H  H24  1  0.40810534  0.14307299  0.35865880  1  0.151086  0  0.113808  0.129189  0  1.021876  0
H  H25  1  0.24094295  0.31961988  0.39658845  1  0.580954  0  0.332255  0.359666  0  0.885937  0
H  H26  1  0.32979016  0.25960340  0.04105861  1  0.598509  0  0.335726  0.365948  0  0.87522  0
H  H27  1  0.89718762  0.24411609  0.79954578  1  0.606745  0  0.330218  0.366791  0  0.88594  0
H  H28  1  0.29611708  0.53747577  0.42010455  1  0.60647  0  0.33182  0.363704  0  0.886189  0
H  H29  1  0.29503037  0.90808734  0.75417688  1  0.619038  0  0.334571  0.365771  0  0.882859  0
C  C30  1  0.98509903  0.70505530  0.49909731  1  1.568029  0  0.237403  0.637303  0  4.10626  0
C  C31  1  0.30230062  0.99544621  0.20603824  1  1.532101  0  0.238206  0.639773  0  4.098779  0
C  C32  1  0.98584386  0.31330840  0.49849193  1  1.562849  0  0.233643  0.63232  0  4.117565  0
C  C33  1  0.69177442  0.99967839  0.81221224  1  1.539105  0  0.240708  0.643417  0  4.086733  0
C  C34  1  0.99261799  0.69989064  0.80599028  1  1.637994  0  0.237336  0.66155  0  4.14313  0
C  C35  1  0.69000781  0.00162601  0.50083849  1  1.569042  0  0.239107  0.63977  0  4.098921  0
C  C36  1  0.99467362  0.30363869  0.19955091  1  1.639572  0  0.236556  0.658362  0  4.145759  0
C  C37  1  0.29877685  0.99997608  0.50206779  1  1.550838  0  0.235632  0.634935  0  4.111219  0
C  C38  1  0.30132622  0.70441924  0.49795758  1  1.54276  0  0.23709  0.637162  0  4.107089  0
C  C39  1  0.98683570  0.99824604  0.81301409  1  1.572562  0  0.23357  0.631717  0  4.12168  0
C  C40  1  0.69411956  0.31380914  0.49727301  1  1.54081  0  0.239451  0.641847  0  4.094514  0
C  C41  1  0.98725087  0.99773540  0.20478302  1  1.559391  0  0.238529  0.639022  0  4.102908  0
C  C42  1  0.98378380  0.41793404  0.49318825  1  -0.080729  0  -0.012987  -0.065738  0  3.951851  0
C  C43  1  0.98210883  0.60710741  0.49569018  1  -0.042662  0  -0.010926  -0.025706  0  3.961993  0
C  C44  1  0.06365589  0.46848475  0.40813266  1  0.01174  0  -0.004627  -0.06081  0  3.96736  0
C  C45  1  0.90022933  0.55927655  0.57768014  1  -0.060977  0  -0.075003  -0.084075  0  3.950994  0
C  C46  1  0.06210100  0.56275822  0.41052906  1  0.02875  0  -0.074505  -0.115482  0  3.922693  0
C  C47  1  0.90144746  0.46542085  0.57605835  1  -0.02229  0  -0.077728  -0.084852  0  3.956854  0
C  C48  1  0.40585173  0.99454078  0.10760236  1  -0.047934  0  -0.009322  -0.06009  0  3.941996  0
C  C49  1  0.59342893  0.99653412  0.91600431  1  -0.036745  0  -0.010917  -0.030144  0  3.96345  0
C  C50  1  0.45879919  0.07153856  0.06564133  1  -0.018473  0  -0.006056  -0.067839  0  3.973445  0
C  C51  1  0.54306181  0.91755406  0.96004008  1  -0.001928  0  -0.074362  -0.082558  0  3.947334  0
C  C52  1  0.55203529  0.07246464  0.96944659  1  0.017733  0  -0.073322  -0.112556  0  3.91695  0
C  C53  1  0.44978039  0.91686099  0.05515266  1  0.024193  0  -0.072143  -0.074818  0  3.941494  0
C  C54  1  0.98338359  0.99814628  0.91581353  1  0.038313  0  -0.013859  -0.069303  0  3.958525  0
C  C55  1  0.98529220  0.99601217  0.10544309  1  -0.004385  0  -0.007662  -0.025891  0  3.957092  0
C  C56  1  0.89931531  0.07928201  0.96590367  1  -0.0647  0  -0.005472  -0.06242  0  3.966238  0
C  C57  1  0.06755294  0.91439760  0.05669033  1  0.026294  0  -0.069774  -0.074774  0  3.93604  0
C  C58  1  0.90090719  0.07671640  0.06104418  1  -0.028699  0  -0.07049  -0.105571  0  3.919401  0
C  C59  1  0.06578916  0.91540445  0.96299191  1  -0.145176  0  -0.075533  -0.084355  0  3.950579  0
C  C60  1  0.40552329  0.60662057  0.49317206  1  -0.016838  0  -0.010466  -0.065047  0  3.945466  0
C  C61  1  0.59601381  0.41796286  0.49399296  1  0.054441  0  -0.009572  -0.029683  0  3.966925  0
C  C62  1  0.45346132  0.55736071  0.41121527  1  -0.051291  0  -0.007617  -0.067296  0  3.980453  0
C  C63  1  0.55018803  0.46910785  0.57311970  1  -0.038981  0  -0.070618  -0.078557  0  3.933526  0
C  C64  1  0.54880705  0.46338160  0.41229405  1  -0.032214  0  -0.074839  -0.114267  0  3.93687  0
C  C65  1  0.45580006  0.56309660  0.57218566  1  -0.017585  0  -0.069498  -0.069378  0  3.92839  0
C  C66  1  0.99948318  0.59290280  0.90198831  1  0.10718  0  -0.010661  -0.140342  0  3.932635  0
C  C67  1  0.04418601  0.48726381  0.88982515  1  0.030106  0  -0.003698  -0.010732  0  4.009391  0
C  C68  1  0.95912306  0.59916410  0.00607127  1  0.539047  0  0.114153  0.180629  0  4.052142  0
C  C69  1  0.08952434  0.47281926  0.78568227  1  0.529668  0  0.092638  0.132114  0  4.045996  0
C  C70  1  0.12980356  0.37087399  0.77460194  1  0.571344  0  0.080224  0.07202  0  4.156633  0
C  C71  1  0.00062830  0.40031273  0.09314255  1  0.088687  0  -0.01095  -0.143044  0  3.932854  0
C  C72  1  0.95911633  0.50388532  0.10089366  1  0.568474  0  0.115747  0.189147  0  4.053269  0
C  C73  1  0.04493146  0.38940050  0.98694323  1  0.106718  0  -0.005495  -0.014905  0  4.016351  0
C  C74  1  0.09059869  0.28567587  0.97150375  1  0.528126  0  0.090814  0.126663  0  4.054718  0
C  C75  1  0.13019321  0.27558575  0.86911931  1  0.532314  0  0.081452  0.074446  0  4.157017  0
C  C76  1  0.40004009  0.99813524  0.50332709  1  -0.035635  0  -0.01181  -0.066796  0  3.950489  0
C  C77  1  0.58956996  0.00055737  0.50055016  1  -0.024025  0  -0.008952  -0.02675  0  3.967299  0
C  C78  1  0.45132271  0.91335731  0.58255610  1  -0.010362  0  -0.007734  -0.066786  0  3.980394  0
C  C79  1  0.53940726  0.08361175  0.42111862  1  0.001787  0  -0.069898  -0.073738  0  3.931946  0
C  C80  1  0.54615838  0.91540830  0.58004116  1  -0.061097  0  -0.074745  -0.115066  0  3.939658  0
C  C81  1  0.44534724  0.08200379  0.42261767  1  0.00607  0  -0.072508  -0.074676  0  3.938881  0
C  C82  1  0.14861939  0.43284303  0.30803280  1  1.565784  0  0.23447  0.587394  0  4.120769  0
C  C83  1  0.42758502  0.14785814  0.12421691  1  1.566386  0  0.236997  0.590785  0  4.12106  0
C  C84  1  0.80108167  0.16724479  0.92930583  1  1.56786  0  0.236817  0.588188  0  4.114145  0
C  C85  1  0.41166752  0.60142787  0.31742744  1  1.544904  0  0.23478  0.589832  0  4.119519  0
C  C86  1  0.41575079  0.81451935  0.66829087  1  1.544274  0  0.236196  0.591206  0  4.119208  0
O  O87  1  0.90924791  0.74344606  0.57744497  1  -1.179215  0  -0.353839  -0.617942  0  2.292187  0
O  O88  1  0.26071275  0.07327298  0.24560875  1  -1.167613  0  -0.351688  -0.6206  0  2.337539  0
O  O89  1  0.06324583  0.27189076  0.42265644  1  -1.185142  0  -0.345938  -0.612844  0  2.331167  0
O  O90  1  0.73070067  0.92393922  0.77077172  1  -1.176379  0  -0.358207  -0.621371  0  2.284379  0
O  O91  1  0.06790260  0.73959407  0.76993460  1  -1.162619  0  -0.343209  -0.599707  0  2.258866  0
O  O92  1  0.72861518  0.07912246  0.42492288  1  -1.178798  0  -0.353003  -0.614621  0  2.280846  0
O  O93  1  0.91405474  0.27000775  0.23933317  1  -1.166984  0  -0.343327  -0.60329  0  2.260349  0
O  O94  1  0.25907845  0.92300190  0.57795643  1  -1.175747  0  -0.350588  -0.619608  0  2.335553  0
O  O95  1  0.25927290  0.74189527  0.42345967  1  -1.181634  0  -0.348887  -0.618178  0  2.335046  0
O  O96  1  0.91136455  0.07645342  0.77199509  1  -1.188976  0  -0.348025  -0.618155  0  2.340685  0
O  O97  1  0.73129159  0.27286898  0.57619582  1  -1.180121  0  -0.352491  -0.615807  0  2.276318  0
O  O98  1  0.06569408  0.92209775  0.24244045  1  -1.173065  0  -0.350865  -0.611309  0  2.274384  0
O  O99  1  0.06592920  0.92301416  0.77183965  1  -1.190125  0  -0.349796  -0.608481  0  2.290818  0
O  O100  1  0.73217805  0.27174044  0.42236199  1  -1.173826  0  -0.355028  -0.615216  0  2.281225  0
O  O101  1  0.91133034  0.07584335  0.24355179  1  -1.178502  0  -0.354455  -0.61826  0  2.295749  0
O  O102  1  0.26010461  0.74206206  0.57670120  1  -1.173167  0  -0.348083  -0.598652  0  2.282525  0
O  O103  1  0.91271397  0.73921921  0.77158260  1  -1.163474  0  -0.340578  -0.601363  0  2.254786  0
O  O104  1  0.25725989  0.07897688  0.42787393  1  -1.182474  0  -0.347454  -0.601297  0  2.296678  0
O  O105  1  0.07080863  0.26658824  0.23837235  1  -1.158477  0  -0.337932  -0.591072  0  2.271601  0
O  O106  1  0.72890159  0.92576790  0.57820409  1  -1.183066  0  -0.355119  -0.615002  0  2.289862  0
O  O107  1  0.72918833  0.07856702  0.77070461  1  -1.174473  0  -0.352403  -0.608843  0  2.271389  0
O  O108  1  0.06468656  0.74158946  0.42455697  1  -1.179324  0  -0.353462  -0.616188  0  2.292462  0
O  O109  1  0.26034227  0.92150667  0.24232282  1  -1.171845  0  -0.347973  -0.601676  0  2.27677  0
O  O110  1  0.91277114  0.27090041  0.58001590  1  -1.187413  0  -0.35122  -0.615642  0  2.289618  0
O  O111  1  0.78902550  0.07214147  0.57112013  1  -1.222084  0  -0.695421  -1.072012  0  2.366074  0
O  O112  1  0.05861197  0.07079110  0.57190710  1  -1.223374  0  -0.694677  -1.070362  0  2.375266  0
O  O113  1  0.05974055  0.06903701  0.30239801  1  -1.232025  0  -0.699409  -1.074117  0  2.381074  0
O  O114  1  0.05865667  0.80182067  0.57081993  1  -1.23702  0  -0.700012  -1.075192  0  2.381507  0
O  O115  1  0.14138341  0.95301449  0.45440042  1  -1.196129  0  -0.791356  -1.147553  0  2.128619  0
O  O116  1  0.94140720  0.95383563  0.45438924  1  -1.198747  0  -0.791758  -1.148731  0  2.129091  0
O  O117  1  0.94259740  0.15224631  0.45411067  1  -1.199019  0  -0.789618  -1.148743  0  2.117178  0
O  O118  1  0.94172526  0.95415202  0.65299000  1  -1.199865  0  -0.790205  -1.148726  0  2.120322  0
O  O119  1  0.24731180  0.35363889  0.31854840  1  -1.065157  0  -0.327384  -0.458379  0  2.24205  0
O  O120  1  0.13485457  0.47977511  0.21902333  1  -1.099493  0  -0.272751  -0.434501  0  2.051941  0
O  O121  1  0.35934808  0.25330092  0.09090732  1  -1.088555  0  -0.326755  -0.458302  0  2.224453  0
O  O122  1  0.46864509  0.12026830  0.19147842  1  -1.104879  0  -0.260589  -0.428859  0  2.105656  0
O  O123  1  0.81796306  0.26000911  0.84234759  1  -1.102119  0  -0.341064  -0.489834  0  2.234504  0
O  O124  1  0.70776030  0.16274706  0.98169806  1  -1.104714  0  -0.257425  -0.422562  0  2.089965  0
O  O125  1  0.32798914  0.56965407  0.34004975  1  -1.093876  0  -0.336253  -0.478894  0  2.240603  0
O  O126  1  0.45614761  0.65266654  0.22342383  1  -1.108805  0  -0.271228  -0.439035  0  2.059  0
O  O127  1  0.33148151  0.82911314  0.76388405  1  -1.11246  0  -0.33459  -0.476584  0  2.238114  0
O  O128  1  0.46621453  0.72272021  0.65955379  1  -1.114361  0  -0.269512  -0.44033  0  2.069664  0
F  F129  1  0.91420184  0.51666941  0.20042715  1  -0.606558  0  -0.071818  -0.089164  0  1.360922  0
F  F130  1  0.91569924  0.69821648  0.01983684  1  -0.604587  0  -0.075608  -0.092435  0  1.34091  0
F  F131  1  0.09819554  0.19005714  0.05892169  1  -0.628416  0  -0.066146  -0.087887  0  1.431408  0
F  F132  1  0.17102151  0.17583617  0.85762211  1  -0.609346  0  -0.088502  -0.095261  0  1.369014  0
F  F133  1  0.17102578  0.36065116  0.67397107  1  -0.613989  0  -0.092144  -0.101176  0  1.368132  0
F  F134  1  0.09671285  0.56063004  0.69022507  1  -0.636309  0  -0.067353  -0.09143  0  1.431709  0
