# generated using pymatgen
data_CdH12C18N11O6
_symmetry_space_group_name_H-M   'P 1'
_cell_length_a   15.44984596
_cell_length_b   15.70193053
_cell_length_c   15.27644212
_cell_angle_alpha   120.92770826
_cell_angle_beta   112.06720058
_cell_angle_gamma   89.99866289
_symmetry_Int_Tables_number   1
_chemical_formula_structural   CdH12C18N11O6
_chemical_formula_sum   'Cd4 H48 C72 N44 O24'
_cell_volume   2857.93842199
_cell_formula_units_Z   4
loop_
 _symmetry_equiv_pos_site_id
 _symmetry_equiv_pos_as_xyz
  1  'x, y, z'
loop_
 _atom_site_type_symbol
 _atom_site_label
 _atom_site_symmetry_multiplicity
 _atom_site_fract_x
 _atom_site_fract_y
 _atom_site_fract_z
 _atom_site_occupancy
 _atom_site_pbe_bader_charge
 _atom_site_pbe_bader_spin_density
 _atom_site_pbe_cm5_charge
 _atom_site_pbe_ddec_charge
 _atom_site_pbe_ddec_spin_density
 _atom_site_pbe_ddec_sum_bond_order
 _atom_site_pbe_magmom
Cd  Cd0  1  0.31202129  0.05517079  0.34905425  1  1.256833  0  0.773783  0.756114  0  2.257604  0
Cd  Cd1  1  0.18797391  0.70611136  0.65094685  1  1.255839  0  0.773758  0.756131  0  2.25757  0
Cd  Cd2  1  0.68797758  0.94483988  0.65095458  1  1.256767  0  0.773796  0.756163  0  2.257728  0
Cd  Cd3  1  0.81202336  0.29388397  0.34904864  1  1.255683  0  0.773791  0.756164  0  2.257582  0
H  H4  1  0.14329946  0.16996191  0.26094916  1  0.114936  0  0.113546  0.080021  0  1.032296  0
H  H5  1  0.35671547  0.90902017  0.73905834  1  0.125613  0  0.113568  0.080063  0  1.032277  0
H  H6  1  0.85671688  0.83004688  0.73906994  1  0.114639  0  0.113578  0.080049  0  1.032193  0
H  H7  1  0.64327397  0.09098011  0.26094461  1  0.125606  0  0.113542  0.080067  0  1.032175  0
H  H8  1  0.14443956  0.32205386  0.24961144  1  0.133482  0  0.118167  0.133456  0  0.985464  0
H  H9  1  0.35557300  0.07245005  0.75038948  1  0.12062  0  0.118214  0.133515  0  0.985354  0
H  H10  1  0.85556731  0.67794532  0.75039021  1  0.133389  0  0.118209  0.133551  0  0.985383  0
H  H11  1  0.64443858  0.92755001  0.24961225  1  0.121187  0  0.118215  0.133529  0  0.985483  0
H  H12  1  0.44994004  0.42484278  0.47260580  1  0.122879  0  0.105546  0.101247  0  1.075237  0
H  H13  1  0.05006807  0.95223504  0.52740932  1  0.141337  0  0.105566  0.101319  0  1.075333  0
H  H14  1  0.55007205  0.57516277  0.52739458  1  0.123167  0  0.10558  0.101304  0  1.075344  0
H  H15  1  0.94993689  0.04776693  0.47259597  1  0.141249  0  0.105554  0.101261  0  1.075396  0
H  H16  1  0.43729294  0.26747371  0.47267732  1  0.138168  0  0.113066  0.082229  0  1.046334  0
H  H17  1  0.06272075  0.79479293  0.52733850  1  0.127856  0  0.113093  0.082255  0  1.046238  0
H  H18  1  0.56272055  0.73253173  0.52732293  1  0.13783  0  0.11305  0.082215  0  1.046286  0
H  H19  1  0.93727757  0.20520530  0.47266149  1  0.127693  0  0.113067  0.082235  0  1.046349  0
H  H20  1  0.39733600  0.98312017  0.52354375  1  0.096245  0  0.118499  0.090489  0  0.999454  0
H  H21  1  0.10266944  0.45956030  0.47643921  1  0.123475  0  0.118484  0.090495  0  0.999316  0
H  H22  1  0.60267711  0.01687680  0.47644630  1  0.09635  0  0.118487  0.090507  0  0.999369  0
H  H23  1  0.89732781  0.54043113  0.52355230  1  0.123468  0  0.118478  0.090494  0  0.999327  0
H  H24  1  0.39540217  0.82622690  0.52576293  1  0.133418  0  0.112944  0.124012  0  1.025715  0
H  H25  1  0.10459879  0.30044837  0.47422806  1  0.148264  0  0.112925  0.12403  0  1.025686  0
H  H26  1  0.60460836  0.17377694  0.47423803  1  0.133666  0  0.112921  0.124021  0  1.02568  0
H  H27  1  0.89539639  0.69954466  0.52576821  1  0.148405  0  0.11291  0.124008  0  1.025696  0
H  H28  1  0.22506598  0.65072320  0.16145948  1  0.135081  0  0.120062  0.127442  0  0.987738  0
H  H29  1  0.27491980  0.48925979  0.83853125  1  0.115492  0  0.120052  0.127456  0  0.987805  0
H  H30  1  0.77494016  0.34927629  0.83853322  1  0.135062  0  0.120111  0.127483  0  0.987753  0
H  H31  1  0.72505934  0.51074176  0.16146769  1  0.115755  0  0.12014  0.127471  0  0.987709  0
H  H32  1  0.23440070  0.81677326  0.17442204  1  0.091908  0  0.120691  0.094653  0  0.987661  0
H  H33  1  0.26560340  0.64234398  0.82556812  1  0.093766  0  0.120677  0.094621  0  0.987687  0
H  H34  1  0.76561941  0.18323352  0.82557796  1  0.092208  0  0.120668  0.094601  0  0.987611  0
H  H35  1  0.73437520  0.35765459  0.17442546  1  0.093575  0  0.120674  0.094599  0  0.987651  0
H  H36  1  0.12486017  0.05133388  0.38031884  1  0.156467  0  0.116148  0.090399  0  1.02797  0
H  H37  1  0.37513161  0.67100761  0.61967455  1  0.117957  0  0.116173  0.090472  0  1.028145  0
H  H38  1  0.87513172  0.94867197  0.61968823  1  0.156541  0  0.116168  0.0905  0  1.027897  0
H  H39  1  0.62486477  0.32898172  0.38031714  1  0.118136  0  0.116163  0.090414  0  1.027956  0
H  H40  1  0.94687606  0.02324208  0.28083880  1  0.110992  0  0.108694  0.112511  0  1.050749  0
H  H41  1  0.55311404  0.74239988  0.71915843  1  0.114981  0  0.108714  0.112536  0  1.050782  0
H  H42  1  0.05311717  0.97674913  0.71914711  1  0.110984  0  0.108662  0.112499  0  1.050726  0
H  H43  1  0.44687873  0.25760230  0.28085185  1  0.11477  0  0.108666  0.112495  0  1.050636  0
H  H44  1  0.97412914  0.88758287  0.96718036  1  0.096999  0  0.115467  0.12916  0  1.037981  0
H  H45  1  0.52585741  0.92041423  0.03281820  1  0.144294  0  0.115454  0.129064  0  1.038115  0
H  H46  1  0.02587474  0.11241184  0.03281289  1  0.096788  0  0.115465  0.129169  0  1.038025  0
H  H47  1  0.47413045  0.07959957  0.96718543  1  0.14439  0  0.115482  0.129193  0  1.037948  0
H  H48  1  0.15087609  0.92455945  0.07902060  1  0.137893  0  0.119175  0.100322  0  1.007971  0
H  H49  1  0.34911709  0.84554523  0.92097421  1  0.143133  0  0.11914  0.100254  0  1.00805  0
H  H50  1  0.84913028  0.07544629  0.92098853  1  0.137965  0  0.119152  0.100268  0  1.008017  0
H  H51  1  0.65087737  0.15445674  0.07901882  1  0.143637  0  0.119149  0.100245  0  1.008016  0
C  C52  1  0.30670623  0.47157780  0.34732872  1  0.988764  0  0.251094  0.25295  0  4.001762  0
C  C53  1  0.19330169  0.12425331  0.65268132  1  0.990227  0  0.251073  0.253093  0  4.001398  0
C  C54  1  0.69330187  0.52842546  0.65267632  1  0.989083  0  0.251147  0.253094  0  4.001391  0
C  C55  1  0.80670361  0.87574564  0.34731934  1  0.990338  0  0.251131  0.253077  0  4.001428  0
C  C56  1  0.31233478  0.63055734  0.33969662  1  0.973128  0  0.253238  0.250647  0  3.984393  0
C  C57  1  0.18765158  0.29085049  0.66028934  1  0.998089  0  0.25317  0.250593  0  3.98462  0
C  C58  1  0.68766423  0.36944413  0.66030049  1  0.973186  0  0.253244  0.250584  0  3.984411  0
C  C59  1  0.81233643  0.70914166  0.33970223  1  0.997964  0  0.253169  0.250594  0  3.984717  0
C  C60  1  0.21024225  0.22766969  0.30682805  1  0.479994  0  0.05234  0.103545  0  3.95126  0
C  C61  1  0.28976894  0.92084597  0.69317336  1  0.471137  0  0.052225  0.103392  0  3.951401  0
C  C62  1  0.78977020  0.77233441  0.69317548  1  0.480708  0  0.052322  0.103525  0  3.951027  0
C  C63  1  0.71022953  0.07915791  0.30682080  1  0.471165  0  0.052363  0.10348  0  3.951181  0
C  C64  1  0.21063566  0.31314035  0.30064582  1  0.043938  0  -0.069071  -0.1433  0  3.903667  0
C  C65  1  0.28937045  0.01250057  0.69935626  1  0.02929  0  -0.069119  -0.143323  0  3.903649  0
C  C66  1  0.78936863  0.68686718  0.69936516  1  0.04403  0  -0.069109  -0.143431  0  3.903596  0
C  C67  1  0.71063117  0.98750293  0.30064211  1  0.028866  0  -0.06911  -0.143354  0  3.903636  0
C  C68  1  0.29803204  0.38510685  0.35885221  1  -0.02938  0  0.01553  0.060018  0  3.975876  0
C  C69  1  0.20197120  0.02624564  0.64113725  1  -0.009701  0  0.015621  0.06007  0  3.975946  0
C  C70  1  0.70197428  0.61489298  0.64114160  1  -0.029812  0  0.01552  0.060025  0  3.975803  0
C  C71  1  0.79803146  0.97375316  0.35885478  1  -0.009868  0  0.01557  0.060044  0  3.975934  0
C  C72  1  0.38030732  0.37104189  0.42584495  1  -0.034869  0  -0.07903  -0.150589  0  3.925631  0
C  C73  1  0.11969924  0.94519025  0.57416095  1  -0.055604  0  -0.079045  -0.150644  0  3.925705  0
C  C74  1  0.61970128  0.62896577  0.57415452  1  -0.0351  0  -0.079034  -0.150565  0  3.925689  0
C  C75  1  0.88030742  0.05480034  0.42582807  1  -0.055447  0  -0.079053  -0.15061  0  3.925865  0
C  C76  1  0.37363922  0.28293082  0.42578789  1  0.478041  0  0.041613  0.092684  0  3.942278  0
C  C77  1  0.12636719  0.85714510  0.57423412  1  0.492286  0  0.041605  0.09276  0  3.942105  0
C  C78  1  0.62636875  0.71708488  0.57423217  1  0.47907  0  0.041577  0.092674  0  3.942242  0
C  C79  1  0.87363238  0.14285896  0.42577414  1  0.492322  0  0.041583  0.092711  0  3.94204  0
C  C80  1  0.35839371  0.90839853  0.44524621  1  0.541611  0  0.052406  0.108979  0  3.926696  0
C  C81  1  0.14161172  0.46314062  0.55474136  1  0.527623  0  0.052368  0.1089  0  3.926092  0
C  C82  1  0.64161417  0.09160043  0.55474438  1  0.541267  0  0.05241  0.108864  0  3.92639  0
C  C83  1  0.85836811  0.53685451  0.44525411  1  0.527718  0  0.052423  0.108923  0  3.92637  0
C  C84  1  0.35704530  0.82036753  0.44610718  1  -0.001836  0  -0.067869  -0.128358  0  3.89811  0
C  C85  1  0.14295954  0.37424811  0.55388864  1  0.001121  0  -0.067747  -0.128266  0  3.897688  0
C  C86  1  0.64295825  0.17963493  0.55389244  1  -0.002128  0  -0.067764  -0.128189  0  3.897805  0
C  C87  1  0.85703406  0.62574553  0.44610440  1  0.000908  0  -0.067725  -0.128219  0  3.897718  0
C  C88  1  0.30904982  0.72561103  0.34301041  1  0.023125  0  0.020656  0.064778  0  3.96485  0
C  C89  1  0.19094799  0.38259890  0.65698916  1  0.003917  0  0.020624  0.064725  0  3.964813  0
C  C90  1  0.69095671  0.27439265  0.65699430  1  0.023359  0  0.020589  0.064709  0  3.964683  0
C  C91  1  0.80904369  0.61740032  0.34300727  1  0.004227  0  0.020559  0.064684  0  3.965094  0
C  C92  1  0.26254250  0.72327833  0.24306306  1  -0.051981  0  -0.067063  -0.136556  0  3.906086  0
C  C93  1  0.23746554  0.48021903  0.75693663  1  -0.034865  0  -0.067074  -0.136537  0  3.906035  0
C  C94  1  0.73747710  0.27672016  0.75693853  1  -0.052393  0  -0.067081  -0.136602  0  3.906109  0
C  C95  1  0.76252425  0.51978408  0.24306766  1  -0.034923  0  -0.067097  -0.136552  0  3.906195  0
C  C96  1  0.26764717  0.81506561  0.25018413  1  0.509953  0  0.048458  0.093401  0  3.945971  0
C  C97  1  0.23236175  0.56487857  0.74980619  1  0.503823  0  0.04854  0.093562  0  3.94622  0
C  C98  1  0.73237137  0.18493147  0.74981140  1  0.509622  0  0.048541  0.093617  0  3.946114  0
C  C99  1  0.76763377  0.43512007  0.25019116  1  0.50365  0  0.048537  0.093648  0  3.94619  0
C  C100  1  0.84233114  0.93793837  0.05423041  1  1.045573  0  0.255547  0.252212  0  3.965856  0
C  C101  1  0.65765713  0.88371004  0.94577057  1  1.021467  0  0.255563  0.251913  0  3.96625  0
C  C102  1  0.15766961  0.06205486  0.94576600  1  1.045778  0  0.255602  0.252228  0  3.966036  0
C  C103  1  0.34233807  0.11629811  0.05423804  1  1.021205  0  0.255667  0.25213  0  3.965898  0
C  C104  1  0.08852508  0.01532138  0.28878411  1  0.427423  0  0.048619  0.094458  0  3.927738  0
C  C105  1  0.41146104  0.72653536  0.71120649  1  0.500934  0  0.048623  0.09448  0  3.92746  0
C  C106  1  0.91147588  0.98467932  0.71122070  1  0.427807  0  0.048517  0.094173  0  3.927385  0
C  C107  1  0.58853045  0.27345554  0.28878376  1  0.500886  0  0.048682  0.094534  0  3.927475  0
C  C108  1  0.98957581  0.99918891  0.23337133  1  0.02537  0  -0.073976  -0.138078  0  3.913405  0
C  C109  1  0.51042026  0.76582170  0.76662682  1  -0.021307  0  -0.07403  -0.138161  0  3.913143  0
C  C110  1  0.01043072  0.00082099  0.76663355  1  0.025362  0  -0.073955  -0.13799  0  3.913122  0
C  C111  1  0.48957650  0.23417675  0.23337574  1  -0.020914  0  -0.073961  -0.138014  0  3.913373  0
C  C112  1  0.94646824  0.95374410  0.11578417  1  -0.046868  0  0.01563  0.056155  0  3.979562  0
C  C113  1  0.55351854  0.83796429  0.88421457  1  -0.01697  0  0.015652  0.056335  0  3.979604  0
C  C114  1  0.05353357  0.04625610  0.88421781  1  -0.047146  0  0.015668  0.056204  0  3.979622  0
C  C115  1  0.44647230  0.16204061  0.11579000  1  -0.017232  0  0.015651  0.056189  0  3.979838  0
C  C116  1  0.00450650  0.92415933  0.05839522  1  0.058906  0  -0.065622  -0.13327  0  3.894676  0
C  C117  1  0.49548590  0.86577770  0.94160582  1  -0.011369  0  -0.065574  -0.133219  0  3.894677  0
C  C118  1  0.99549129  0.07583294  0.94160256  1  0.059161  0  -0.065633  -0.13336  0  3.894802  0
C  C119  1  0.50450876  0.13424057  0.05839844  1  -0.011548  0  -0.065687  -0.133412  0  3.894706  0
C  C120  1  0.10329788  0.94437439  0.12065256  1  0.48025  0  0.053262  0.095172  0  3.918006  0
C  C121  1  0.39669197  0.82372778  0.87934364  1  0.499182  0  0.053189  0.095169  0  3.917853  0
C  C122  1  0.89670394  0.05562906  0.87935273  1  0.480222  0  0.053295  0.095283  0  3.918108  0
C  C123  1  0.60329900  0.17627694  0.12064914  1  0.499105  0  0.053302  0.095327  0  3.917976  0
N  N124  1  0.38511108  0.17590258  0.59525063  1  0.773221  0  0.089756  0.709589  0  4.408762  0
N  N125  1  0.11488384  0.58067128  0.40475731  1  0.837955  0  0.08981  0.709544  0  4.408754  0
N  N126  1  0.61488919  0.82409552  0.40475772  1  0.772979  0  0.089837  0.709679  0  4.408509  0
N  N127  1  0.88511378  0.41932557  0.59523819  1  0.838278  0  0.089929  0.709715  0  4.408659  0
N  N128  1  0.41263067  0.00031643  0.20966464  1  0.837554  0  0.092756  0.697845  0  4.441295  0
N  N129  1  0.08736847  0.79064742  0.79034480  1  0.834807  0  0.092519  0.69734  0  4.441358  0
N  N130  1  0.58736748  0.99968423  0.79033398  1  0.837704  0  0.092614  0.697754  0  4.441312  0
N  N131  1  0.91262881  0.20934706  0.20965292  1  0.833601  0  0.092624  0.697604  0  4.441345  0
N  N132  1  0.38563831  0.63446883  0.42638221  1  -0.546322  0  -0.143146  -0.129847  0  3.205419  0
N  N133  1  0.11435495  0.20807548  0.57360524  1  -0.568166  0  -0.143144  -0.12984  0  3.205546  0
N  N134  1  0.61436437  0.36552874  0.57361784  1  -0.546423  0  -0.143135  -0.129846  0  3.20547  0
N  N135  1  0.88564179  0.79192141  0.42638954  1  -0.568015  0  -0.143104  -0.12992  0  3.205421  0
N  N136  1  0.24993581  0.45941213  0.24724968  1  -0.518898  0  -0.149768  -0.140297  0  3.194007  0
N  N137  1  0.25006690  0.21217146  0.75275805  1  -0.513106  0  -0.149803  -0.140287  0  3.193818  0
N  N138  1  0.75006950  0.54059265  0.75275694  1  -0.519043  0  -0.149833  -0.140437  0  3.193848  0
N  N139  1  0.74993560  0.78782577  0.24724088  1  -0.513055  0  -0.149824  -0.140354  0  3.193944  0
N  N140  1  0.38185385  0.55296185  0.43028172  1  -0.581576  0  -0.146615  -0.13218  0  3.24875  0
N  N141  1  0.11814762  0.12267068  0.56971790  1  -0.582506  0  -0.14652  -0.132181  0  3.248429  0
N  N142  1  0.61814919  0.44704049  0.56972166  1  -0.5816  0  -0.146553  -0.132104  0  3.248431  0
N  N143  1  0.88185364  0.87732267  0.43027475  1  -0.582461  0  -0.146606  -0.132131  0  3.248736  0
N  N144  1  0.25237748  0.54164998  0.24447521  1  -0.532716  0  -0.138233  -0.121861  0  3.207135  0
N  N145  1  0.24761735  0.29717927  0.75552025  1  -0.538431  0  -0.138223  -0.121958  0  3.207103  0
N  N146  1  0.74762503  0.45835393  0.75552746  1  -0.532723  0  -0.138269  -0.121838  0  3.206919  0
N  N147  1  0.75237871  0.70281976  0.24447980  1  -0.539018  0  -0.138174  -0.121821  0  3.207453  0
N  N148  1  0.29040268  0.21108392  0.36543665  1  -1.231446  0  -0.325916  -0.238979  0  3.495763  0
N  N149  1  0.20960875  0.84565089  0.63457564  1  -1.229137  0  -0.325925  -0.239144  0  3.495953  0
N  N150  1  0.70960907  0.78892141  0.63456505  1  -1.232171  0  -0.325917  -0.239078  0  3.495726  0
N  N151  1  0.79038715  0.15435408  0.36543282  1  -1.229025  0  -0.32596  -0.239097  0  3.495859  0
N  N152  1  0.31484645  0.90621375  0.34936358  1  -1.235556  0  -0.325082  -0.231205  0  3.509506  0
N  N153  1  0.18515023  0.55683980  0.65062725  1  -1.241753  0  -0.325132  -0.231338  0  3.509828  0
N  N154  1  0.68516632  0.09378429  0.65062911  1  -1.235034  0  -0.325185  -0.231371  0  3.509724  0
N  N155  1  0.81483624  0.44315647  0.34937087  1  -1.241548  0  -0.325208  -0.231429  0  3.51004  0
N  N156  1  0.79132885  0.97784857  0.11494492  1  -0.58471  0  -0.139497  -0.122696  0  3.207866  0
N  N157  1  0.70865593  0.86289833  0.88505377  1  -0.565387  0  -0.13946  -0.122444  0  3.208211  0
N  N158  1  0.20867104  0.02214256  0.88505166  1  -0.584967  0  -0.139434  -0.122612  0  3.208178  0
N  N159  1  0.29133524  0.13709669  0.11494534  1  -0.565424  0  -0.139594  -0.12269  0  3.208216  0
N  N160  1  0.69688453  0.95132412  0.05947607  1  -0.543878  0  -0.13234  -0.119516  0  3.20394  0
N  N161  1  0.80309599  0.89184089  0.94052039  1  -0.570032  0  -0.132419  -0.119787  0  3.20422  0
N  N162  1  0.30310978  0.04867479  0.94052544  1  -0.543453  0  -0.132439  -0.119655  0  3.20384  0
N  N163  1  0.19689132  0.10814153  0.05946744  1  -0.570571  0  -0.132353  -0.119636  0  3.204159  0
N  N164  1  0.14473681  0.98984701  0.23404298  1  -1.238235  0  -0.328784  -0.239495  0  3.50992  0
N  N165  1  0.35525384  0.75579999  0.76595289  1  -1.239873  0  -0.328788  -0.239617  0  3.509904  0
N  N166  1  0.85526083  0.01015679  0.76596271  1  -1.238242  0  -0.328812  -0.239526  0  3.509911  0
N  N167  1  0.64473923  0.24419179  0.23403902  1  -1.240006  0  -0.328888  -0.239684  0  3.509932  0
O  O168  1  0.29318066  0.14045377  0.53691063  1  -0.569017  0  -0.217344  -0.48744  0  1.981576  0
O  O169  1  0.20681464  0.60355296  0.46308531  1  -0.575097  0  -0.217323  -0.487438  0  1.98168  0
O  O170  1  0.70682010  0.85953602  0.46308536  1  -0.569038  0  -0.217314  -0.487474  0  1.981431  0
O  O171  1  0.79318350  0.39644835  0.53691397  1  -0.575186  0  -0.217354  -0.487499  0  1.981787  0
O  O172  1  0.43609412  0.15273539  0.53938586  1  -0.579386  0  -0.208597  -0.450232  0  2.013872  0
O  O173  1  0.06390416  0.61335047  0.46062848  1  -0.572304  0  -0.2086  -0.45017  0  2.014099  0
O  O174  1  0.56391473  0.84728027  0.46063492  1  -0.579346  0  -0.208642  -0.450284  0  2.014078  0
O  O175  1  0.93609135  0.38664791  0.53936241  1  -0.572693  0  -0.208641  -0.450216  0  2.014106  0
O  O176  1  0.42341817  0.22919629  0.70024791  1  -0.428307  0  -0.180794  -0.39595  0  1.871312  0
O  O177  1  0.07656915  0.52899295  0.29975939  1  -0.49463  0  -0.180852  -0.395961  0  1.87099  0
O  O178  1  0.57656955  0.77079188  0.29975971  1  -0.428116  0  -0.180872  -0.395999  0  1.871103  0
O  O179  1  0.92343283  0.47099917  0.70023510  1  -0.494446  0  -0.180906  -0.396048  0  1.870932  0
O  O180  1  0.32364487  0.95584574  0.16106115  1  -0.557991  0  -0.20776  -0.45954  0  1.979777  0
O  O181  1  0.17635679  0.79479833  0.83895510  1  -0.555053  0  -0.207724  -0.459453  0  1.97998  0
O  O182  1  0.67635504  0.04414629  0.83894255  1  -0.55802  0  -0.207731  -0.459485  0  1.979778  0
O  O183  1  0.82364345  0.20520658  0.16104474  1  -0.554309  0  -0.207802  -0.45954  0  1.979862  0
O  O184  1  0.45162312  0.06690524  0.31776357  1  -0.574731  0  -0.205241  -0.441393  0  2.001541  0
O  O185  1  0.04838078  0.74915342  0.68225121  1  -0.575747  0  -0.205204  -0.441191  0  2.001438  0
O  O186  1  0.54837503  0.93309588  0.68223861  1  -0.574745  0  -0.205224  -0.441358  0  2.00159  0
O  O187  1  0.95161772  0.25084793  0.31774965  1  -0.575848  0  -0.20521  -0.441244  0  2.00141  0
O  O188  1  0.46099336  0.98114699  0.15513940  1  -0.519641  0  -0.174894  -0.413505  0  1.97364  0
O  O189  1  0.03899340  0.82597531  0.84486453  1  -0.518252  0  -0.17475  -0.413315  0  1.973387  0
O  O190  1  0.53900042  0.01886529  0.84486107  1  -0.519762  0  -0.174797  -0.413492  0  1.97353  0
O  O191  1  0.96100214  0.17400725  0.15513497  1  -0.517676  0  -0.174759  -0.41342  0  1.973567  0
