# generated using pymatgen
data_AlH27(C17O6)3
_symmetry_space_group_name_H-M   'P 1'
_cell_length_a   4.08620389
_cell_length_b   23.49777314
_cell_length_c   23.46319862
_cell_angle_alpha   60.30541295
_cell_angle_beta   87.13474888
_cell_angle_gamma   86.92921112
_symmetry_Int_Tables_number   1
_chemical_formula_structural   AlH27(C17O6)3
_chemical_formula_sum   'Al1 H27 C51 O18'
_cell_volume   1953.48524884
_cell_formula_units_Z   1
loop_
 _symmetry_equiv_pos_site_id
 _symmetry_equiv_pos_as_xyz
  1  'x, y, z'
loop_
 _atom_site_type_symbol
 _atom_site_label
 _atom_site_symmetry_multiplicity
 _atom_site_fract_x
 _atom_site_fract_y
 _atom_site_fract_z
 _atom_site_occupancy
 _atom_site_pbe_bader_charge
 _atom_site_pbe_bader_spin_density
 _atom_site_pbe_cm5_charge
 _atom_site_pbe_ddec_charge
 _atom_site_pbe_ddec_spin_density
 _atom_site_pbe_ddec_sum_bond_order
 _atom_site_pbe_magmom
Al  Al0  1  0.00355735  0.50089727  0.49956799  1  2.509496  0  0.439024  1.611955  0  2.549019  0
H  H1  1  0.32262399  0.32686610  0.67414398  1  0.107708  0  0.122721  0.135973  0  0.951491  0
H  H2  1  0.32767373  0.25661657  0.79380881  1  0.147598  0  0.115238  0.12813  0  1.009046  0
H  H3  1  0.76426344  0.15221833  0.02118055  1  0.072805  0  0.102038  0.097886  0  1.03342  0
H  H4  1  0.55070901  0.80686307  0.26590575  1  0.062726  0  0.10722  0.1103  0  0.999337  0
H  H5  1  0.25571954  0.88768598  0.24411931  1  0.108486  0  0.108692  0.112545  0  0.99874  0
H  H6  1  0.23126675  0.00617103  0.17628413  1  0.057754  0  0.105526  0.10816  0  0.991915  0
H  H7  1  0.47568832  0.09909486  0.11088181  1  0.040247  0  0.09991  0.100721  0  1.023255  0
H  H8  1  0.46265514  0.67344342  0.50839813  1  0.073168  0  0.125029  0.137034  0  0.953738  0
H  H9  1  0.45084547  0.79382041  0.45612001  1  0.162329  0  0.117609  0.136223  0  1.033151  0
H  H10  1  0.76334054  0.02128192  0.32098898  1  0.057892  0  0.10454  0.101722  0  1.033883  0
H  H11  1  0.74806740  0.26966935  0.41613863  1  0.134407  0  0.109605  0.112511  0  1.006231  0
H  H12  1  0.29161697  0.24179014  0.37373542  1  0.094636  0  0.114424  0.122176  0  0.981429  0
H  H13  1  0.25068420  0.17489542  0.32094459  1  0.080158  0  0.107901  0.110857  0  0.987119  0
H  H14  1  0.50309754  0.11022073  0.28818102  1  0.084671  0  0.101931  0.103187  0  1.021919  0
H  H15  1  0.32541162  0.49846295  0.32898098  1  0.108386  0  0.116479  0.12828  0  0.965179  0
H  H16  1  0.32007560  0.44734331  0.25934336  1  0.13963  0  0.115127  0.127766  0  0.999217  0
H  H17  1  0.78106814  0.31877637  0.15215140  1  0.055872  0  0.10245  0.097845  0  1.034452  0
H  H18  1  0.66162864  0.41866704  0.81127666  1  0.090048  0  0.109767  0.113348  0  1.00032  0
H  H19  1  0.23270239  0.37028972  0.88973779  1  0.092286  0  0.114097  0.121655  0  0.980737  0
H  H20  1  0.20263831  0.31716144  0.00982682  1  0.06024  0  0.106164  0.10822  0  0.989338  0
H  H21  1  0.48732852  0.28673666  0.10067727  1  0.052921  0  0.09985  0.099526  0  1.024533  0
H  H22  1  0.02537932  0.36968874  0.50866177  1  0.644403  0  0.308662  0.3445  0  0.977032  0
H  H23  1  0.95853305  0.51319650  0.61977304  1  0.607138  0  0.309536  0.347238  0  0.973419  0
H  H24  1  0.84922364  0.64957780  0.30148718  1  0.679838  0  0.315684  0.381109  0  0.956528  0
H  H25  1  0.17287470  0.36311590  0.15950042  1  0.612222  0  0.306159  0.33417  0  0.959184  0
H  H26  1  0.15949192  0.16286658  0.96387791  1  0.594435  0  0.306628  0.33425  0  0.95833  0
H  H27  1  0.15838782  0.96578751  0.36297510  1  0.60624  0  0.304271  0.331166  0  0.970019  0
C  C28  1  0.49592019  0.45020472  0.60148150  1  1.565121  0  0.286351  0.671074  0  4.042386  0
C  C29  1  0.53511810  0.44855405  0.44981194  1  1.565704  0  0.285684  0.669196  0  4.049722  0
C  C30  1  0.48815992  0.59980946  0.45082670  1  1.539998  0  0.285928  0.673382  0  4.049655  0
C  C31  1  0.40275745  0.34656637  0.70437519  1  -0.00875  0  -0.072478  -0.078366  0  3.927039  0
C  C32  1  0.40665820  0.30667274  0.77217294  1  0.018971  0  -0.068827  -0.0836  0  3.920953  0
C  C33  1  0.66454199  0.22984110  0.92324599  1  0.020436  0  -0.01456  -0.102462  0  3.975054  0
C  C34  1  0.64587484  0.20036183  0.99201489  1  -0.156029  0  -0.098125  -0.189631  0  4.023665  0
C  C35  1  0.49297207  0.71104689  0.34800400  1  -0.009764  0  -0.010034  -0.066136  0  3.99331  0
C  C36  1  0.52309059  0.77865526  0.31916881  1  0.082392  0  -0.081561  -0.14316  0  3.949629  0
C  C37  1  0.37952824  0.91649374  0.26079035  1  -0.124643  0  -0.085714  -0.125463  0  3.980469  0
C  C38  1  0.36423751  0.98416856  0.22192278  1  -0.015607  0  -0.087226  -0.115681  0  3.989541  0
C  C39  1  0.49766661  0.41180579  0.67477159  1  -0.046897  0  -0.010184  -0.071457  0  3.974874  0
C  C40  1  0.51083261  0.33116572  0.81190101  1  -0.051881  0  -0.008431  0.050959  0  3.997719  0
C  C41  1  0.51155527  0.29253533  0.88473187  1  -0.07188  0  0.011761  0.073814  0  3.916378  0
C  C42  1  0.48386754  0.23002164  0.02510019  1  -0.042908  0  -0.013941  0.059879  0  4.030859  0
C  C43  1  0.47850972  0.19678076  0.09757826  1  0.104892  0  -0.007861  0.084931  0  4.022714  0
C  C44  1  0.47921215  0.12819619  0.13536512  1  -0.072043  0  -0.090654  -0.181247  0  3.928612  0
C  C45  1  0.47974972  0.70315135  0.45506154  1  0.061986  0  -0.067039  -0.066497  0  3.927334  0
C  C46  1  0.47894668  0.77103723  0.42563647  1  0.008013  0  -0.075504  -0.107159  0  3.921321  0
C  C47  1  0.67406459  0.92291395  0.34392753  1  -0.001112  0  -0.011683  -0.096779  0  3.935834  0
C  C48  1  0.65520493  0.99148608  0.30359175  1  -0.070442  0  -0.097652  -0.191004  0  4.018263  0
C  C49  1  0.66373683  0.34854781  0.43597924  1  -0.020797  0  -0.0169  -0.07847  0  3.999935  0
C  C50  1  0.66181416  0.32062272  0.39540785  1  -0.020997  0  -0.076946  -0.135348  0  3.955904  0
C  C51  1  0.40055628  0.25890944  0.32478743  1  -0.03356  0  -0.079523  -0.116006  0  3.955563  0
C  C52  1  0.38048281  0.22068793  0.29518082  1  -0.14272  0  -0.081746  -0.109621  0  3.971794  0
C  C53  1  0.48817203  0.67258230  0.41679610  1  -0.08149  0  -0.002718  -0.056583  0  3.949966  0
C  C54  1  0.51958487  0.81011241  0.35710063  1  -0.05068  0  -0.004593  0.06246  0  3.970534  0
C  C55  1  0.53031152  0.88291212  0.32245493  1  0.001926  0  0.009869  0.066309  0  3.897351  0
C  C56  1  0.50203514  0.02380840  0.24296346  1  -0.024396  0  -0.013037  0.062448  0  4.02929  0
C  C57  1  0.48898805  0.09616004  0.20404543  1  -0.049906  0  -0.008114  0.081527  0  4.024123  0
C  C58  1  0.49485613  0.13424903  0.23483611  1  0.003636  0  -0.0889  -0.177068  0  3.921544  0
C  C59  1  0.42497729  0.44863577  0.34733759  1  -0.024643  0  -0.076243  -0.086038  0  3.940316  0
C  C60  1  0.42337053  0.41993470  0.30783194  1  0.016019  0  -0.068022  -0.078777  0  3.918476  0
C  C61  1  0.68820581  0.34182805  0.22970501  1  0.021362  0  -0.014542  -0.096555  0  3.973032  0
C  C62  1  0.67039329  0.30202300  0.20090978  1  -0.098006  0  -0.097472  -0.190883  0  4.025877  0
C  C63  1  0.58685305  0.43819189  0.71384887  1  -0.015673  0  -0.017698  -0.08058  0  4.005423  0
C  C64  1  0.59181628  0.39719903  0.78191554  1  0.035633  0  -0.07682  -0.134594  0  3.954322  0
C  C65  1  0.35317029  0.32231814  0.91856373  1  -0.09719  0  -0.079809  -0.118056  0  3.958599  0
C  C66  1  0.33757112  0.29240593  0.98659245  1  0.041159  0  -0.083156  -0.110159  0  3.975791  0
C  C67  1  0.54881006  0.41384846  0.41081162  1  -0.017881  0  -0.011621  -0.07411  0  3.979148  0
C  C68  1  0.55067121  0.35565449  0.33111758  1  -0.089895  0  -0.007384  0.053915  0  3.998133  0
C  C69  1  0.54720448  0.32045701  0.29322533  1  -0.042388  0  0.01266  0.072088  0  3.920577  0
C  C70  1  0.51407539  0.24191420  0.23178086  1  0.068108  0  -0.013838  0.056725  0  4.030108  0
C  C71  1  0.49513204  0.20284337  0.19845803  1  -0.046465  0  -0.008124  0.083326  0  4.025993  0
C  C72  1  0.48517369  0.23340466  0.12983853  1  -0.086115  0  -0.090573  -0.181593  0  3.929405  0
C  C73  1  0.75987330  0.30314756  0.50586036  1  1.550613  0  0.225144  0.566224  0  4.133411  0
C  C74  1  0.64845015  0.50945272  0.68858290  1  1.558151  0  0.225564  0.568012  0  4.134398  0
C  C75  1  0.41315086  0.68078555  0.30726109  1  1.562038  0  0.252823  0.622063  0  4.079212  0
C  C76  1  0.85327394  0.40625800  0.19028953  1  1.512224  0  0.23209  0.567711  0  4.091696  0
C  C77  1  0.84581612  0.19174264  0.89477916  1  1.52846  0  0.230873  0.564663  0  4.095724  0
C  C78  1  0.83053973  0.90012689  0.40929709  1  1.55446  0  0.235203  0.568767  0  4.077594  0
O  O79  1  0.26326749  0.57179586  0.43870312  1  -1.265408  0  -0.236001  -0.605034  0  2.358076  0
O  O80  1  0.24898678  0.48893640  0.57379842  1  -1.263096  0  -0.226685  -0.597695  0  2.395871  0
O  O81  1  0.28903081  0.43808304  0.48964989  1  -1.261312  0  -0.227793  -0.600038  0  2.401833  0
O  O82  1  0.71741910  0.57018196  0.49109941  1  -1.264251  0  -0.231879  -0.602698  0  2.402755  0
O  O83  1  0.76029301  0.48802351  0.43925544  1  -1.249075  0  -0.227299  -0.585767  0  2.375133  0
O  O84  1  0.73674927  0.43993489  0.57108331  1  -1.252387  0  -0.230086  -0.5906  0  2.394027  0
O  O85  1  0.91625311  0.32803175  0.53779890  1  -1.148086  0  -0.339828  -0.464638  0  2.268406  0
O  O86  1  0.68963178  0.24569926  0.53363199  1  -1.094501  0  -0.273726  -0.430282  0  2.035424  0
O  O87  1  0.82445550  0.54223207  0.63178967  1  -1.118634  0  -0.340109  -0.467993  0  2.268004  0
O  O88  1  0.53455364  0.53724565  0.71755035  1  -1.100238  0  -0.276138  -0.433953  0  2.031824  0
O  O89  1  0.61344582  0.63800969  0.30134202  1  -1.161705  0  -0.319151  -0.460316  0  2.253498  0
O  O90  1  0.14020556  0.69455267  0.28237656  1  -1.150867  0  -0.280918  -0.500282  0  2.209828  0
O  O91  1  0.09502870  0.40779471  0.14703122  1  -1.120396  0  -0.344496  -0.465021  0  2.235211  0
O  O92  1  0.78127376  0.45582114  0.19265994  1  -1.083638  0  -0.246732  -0.407541  0  2.106727  0
O  O93  1  0.09293716  0.15025463  0.93228648  1  -1.105032  0  -0.344788  -0.466211  0  2.240941  0
O  O94  1  0.78322513  0.19348368  0.84396512  1  -1.085821  0  -0.241404  -0.399079  0  2.112646  0
O  O95  1  0.07244865  0.93884217  0.40781400  1  -1.120939  0  -0.34305  -0.464701  0  2.262121  0
O  O96  1  0.74617191  0.85486436  0.46187999  1  -1.098895  0  -0.240898  -0.392998  0  2.120882  0
