# generated using pymatgen
data_SnPH2(CO)3
_symmetry_space_group_name_H-M   'P 1'
_cell_length_a   4.83824242
_cell_length_b   6.83534082
_cell_length_c   16.43964394
_cell_angle_alpha   89.99996685
_cell_angle_beta   90.00009222
_cell_angle_gamma   106.55629757
_symmetry_Int_Tables_number   1
_chemical_formula_structural   SnPH2(CO)3
_chemical_formula_sum   'Sn4 P4 H8 C12 O12'
_cell_volume   521.13535697
_cell_formula_units_Z   4
loop_
 _symmetry_equiv_pos_site_id
 _symmetry_equiv_pos_as_xyz
  1  'x, y, z'
loop_
 _atom_site_type_symbol
 _atom_site_label
 _atom_site_symmetry_multiplicity
 _atom_site_fract_x
 _atom_site_fract_y
 _atom_site_fract_z
 _atom_site_occupancy
 _atom_site_hle17_bader_spin_density
 _atom_site_hle17_ddec_charge
 _atom_site_hle17_ddec_spin_density
 _atom_site_hle17_ddec_sum_bond_order
 _atom_site_hle17_magmom
 _atom_site_hse06_10hf_bader_spin_density
 _atom_site_hse06_10hf_ddec_charge
 _atom_site_hse06_10hf_ddec_spin_density
 _atom_site_hse06_10hf_ddec_sum_bond_order
 _atom_site_hse06_10hf_magmom
 _atom_site_hse06_bader_spin_density
 _atom_site_hse06_ddec_charge
 _atom_site_hse06_ddec_spin_density
 _atom_site_hse06_ddec_sum_bond_order
 _atom_site_hse06_magmom
 _atom_site_pbe_bader_spin_density
 _atom_site_pbe_cm5_charge
 _atom_site_pbe_ddec_charge
 _atom_site_pbe_ddec_spin_density
 _atom_site_pbe_ddec_sum_bond_order
 _atom_site_pbe_magmom
Sn  Sn0  1  0.02277000  0.10329106  0.33055703  1  0  1.204828  0  1.86509  0  0  1.038956  0  2.2974  0  0  1.076887  0  2.267638  0  0  0.589183  1.011531  0  2.3186  0
Sn  Sn1  1  0.97723102  0.39671028  0.83055710  1  0  1.204863  0  1.865106  0  0  1.038967  0  2.2974  0  0  1.076906  0  2.267639  0  0  0.589191  1.011547  0  2.318601  0
Sn  Sn2  1  0.97723036  0.89671008  0.66944345  1  0  1.204887  0  1.865086  0  0  1.038987  0  2.297377  0  0  1.076929  0  2.267614  0  0  0.589196  1.011567  0  2.318579  0
Sn  Sn3  1  0.02277078  0.60328933  0.16944277  1  0  1.204827  0  1.865129  0  0  1.038949  0  2.297416  0  0  1.076884  0  2.267656  0  0  0.58918  1.011532  0  2.318615  0
P  P4  1  0.41127113  0.24565826  0.15922979  1  0  1.451818  0  4.847284  0  0  1.292611  0  5.32154  0  0  1.344851  0  5.281284  0  0  0.376975  1.256329  0  5.348456  0
P  P5  1  0.58873188  0.25434007  0.65922971  1  0  1.451822  0  4.847277  0  0  1.292574  0  5.321569  0  0  1.344818  0  5.281305  0  0  0.376937  1.256285  0  5.348487  0
P  P6  1  0.58873007  0.75433982  0.84077008  1  0  1.451884  0  4.847247  0  0  1.292642  0  5.321538  0  0  1.344886  0  5.281273  0  0  0.37699  1.256353  0  5.348459  0
P  P7  1  0.41126847  0.74566107  0.34077016  1  0  1.451851  0  4.847237  0  0  1.292587  0  5.321539  0  0  1.344833  0  5.281279  0  0  0.376942  1.256295  0  5.348457  0
H  H8  1  0.23965155  0.26452456  0.99032318  1  0  0.075175  0  0.986793  0  0  0.080192  0  1.061697  0  0  0.082288  0  1.062151  0  0  0.09764  0.078654  0  1.06145  0
H  H9  1  0.76034910  0.23547368  0.49032281  1  0  0.075186  0  0.986774  0  0  0.080197  0  1.06168  0  0  0.082293  0  1.062132  0  0  0.097635  0.078662  0  1.061438  0
H  H10  1  0.76035171  0.73547352  0.00967670  1  0  0.075202  0  0.9867  0  0  0.080226  0  1.061599  0  0  0.082321  0  1.062052  0  0  0.097647  0.07869  0  1.06135  0
H  H11  1  0.23964858  0.76452593  0.50967706  1  0  0.075184  0  0.986745  0  0  0.08021  0  1.061642  0  0  0.082301  0  1.062104  0  0  0.097638  0.078673  0  1.061395  0
H  H12  1  0.70595582  0.93393030  0.13256010  1  0  0.089173  0  0.987602  0  0  0.092268  0  1.065203  0  0  0.094856  0  1.06465  0  0  0.101758  0.090309  0  1.065828  0
H  H13  1  0.29404926  0.56606912  0.63255993  1  0  0.089163  0  0.98759  0  0  0.092256  0  1.065196  0  0  0.094846  0  1.064639  0  0  0.101755  0.090298  0  1.065822  0
H  H14  1  0.29404806  0.06606931  0.86743977  1  0  0.089093  0  0.987606  0  0  0.09219  0  1.065211  0  0  0.09478  0  1.064654  0  0  0.101726  0.090232  0  1.065836  0
H  H15  1  0.70595048  0.43393048  0.36743995  1  0  0.089059  0  0.987634  0  0  0.092165  0  1.06524  0  0  0.094749  0  1.064686  0  0  0.101732  0.090207  0  1.065863  0
C  C16  1  0.46637486  0.11074653  0.06924065  1  0  -0.240814  0  3.778364  0  0  -0.197833  0  4.010514  0  0  -0.207555  0  4.033742  0  0  -0.021933  -0.191277  0  3.994906  0
C  C17  1  0.53362828  0.38925336  0.56924051  1  0  -0.240837  0  3.77831  0  0  -0.197914  0  4.010538  0  0  -0.207636  0  4.033764  0  0  -0.021969  -0.191359  0  3.994936  0
C  C18  1  0.53362901  0.88925308  0.93075923  1  0  -0.240933  0  3.778274  0  0  -0.198017  0  4.010519  0  0  -0.207738  0  4.03374  0  0  -0.021995  -0.191463  0  3.994916  0
C  C19  1  0.46637001  0.61074778  0.43075937  1  0  -0.24081  0  3.77826  0  0  -0.197884  0  4.010476  0  0  -0.207605  0  4.033696  0  0  -0.021966  -0.191328  0  3.99487  0
C  C20  1  0.35321128  0.14828987  0.99428255  1  0  -0.037845  0  3.765405  0  0  -0.057576  0  4.00643  0  0  -0.058808  0  4.030018  0  0  -0.079249  -0.056602  0  3.990456  0
C  C21  1  0.64678939  0.35170836  0.49428211  1  0  -0.037848  0  3.765389  0  0  -0.057561  0  4.006438  0  0  -0.058789  0  4.030022  0  0  -0.079251  -0.056596  0  3.990474  0
C  C22  1  0.64679405  0.85170821  0.00571794  1  0  -0.037789  0  3.765215  0  0  -0.057508  0  4.006252  0  0  -0.058736  0  4.029836  0  0  -0.079246  -0.056535  0  3.990281  0
C  C23  1  0.35320829  0.64829125  0.50571777  1  0  -0.037877  0  3.765392  0  0  -0.057599  0  4.006427  0  0  -0.058828  0  4.030012  0  0  -0.079262  -0.056625  0  3.990455  0
C  C24  1  0.61386243  0.96168220  0.07457585  1  0  -0.070308  0  3.778258  0  0  -0.08798  0  4.021856  0  0  -0.090146  0  4.045915  0  0  -0.081494  -0.086488  0  4.005683  0
C  C25  1  0.38614027  0.53831724  0.57457573  1  0  -0.070254  0  3.778254  0  0  -0.087914  0  4.021881  0  0  -0.09008  0  4.045939  0  0  -0.081467  -0.086423  0  4.00571  0
C  C26  1  0.38614083  0.03831588  0.92542402  1  0  -0.070213  0  3.77814  0  0  -0.087852  0  4.02176  0  0  -0.090017  0  4.045816  0  0  -0.081474  -0.086362  0  4.005588  0
C  C27  1  0.61385802  0.46168390  0.42542415  1  0  -0.070179  0  3.778228  0  0  -0.087838  0  4.021844  0  0  -0.089997  0  4.045896  0  0  -0.081457  -0.086345  0  4.005671  0
O  O28  1  0.19378751  0.08615258  0.21171691  1  0  -0.818063  0  2.088327  0  0  -0.714175  0  2.357232  0  0  -0.741895  0  2.340054  0  0  -0.321454  -0.694448  0  2.368579  0
O  O29  1  0.80621164  0.41384574  0.71171750  1  0  -0.818161  0  2.088422  0  0  -0.714182  0  2.357255  0  0  -0.741907  0  2.340078  0  0  -0.321456  -0.694458  0  2.368606  0
O  O30  1  0.80621223  0.91384703  0.78828297  1  0  -0.81819  0  2.088405  0  0  -0.714212  0  2.357255  0  0  -0.741935  0  2.340077  0  0  -0.321466  -0.694487  0  2.368607  0
O  O31  1  0.19378810  0.58615387  0.28828237  1  0  -0.818181  0  2.0884  0  0  -0.71419  0  2.357226  0  0  -0.741921  0  2.340055  0  0  -0.321462  -0.694464  0  2.368575  0
O  O32  1  0.70116101  0.32269821  0.20588232  1  0  -0.812586  0  2.008535  0  0  -0.709348  0  2.269513  0  0  -0.736734  0  2.2515  0  0  -0.323658  -0.689949  0  2.281382  0
O  O33  1  0.29884079  0.17730164  0.70588213  1  0  -0.812587  0  2.008475  0  0  -0.709332  0  2.269445  0  0  -0.736737  0  2.251472  0  0  -0.323654  -0.689931  0  2.281313  0
O  O34  1  0.29883727  0.67730293  0.79411816  1  0  -0.812583  0  2.008533  0  0  -0.709323  0  2.269482  0  0  -0.736737  0  2.251528  0  0  -0.323682  -0.689924  0  2.281352  0
O  O35  1  0.70115895  0.82269797  0.29411775  1  0  -0.812593  0  2.008494  0  0  -0.709331  0  2.26945  0  0  -0.736739  0  2.251483  0  0  -0.32365  -0.689928  0  2.281316  0
O  O36  1  0.30092626  0.42299088  0.12906303  1  0  -0.841326  0  2.06909  0  0  -0.737106  0  2.332128  0  0  -0.763729  0  2.314006  0  0  -0.337738  -0.718062  0  2.344078  0
O  O37  1  0.69907658  0.07700746  0.62906427  1  0  -0.841337  0  2.069128  0  0  -0.737087  0  2.332144  0  0  -0.763708  0  2.314016  0  0  -0.337701  -0.718023  0  2.344088  0
O  O38  1  0.69907493  0.57700720  0.87093623  1  0  -0.841364  0  2.069082  0  0  -0.737133  0  2.332131  0  0  -0.763751  0  2.314001  0  0  -0.337738  -0.718071  0  2.344074  0
O  O39  1  0.30092171  0.92299368  0.37093561  1  0  -0.841338  0  2.069111  0  0  -0.737083  0  2.332131  0  0  -0.7637  0  2.314003  0  0  -0.337701  -0.718017  0  2.344073  0
