# generated using pymatgen
data_AgH6C10NO2
_symmetry_space_group_name_H-M   'P 1'
_cell_length_a   8.11441945
_cell_length_b   8.45851413
_cell_length_c   12.21150290
_cell_angle_alpha   88.36060054
_cell_angle_beta   99.53529186
_cell_angle_gamma   96.13366918
_symmetry_Int_Tables_number   1
_chemical_formula_structural   AgH6C10NO2
_chemical_formula_sum   'Ag4 H24 C40 N4 O8'
_cell_volume   821.78512365
_cell_formula_units_Z   4
loop_
 _symmetry_equiv_pos_site_id
 _symmetry_equiv_pos_as_xyz
  1  'x, y, z'
loop_
 _atom_site_type_symbol
 _atom_site_label
 _atom_site_symmetry_multiplicity
 _atom_site_fract_x
 _atom_site_fract_y
 _atom_site_fract_z
 _atom_site_occupancy
 _atom_site_hle17_bader_spin_density
 _atom_site_hle17_ddec_charge
 _atom_site_hle17_ddec_spin_density
 _atom_site_hle17_ddec_sum_bond_order
 _atom_site_hle17_magmom
 _atom_site_hse06_10hf_bader_charge
 _atom_site_hse06_10hf_bader_spin_density
 _atom_site_hse06_10hf_ddec_charge
 _atom_site_hse06_10hf_ddec_spin_density
 _atom_site_hse06_10hf_ddec_sum_bond_order
 _atom_site_hse06_10hf_magmom
 _atom_site_hse06_bader_spin_density
 _atom_site_hse06_ddec_charge
 _atom_site_hse06_ddec_spin_density
 _atom_site_hse06_ddec_sum_bond_order
 _atom_site_hse06_magmom
 _atom_site_pbe_bader_spin_density
 _atom_site_pbe_cm5_charge
 _atom_site_pbe_ddec_charge
 _atom_site_pbe_ddec_spin_density
 _atom_site_pbe_ddec_sum_bond_order
 _atom_site_pbe_magmom
Ag  Ag0  1  0.78388551  0.37551242  0.47397202  1  0  0.557859  0  1.461133  0  0.626553  0  0.43404  0  1.930431  0  0  0.468028  0  1.871068  0  0  0.417179  0.410775  0  1.971096  0
Ag  Ag1  1  0.21611863  0.62448090  0.52602899  1  0  0.557815  0  1.461074  0  0.626617  0  0.433994  0  1.930391  0  0  0.467986  0  1.871027  0  0  0.417162  0.410724  0  1.971066  0
Ag  Ag2  1  0.61033879  0.54955942  0.60395376  1  0  0.474823  0  1.564515  0  0.580248  0  0.346659  0  2.05376  0  0  0.386575  0  1.985403  0  0  0.391987  0.319714  0  2.100378  0
Ag  Ag3  1  0.38967909  0.45043870  0.39605250  1  0  0.474826  0  1.564472  0  0.580147  0  0.34665  0  2.053761  0  0  0.386566  0  1.985406  0  0  0.392006  0.319704  0  2.100381  0
H  H4  1  0.78029460  0.01560606  0.47985743  1  0  0.089749  0  0.970831  0  0.153456  0  0.094772  0  1.040917  0  0  0.098496  0  1.036558  0  0  0.113839  0.092097  0  1.043957  0
H  H5  1  0.21971909  0.98438268  0.52015005  1  0  0.089872  0  0.970834  0  0.153457  0  0.094856  0  1.040934  0  0  0.098583  0  1.036562  0  0  0.113842  0.092188  0  1.043954  0
H  H6  1  0.98756686  0.77321590  0.23779166  1  0  0.10796  0  0.921684  0  0.106996  0  0.123381  0  0.975193  0  0  0.126572  0  0.972408  0  0  0.112267  0.121031  0  0.977257  0
H  H7  1  0.01243892  0.22678978  0.76219974  1  0  0.108023  0  0.921643  0  0.107346  0  0.123454  0  0.975143  0  0  0.126646  0  0.972356  0  0  0.112312  0.121104  0  0.977204  0
H  H8  1  0.01416507  0.42916498  0.28757134  1  0  0.117852  0  0.958582  0  0.1353  0  0.124283  0  1.028823  0  0  0.128591  0  1.024684  0  0  0.105063  0.121045  0  1.032132  0
H  H9  1  0.98582801  0.57083505  0.71243129  1  0  0.117809  0  0.95855  0  0.135172  0  0.124188  0  1.028863  0  0  0.128491  0  1.024726  0  0  0.105012  0.120951  0  1.032164  0
H  H10  1  0.16721040  0.45415682  0.12602525  1  0  0.087599  0  0.957179  0  0.101469  0  0.102276  0  1.012795  0  0  0.104485  0  1.01204  0  0  0.101518  0.100686  0  1.013346  0
H  H11  1  0.83276778  0.54585166  0.87397297  1  0  0.087588  0  0.957247  0  0.101385  0  0.102264  0  1.012877  0  0  0.104471  0  1.012121  0  0  0.101547  0.100678  0  1.013422  0
H  H12  1  0.21248039  0.21210150  0.02711277  1  0  0.079909  0  0.954719  0  0.044162  0  0.093547  0  1.013355  0  0  0.09624  0  1.012343  0  0  0.096451  0.091584  0  1.014256  0
H  H13  1  0.78750054  0.78791663  0.97288082  1  0  0.079867  0  0.95479  0  0.044207  0  0.093519  0  1.013414  0  0  0.096183  0  1.012435  0  0  0.096431  0.091557  0  1.014312  0
H  H14  1  0.11755561  0.94381064  0.09542040  1  0  0.087449  0  0.965759  0  0.071988  0  0.099108  0  1.030045  0  0  0.10139  0  1.029603  0  0  0.099589  0.097486  0  1.030382  0
H  H15  1  0.88244103  0.05619927  0.90457112  1  0  0.087424  0  0.965761  0  0.072011  0  0.099086  0  1.030057  0  0  0.10137  0  1.029608  0  0  0.09957  0.097464  0  1.030385  0
H  H16  1  0.62119165  0.90218635  0.58242824  1  0  0.100212  0  0.96673  0  0.175464  0  0.105155  0  1.035166  0  0  0.108967  0  1.030482  0  0  0.118869  0.102242  0  1.038764  0
H  H17  1  0.37881793  0.09781487  0.41757573  1  0  0.100223  0  0.966802  0  0.175465  0  0.105218  0  1.035161  0  0  0.108982  0  1.030537  0  0  0.118912  0.102308  0  1.038756  0
H  H18  1  0.44869204  0.13900359  0.84251711  1  0  0.103124  0  0.941036  0  0.120116  0  0.114212  0  1.003391  0  0  0.117235  0  1.001047  0  0  0.108107  0.111994  0  1.005119  0
H  H19  1  0.55130419  0.86099388  0.15748412  1  0  0.103132  0  0.941095  0  0.120217  0  0.114208  0  1.003464  0  0  0.117239  0  1.001098  0  0  0.108103  0.111992  0  1.00519  0
H  H20  1  0.41976919  0.48451503  0.78626498  1  0  0.12286  0  0.955735  0  0.123556  0  0.131251  0  1.019734  0  0  0.135207  0  1.017001  0  0  0.105325  0.128252  0  1.022021  0
H  H21  1  0.58022065  0.51548306  0.21373246  1  0  0.122821  0  0.955792  0  0.12333  0  0.131231  0  1.019772  0  0  0.135235  0  1.016979  0  0  0.105324  0.128231  0  1.022054  0
H  H22  1  0.28860591  0.45598842  0.95717523  1  0  0.080821  0  0.961497  0  0.060558  0  0.094892  0  1.017905  0  0  0.096896  0  1.017549  0  0  0.09943  0.093413  0  1.018214  0
H  H23  1  0.71137323  0.54401290  0.04282055  1  0  0.08077  0  0.961484  0  0.060551  0  0.094895  0  1.01782  0  0  0.096914  0  1.017444  0  0  0.09946  0.093406  0  1.018145  0
H  H24  1  0.24127279  0.69591732  0.05711975  1  0  0.088646  0  0.953623  0  0.064274  0  0.099992  0  1.01446  0  0  0.10316  0  1.012729  0  0  0.099379  0.097626  0  1.015936  0
H  H25  1  0.75870553  0.30408785  0.94287190  1  0  0.088639  0  0.953689  0  0.064355  0  0.10003  0  1.014483  0  0  0.103133  0  1.012831  0  0  0.099411  0.097666  0  1.015959  0
H  H26  1  0.31892806  0.96551264  0.98377090  1  0  0.088612  0  0.968632  0  0.052492  0  0.100601  0  1.031716  0  0  0.102718  0  1.031396  0  0  0.099135  0.099074  0  1.031989  0
H  H27  1  0.68105830  0.03448965  0.01621891  1  0  0.08872  0  0.968569  0  0.052986  0  0.100677  0  1.031673  0  0  0.102786  0  1.031374  0  0  0.099175  0.099151  0  1.031938  0
C  C28  1  0.84814977  0.01944818  0.40986083  1  0  0.134562  0  3.686339  0  0.570356  0  0.095544  0  3.940695  0  0  0.105236  0  3.956749  0  0  0.0562  0.089342  0  3.929769  0
C  C29  1  0.15186659  0.98054297  0.59014279  1  0  0.134235  0  3.686629  0  0.570493  0  0.095319  0  3.940837  0  0  0.105009  0  3.956889  0  0  0.056171  0.089121  0  3.929913  0
C  C30  1  0.87805469  0.87457982  0.36433847  1  0  -0.108137  0  3.745161  0  -0.046724  0  -0.082158  0  3.986118  0  0  -0.095286  0  4.008994  0  0  -0.015927  -0.073899  0  3.970902  0
C  C31  1  0.12195793  0.12541299  0.63566076  1  0  -0.107943  0  3.74551  0  -0.046888  0  -0.081987  0  3.986392  0  0  -0.095113  0  4.00927  0  0  -0.01592  -0.073722  0  3.97117  0
C  C32  1  0.96166218  0.88229859  0.27450386  1  0  -0.042821  0  3.657569  0  -0.040736  0  -0.079355  0  3.902823  0  0  -0.073143  0  3.917779  0  0  -0.058429  -0.083114  0  3.892578  0
C  C33  1  0.03834671  0.11770182  0.72549266  1  0  -0.042926  0  3.657635  0  -0.040986  0  -0.079525  0  3.902887  0  0  -0.073316  0  3.917842  0  0  -0.058524  -0.083284  0  3.892635  0
C  C34  1  0.01407551  0.03287365  0.23094538  1  0  0.007823  0  3.785969  0  -0.004261  0  0.030164  0  4.011558  0  0  0.025081  0  4.036906  0  0  -0.007402  0.03326  0  3.994459  0
C  C35  1  0.98593039  0.96712919  0.76905502  1  0  0.00779  0  3.78615  0  -0.004273  0  0.030263  0  4.011563  0  0  0.025185  0  4.036906  0  0  -0.007351  0.033361  0  3.994467  0
C  C36  1  0.98279300  0.17269260  0.28487670  1  0  0.208022  0  3.7485  0  0.453163  0  0.20755  0  3.979396  0  0  0.214217  0  4.002734  0  0  0.112299  0.203237  0  3.96356  0
C  C37  1  0.01721417  0.82730876  0.71512790  1  0  0.20803  0  3.748728  0  0.453406  0  0.207565  0  3.979515  0  0  0.214229  0  4.002856  0  0  0.112388  0.203243  0  3.963689  0
C  C38  1  0.03968714  0.32443482  0.24559691  1  0  -0.146312  0  3.706316  0  -0.051377  0  -0.162457  0  3.957954  0  0  -0.167852  0  3.977745  0  0  -0.089217  -0.159035  0  3.944861  0
C  C39  1  0.96031021  0.67556722  0.75440772  1  0  -0.146258  0  3.706347  0  -0.05184  0  -0.162382  0  3.958029  0  0  -0.167768  0  3.977816  0  0  -0.089228  -0.158956  0  3.94493  0
C  C40  1  0.12163794  0.33691641  0.15462735  1  0  -0.047  0  3.76232  0  -0.066996  0  -0.062713  0  4.012676  0  0  -0.06292  0  4.034416  0  0  -0.086839  -0.062244  0  3.997737  0
C  C41  1  0.87834876  0.66309017  0.84537318  1  0  -0.047039  0  3.762551  0  -0.066141  0  -0.062781  0  4.012959  0  0  -0.062981  0  4.03468  0  0  -0.086853  -0.062315  0  3.998023  0
C  C42  1  0.14853469  0.19979115  0.09926735  1  0  -0.080839  0  3.792114  0  -0.016283  0  -0.09837  0  4.053146  0  0  -0.102425  0  4.076557  0  0  -0.096477  -0.095745  0  4.037244  0
C  C43  1  0.85145748  0.80021874  0.90073119  1  0  -0.080699  0  3.792311  0  -0.016499  0  -0.098243  0  4.053355  0  0  -0.102274  0  4.076775  0  0  -0.096434  -0.095624  0  4.037454  0
C  C44  1  0.09660069  0.05050060  0.13703363  1  0  -0.102717  0  3.757156  0  -0.088488  0  -0.126234  0  4.009492  0  0  -0.12747  0  4.032677  0  0  -0.089091  -0.125127  0  3.993702  0
C  C45  1  0.90339563  0.94950546  0.86296358  1  0  -0.102718  0  3.757272  0  -0.088468  0  -0.126299  0  4.009603  0  0  -0.127535  0  4.032776  0  0  -0.08911  -0.12518  0  3.993798  0
C  C46  1  0.81806258  0.72129568  0.41685187  1  0  0.645261  0  3.920947  0  1.620693  0  0.58782  0  4.211338  0  0  0.624668  0  4.206824  0  0  0.203494  0.562867  0  4.213526  0
C  C47  1  0.18194248  0.27869780  0.58314430  1  0  0.644989  0  3.921253  0  1.621306  0  0.587591  0  4.211564  0  0  0.624437  0  4.207055  0  0  0.203389  0.562639  0  4.213752  0
C  C48  1  0.56501652  0.89797872  0.65743774  1  0  0.158264  0  3.640076  0  0.535563  0  0.113156  0  3.893871  0  0  0.124923  0  3.908549  0  0  0.060045  0.105512  0  3.884028  0
C  C49  1  0.43499339  0.10201766  0.34256622  1  0  0.158252  0  3.640291  0  0.535541  0  0.113145  0  3.894019  0  0  0.124942  0  3.908725  0  0  0.060048  0.105498  0  3.884174  0
C  C50  1  0.54574770  0.04107160  0.70915264  1  0  -0.110402  0  3.733588  0  -0.035837  0  -0.083878  0  3.974302  0  0  -0.097329  0  3.996212  0  0  -0.015883  -0.075412  0  3.959765  0
C  C51  1  0.45425720  0.95892383  0.29085337  1  0  -0.110479  0  3.733878  0  -0.035898  0  -0.084016  0  3.974641  0  0  -0.09747  0  3.996541  0  0  -0.015955  -0.07555  0  3.960104  0
C  C52  1  0.46814020  0.03095437  0.80191922  1  0  -0.052181  0  3.681434  0  -0.076793  0  -0.091164  0  3.934713  0  0  -0.084586  0  3.950308  0  0  -0.060953  -0.095173  0  3.924038  0
C  C53  1  0.53185928  0.96904045  0.19808225  1  0  -0.052168  0  3.681374  0  -0.07688  0  -0.091166  0  3.934631  0  0  -0.084578  0  3.950219  0  0  -0.060953  -0.095173  0  3.923957  0
C  C54  1  0.41636309  0.87977347  0.84468643  1  0  0.003948  0  3.795635  0  0.028089  0  0.024071  0  4.025078  0  0  0.018913  0  4.050173  0  0  -0.009106  0.027186  0  4.008234  0
C  C55  1  0.58363237  0.12022781  0.15531149  1  0  0.003924  0  3.79566  0  0.028115  0  0.024159  0  4.024956  0  0  0.019001  0  4.050053  0  0  -0.009086  0.027268  0  4.008121  0
C  C56  1  0.44488077  0.74123426  0.78860446  1  0  0.199802  0  3.778318  0  0.472466  0  0.196125  0  4.012821  0  0  0.203317  0  4.036172  0  0  0.10994  0.191446  0  3.997026  0
C  C57  1  0.55511934  0.25876417  0.21139627  1  0  0.199836  0  3.778241  0  0.472359  0  0.196137  0  4.012699  0  0  0.203328  0  4.036063  0  0  0.109961  0.191457  0  3.996906  0
C  C58  1  0.39690234  0.58844617  0.83018599  1  0  -0.138255  0  3.689758  0  0.02185  0  -0.157421  0  3.939443  0  0  -0.162832  0  3.959607  0  0  -0.085226  -0.153864  0  3.925952  0
C  C59  1  0.60309060  0.41155533  0.16981090  1  0  -0.138292  0  3.689569  0  0.022078  0  -0.157474  0  3.939256  0  0  -0.162922  0  3.959405  0  0  -0.085265  -0.153907  0  3.925757  0
C  C60  1  0.32432649  0.57392618  0.92497241  1  0  -0.044827  0  3.769937  0  -0.11857  0  -0.058205  0  4.016062  0  0  -0.058606  0  4.03908  0  0  -0.085981  -0.057571  0  4.000176  0
C  C61  1  0.67566073  0.42607222  0.07502236  1  0  -0.044723  0  3.769811  0  -0.118772  0  -0.058141  0  4.01597  0  0  -0.058549  0  4.038977  0  0  -0.086006  -0.057505  0  4.000093  0
C  C62  1  0.29611747  0.70989481  0.98124961  1  0  -0.075451  0  3.779297  0  -0.022735  0  -0.090332  0  4.033219  0  0  -0.094347  0  4.056151  0  0  -0.091341  -0.087714  0  4.017696  0
C  C63  1  0.70386562  0.29010877  0.01874322  1  0  -0.075428  0  3.779288  0  -0.022852  0  -0.090346  0  4.033255  0  0  -0.09431  0  4.056194  0  0  -0.091309  -0.087729  0  4.017736  0
C  C64  1  0.33999351  0.85980731  0.94123720  1  0  -0.105346  0  3.756188  0  -0.042684  0  -0.126641  0  4.005762  0  0  -0.12808  0  4.02891  0  0  -0.088063  -0.125387  0  3.99004  0
C  C65  1  0.65999466  0.14018986  0.05875682  1  0  -0.105485  0  3.756189  0  -0.043155  0  -0.126809  0  4.0058  0  0  -0.128246  0  4.028916  0  0  -0.088145  -0.125553  0  3.990077  0
C  C66  1  0.60783881  0.19667566  0.66020486  1  0  0.647153  0  3.925817  0  1.636475  0  0.592256  0  4.212942  0  0  0.628755  0  4.209115  0  0  0.203235  0.567515  0  4.214684  0
C  C67  1  0.39217367  0.80332046  0.33980095  1  0  0.647102  0  3.926074  0  1.636196  0  0.592251  0  4.213135  0  0  0.628751  0  4.20931  0  0  0.203204  0.567514  0  4.214871  0
N  N68  1  0.89824947  0.16228358  0.37363816  1  0  -0.342032  0  3.145865  0  -1.2514  0  -0.282059  0  3.422208  0  0  -0.300559  0  3.438487  0  0  -0.317548  -0.269507  0  3.410873  0
N  N69  1  0.10176154  0.83771009  0.62637079  1  0  -0.341958  0  3.146041  0  -1.251715  0  -0.282077  0  3.422474  0  0  -0.300575  0  3.438751  0  0  -0.317558  -0.269522  0  3.411136  0
N  N70  1  0.51763368  0.75466803  0.69467940  1  0  -0.358569  0  3.271292  0  -1.251202  0  -0.278665  0  3.544268  0  0  -0.301478  0  3.561599  0  0  -0.337111  -0.263526  0  3.532475  0
N  N71  1  0.48237561  0.24533068  0.30532699  1  0  -0.358597  0  3.271306  0  -1.251027  0  -0.278733  0  3.544328  0  0  -0.301545  0  3.561639  0  0  -0.337181  -0.26359  0  3.532527  0
O  O72  1  0.71672462  0.73189179  0.48424627  1  0  -0.601731  0  2.122214  0  -1.152543  0  -0.525534  0  2.387097  0  0  -0.55885  0  2.3784  0  0  -0.309903  -0.502472  0  2.392201  0
O  O73  1  0.28328440  0.26810121  0.51575431  1  0  -0.601528  0  2.122031  0  -1.152714  0  -0.525415  0  2.387048  0  0  -0.558723  0  2.378347  0  0  -0.309811  -0.502354  0  2.39215  0
O  O74  1  0.87406100  0.59464078  0.39018851  1  0  -0.62113  0  2.098516  0  -1.154914  0  -0.541977  0  2.377381  0  0  -0.574676  0  2.364647  0  0  -0.325326  -0.519303  0  2.385378  0
O  O75  1  0.12593872  0.40535065  0.60980803  1  0  -0.621057  0  2.098619  0  -1.155362  0  -0.541917  0  2.377438  0  0  -0.574616  0  2.364708  0  0  -0.325318  -0.519242  0  2.38543  0
O  O76  1  0.59452897  0.32343314  0.70998823  1  0  -0.609204  0  2.043657  0  -1.173714  0  -0.536542  0  2.302487  0  0  -0.568618  0  2.292348  0  0  -0.326533  -0.514313  0  2.308619  0
O  O77  1  0.40548280  0.67656675  0.29001508  1  0  -0.609126  0  2.043771  0  -1.173758  0  -0.536459  0  2.302536  0  0  -0.568544  0  2.292418  0  0  -0.326463  -0.514232  0  2.308665  0
O  O78  1  0.67019329  0.18578697  0.57190348  1  0  -0.605329  0  2.142484  0  -1.159889  0  -0.527043  0  2.416029  0  0  -0.560511  0  2.407211  0  0  -0.316979  -0.503882  0  2.421259  0
O  O79  1  0.32982043  0.81421499  0.42810411  1  0  -0.605287  0  2.142403  0  -1.159652  0  -0.527038  0  2.415953  0  0  -0.560508  0  2.407134  0  0  -0.316975  -0.50388  0  2.421186  0
