# generated using pymatgen
data_AlH7C16O5F2
_symmetry_space_group_name_H-M   'P 1'
_cell_length_a   6.65414346
_cell_length_b   24.79981731
_cell_length_c   24.59037098
_cell_angle_alpha   89.96430579
_cell_angle_beta   90.42775007
_cell_angle_gamma   90.05768635
_symmetry_Int_Tables_number   1
_chemical_formula_structural   AlH7C16O5F2
_chemical_formula_sum   'Al4 H28 C64 O20 F8'
_cell_volume   4057.82503177
_cell_formula_units_Z   4
loop_
 _symmetry_equiv_pos_site_id
 _symmetry_equiv_pos_as_xyz
  1  'x, y, z'
loop_
 _atom_site_type_symbol
 _atom_site_label
 _atom_site_symmetry_multiplicity
 _atom_site_fract_x
 _atom_site_fract_y
 _atom_site_fract_z
 _atom_site_occupancy
 _atom_site_pbe_bader_charge
 _atom_site_pbe_bader_spin_density
 _atom_site_pbe_cm5_charge
 _atom_site_pbe_ddec_charge
 _atom_site_pbe_ddec_spin_density
 _atom_site_pbe_ddec_sum_bond_order
 _atom_site_pbe_magmom
Al  Al0  1  0.98335826  0.99913354  0.49897184  1  2.5014  0  0.399719  1.647972  0  2.577144  0
Al  Al1  1  0.48335480  0.00089311  0.49874724  1  2.501503  0  0.399343  1.64691  0  2.578482  0
Al  Al2  1  0.01669897  0.49916437  0.00118960  1  2.501632  0  0.399428  1.646984  0  2.578118  0
Al  Al3  1  0.51668889  0.50093012  0.00100222  1  2.500914  0  0.399447  1.647507  0  2.57752  0
H  H4  1  0.22920620  0.06954754  0.51421517  1  0.635629  0  0.354145  0.431727  0  0.851735  0
H  H5  1  0.72860515  0.93104302  0.51651353  1  0.614921  0  0.353775  0.431042  0  0.853256  0
H  H6  1  0.27090442  0.43058364  0.98554670  1  0.620513  0  0.354051  0.432008  0  0.85199  0
H  H7  1  0.77141795  0.56907688  0.98362750  1  0.61303  0  0.353692  0.430792  0  0.853482  0
H  H8  1  0.44730324  0.40697762  0.13804248  1  0.097308  0  0.112264  0.121205  0  0.994829  0
H  H9  1  0.44233446  0.33335148  0.20778939  1  0.088184  0  0.108631  0.117994  0  0.999536  0
H  H10  1  0.07479335  0.37624850  0.10918849  1  0.142575  0  0.119676  0.147719  0  0.986274  0
H  H11  1  0.42545698  0.12367078  0.39052696  1  0.157452  0  0.119293  0.147719  0  0.986038  0
H  H12  1  0.05310669  0.09293031  0.36191103  1  0.094929  0  0.112246  0.121134  0  0.994469  0
H  H13  1  0.05842826  0.16653353  0.29213927  1  0.08949  0  0.108505  0.11795  0  0.999538  0
H  H14  1  0.94559640  0.62029800  0.89120337  1  0.103178  0  0.107629  0.111787  0  1.007932  0
H  H15  1  0.93563589  0.69318853  0.82099325  1  0.108867  0  0.107925  0.117752  0  1.003333  0
H  H16  1  0.57690966  0.59704115  0.86158650  1  0.102116  0  0.117576  0.14443  0  0.990054  0
H  H17  1  0.92305633  0.90327109  0.63853204  1  0.100734  0  0.117543  0.144099  0  0.989762  0
H  H18  1  0.55426938  0.87984851  0.60886226  1  0.102306  0  0.107807  0.111732  0  1.007984  0
H  H19  1  0.56398744  0.80693900  0.67903838  1  0.111028  0  0.107922  0.117393  0  1.003449  0
H  H20  1  0.57642174  0.62480905  0.10792311  1  0.085587  0  0.111157  0.119318  0  0.997932  0
H  H21  1  0.57428113  0.69786573  0.17816778  1  0.143514  0  0.10883  0.118469  0  0.998316  0
H  H22  1  0.94817443  0.59471748  0.13664543  1  0.132384  0  0.120493  0.149853  0  0.982305  0
H  H23  1  0.55145332  0.90529212  0.36321965  1  0.13136  0  0.1206  0.149908  0  0.982621  0
H  H24  1  0.92322042  0.87530736  0.39209975  1  0.090317  0  0.110963  0.119318  0  0.997869  0
H  H25  1  0.92481241  0.80236676  0.32172843  1  0.09702  0  0.108657  0.118153  0  0.997982  0
H  H26  1  0.44590739  0.37767394  0.89290655  1  0.08807  0  0.107925  0.112461  0  1.005893  0
H  H27  1  0.43642946  0.30518211  0.82237239  1  0.109712  0  0.108253  0.117803  0  1.002943  0
H  H28  1  0.07694882  0.40189445  0.86317162  1  0.117853  0  0.11753  0.144193  0  0.989405  0
H  H29  1  0.42332386  0.09798866  0.63692354  1  0.11744  0  0.117466  0.1444  0  0.989358  0
H  H30  1  0.05446518  0.12204546  0.60725831  1  0.08166  0  0.107965  0.11278  0  1.005482  0
H  H31  1  0.06448719  0.19420297  0.67815747  1  0.111215  0  0.107984  0.117884  0  1.002863  0
C  C32  1  0.73030776  0.06616111  0.57185914  1  1.58244  0  0.26666  0.639295  0  4.096236  0
C  C33  1  0.74104681  0.06348696  0.42517472  1  1.580086  0  0.268525  0.637662  0  4.098445  0
C  C34  1  0.23944555  0.93495045  0.42671686  1  1.595897  0  0.268958  0.637893  0  4.098181  0
C  C35  1  0.23006255  0.93542843  0.57336869  1  1.583284  0  0.266229  0.639386  0  4.095535  0
C  C36  1  0.76975923  0.43387070  0.92809712  1  1.585136  0  0.266442  0.639021  0  4.096285  0
C  C37  1  0.75907688  0.43647166  0.07469351  1  1.59596  0  0.268631  0.637795  0  4.098076  0
C  C38  1  0.26052487  0.56505764  0.07328600  1  1.596  0  0.268627  0.638243  0  4.09822  0
C  C39  1  0.26995318  0.56476941  0.92669584  1  1.584223  0  0.265761  0.639672  0  4.094955  0
C  C40  1  0.75966193  0.39563328  0.11910607  1  -0.041564  0  -0.010811  -0.017246  0  3.985111  0
C  C41  1  0.58247844  0.38395912  0.14746833  1  -0.006989  0  -0.083404  -0.107616  0  3.990028  0
C  C42  1  0.57987219  0.34328141  0.18621851  1  0.033011  0  -0.074415  -0.09748  0  3.938093  0
C  C43  1  0.75460089  0.31273720  0.19762206  1  0.077218  0  -0.001739  0.037023  0  4.119493  0
C  C44  1  0.93107856  0.32669991  0.16946096  1  0.481901  0  0.107047  0.247349  0  4.024945  0
C  C45  1  0.93671767  0.36715143  0.13085417  1  -0.02254  0  -0.089783  -0.220292  0  3.98073  0
C  C46  1  0.75253907  0.26920776  0.23447529  1  -0.242361  0  -0.034523  -0.075192  0  4.11452  0
C  C47  1  0.74832294  0.23067922  0.26532375  1  -0.023204  0  -0.034117  -0.074902  0  4.113757  0
C  C48  1  0.74612896  0.18714895  0.30218416  1  0.112094  0  -0.002174  0.036296  0  4.120045  0
C  C49  1  0.56952125  0.17319794  0.33028698  1  0.44384  0  0.107369  0.248099  0  4.025236  0
C  C50  1  0.56363875  0.13276170  0.36889718  1  -0.029295  0  -0.089503  -0.220703  0  3.980297  0
C  C51  1  0.74063413  0.10428304  0.38073469  1  -0.028001  0  -0.010702  -0.016993  0  3.984527  0
C  C52  1  0.91795665  0.11593301  0.35243032  1  -0.008442  0  -0.083567  -0.107362  0  3.989313  0
C  C53  1  0.92080459  0.15659988  0.31366168  1  0.035067  0  -0.074367  -0.097524  0  3.937809  0
C  C54  1  0.26153344  0.60504389  0.88167376  1  -0.006525  0  -0.010701  -0.014829  0  3.977528  0
C  C55  1  0.08067602  0.63155522  0.86922217  1  0.002621  0  -0.085204  -0.106139  0  3.996332  0
C  C56  1  0.07511624  0.67212445  0.83040289  1  -0.059832  0  -0.07421  -0.096777  0  3.936621  0
C  C57  1  0.25105893  0.68740275  0.80241412  1  0.132682  0  -0.001061  0.038446  0  4.119666  0
C  C58  1  0.42808419  0.65830273  0.81420343  1  0.425159  0  0.107834  0.248406  0  4.023562  0
C  C59  1  0.43663301  0.61808838  0.85308212  1  0.038072  0  -0.090724  -0.221497  0  3.981961  0
C  C60  1  0.25091214  0.73071258  0.76530256  1  -0.339096  0  -0.034023  -0.075419  0  4.113334  0
C  C61  1  0.24863265  0.76946786  0.73472368  1  0.071223  0  -0.033938  -0.074689  0  4.113162  0
C  C62  1  0.24860496  0.81280150  0.69763664  1  0.134824  0  -0.001639  0.037732  0  4.119588  0
C  C63  1  0.07168697  0.84196079  0.68588116  1  0.427417  0  0.107945  0.248203  0  4.023727  0
C  C64  1  0.06330077  0.88219129  0.64702338  1  0.034267  0  -0.090128  -0.219973  0  3.981843  0
C  C65  1  0.23841810  0.89518660  0.61841712  1  -0.015006  0  -0.011321  -0.015924  0  3.979808  0
C  C66  1  0.41917452  0.86862405  0.63085236  1  0.0076  0  -0.084836  -0.105129  0  3.997403  0
C  C67  1  0.42459584  0.82804674  0.66965890  1  -0.056775  0  -0.07407  -0.096417  0  3.937701  0
C  C68  1  0.26289591  0.60603634  0.11749825  1  -0.016839  0  -0.010302  -0.016625  0  3.984343  0
C  C69  1  0.43960303  0.63461556  0.12983265  1  0.008998  0  -0.084057  -0.106964  0  3.990655  0
C  C70  1  0.43824564  0.67522210  0.16861555  1  -0.047155  0  -0.07518  -0.098868  0  3.939252  0
C  C71  1  0.25980964  0.68835293  0.19652655  1  0.096448  0  -0.00151  0.037488  0  4.119989  0
C  C72  1  0.08706298  0.65749157  0.18438464  1  0.403816  0  0.106783  0.247202  0  4.027462  0
C  C73  1  0.08508489  0.61720629  0.14562232  1  0.031617  0  -0.088902  -0.221144  0  3.979283  0
C  C74  1  0.25251993  0.73112025  0.23415369  1  -0.235728  0  -0.035322  -0.076319  0  4.116202  0
C  C75  1  0.24629315  0.76911396  0.26559664  1  -0.022947  0  -0.034861  -0.076296  0  4.116098  0
C  C76  1  0.23922343  0.81185469  0.30326792  1  0.097628  0  -0.001891  0.037371  0  4.119321  0
C  C77  1  0.41212922  0.84264873  0.31540554  1  0.416211  0  0.107276  0.24789  0  4.026813  0
C  C78  1  0.41441630  0.88285904  0.35424139  1  0.052603  0  -0.088921  -0.221095  0  3.979193  0
C  C79  1  0.23675811  0.89403665  0.38243962  1  -0.037913  0  -0.010384  -0.016364  0  3.983789  0
C  C80  1  0.05991152  0.86551507  0.37011971  1  0.007592  0  -0.083436  -0.106798  0  3.990253  0
C  C81  1  0.06095988  0.82497503  0.33126084  1  -0.005334  0  -0.075083  -0.098487  0  3.938143  0
C  C82  1  0.76161419  0.39342762  0.88327792  1  -0.072017  0  -0.011764  -0.016651  0  3.981068  0
C  C83  1  0.58106748  0.36669423  0.87084767  1  0.037163  0  -0.085158  -0.105904  0  3.997136  0
C  C84  1  0.57575256  0.32635086  0.83183885  1  -0.06512  0  -0.074382  -0.097389  0  3.937382  0
C  C85  1  0.75160720  0.31154876  0.80362035  1  0.126156  0  -0.000746  0.039074  0  4.116428  0
C  C86  1  0.92852508  0.34070716  0.81559082  1  0.424263  0  0.107257  0.247351  0  4.02271  0
C  C87  1  0.93680655  0.38071025  0.85463644  1  0.068638  0  -0.089623  -0.218871  0  3.980571  0
C  C88  1  0.75161260  0.26872467  0.76599411  1  -0.316819  0  -0.034056  -0.075085  0  4.113058  0
C  C89  1  0.74958181  0.23055989  0.73471460  1  0.057043  0  -0.033759  -0.074877  0  4.114273  0
C  C90  1  0.74933875  0.18787815  0.69692906  1  0.154817  0  -0.000798  0.039226  0  4.117582  0
C  C91  1  0.57221335  0.15885041  0.68482659  1  0.426048  0  0.107573  0.247208  0  4.022949  0
C  C92  1  0.56360306  0.11905379  0.64556383  1  0.069812  0  -0.090154  -0.219517  0  3.981218  0
C  C93  1  0.73867571  0.10640942  0.61684373  1  -0.068675  0  -0.011855  -0.01654  0  3.980722  0
C  C94  1  0.91944032  0.13298312  0.62939868  1  0.040432  0  -0.084911  -0.106408  0  3.99637  0
C  C95  1  0.92502526  0.17312808  0.66861075  1  -0.073111  0  -0.074272  -0.097438  0  3.93792  0
O  O96  1  0.89537339  0.05520062  0.54823265  1  -1.260534  0  -0.23843  -0.604022  0  2.351296  0
O  O97  1  0.57502720  0.05459259  0.44919109  1  -1.263075  0  -0.235161  -0.592099  0  2.34787  0
O  O98  1  0.40751638  0.95695441  0.43812955  1  -1.257656  0  -0.23313  -0.581535  0  2.337275  0
O  O99  1  0.05831368  0.95495637  0.56107295  1  -1.258648  0  -0.239516  -0.596744  0  2.330549  0
O  O100  1  0.07444227  0.94406877  0.45103893  1  -1.259712  0  -0.234484  -0.592004  0  2.35119  0
O  O101  1  0.39508880  0.94614880  0.54957122  1  -1.260829  0  -0.238158  -0.603924  0  2.352251  0
O  O102  1  0.55840394  0.04668390  0.55956147  1  -1.261718  0  -0.239565  -0.596428  0  2.332479  0
O  O103  1  0.90836086  0.04146812  0.43711703  1  -1.258974  0  -0.2322  -0.581727  0  2.341392  0
O  O104  1  0.23226108  0.03337684  0.49947154  1  -1.44027  0  -0.448484  -0.994014  0  2.203229  0
O  O105  1  0.73201503  0.96667577  0.50045310  1  -1.418981  0  -0.448464  -0.993728  0  2.203687  0
O  O106  1  0.94163229  0.45340842  0.94033781  1  -1.261968  0  -0.239377  -0.59621  0  2.331668  0
O  O107  1  0.59175140  0.45849654  0.06279226  1  -1.258637  0  -0.232215  -0.581952  0  2.341433  0
O  O108  1  0.42563869  0.55592440  0.04902545  1  -1.259047  0  -0.234038  -0.591829  0  2.351059  0
O  O109  1  0.10488110  0.55399018  0.95044692  1  -1.262567  0  -0.238036  -0.604235  0  2.352413  0
O  O110  1  0.09251993  0.54302346  0.06185997  1  -1.258144  0  -0.233021  -0.58171  0  2.337783  0
O  O111  1  0.44171266  0.54525679  0.93899606  1  -1.25759  0  -0.239214  -0.596629  0  2.330236  0
O  O112  1  0.60461452  0.44490500  0.95164787  1  -1.26018  0  -0.238245  -0.603795  0  2.351363  0
O  O113  1  0.92503927  0.44539748  0.05066487  1  -1.264002  0  -0.235248  -0.591713  0  2.346973  0
O  O114  1  0.26784479  0.46669961  0.00042672  1  -1.42473  0  -0.448283  -0.994483  0  2.203744  0
O  O115  1  0.76802568  0.53338450  0.99955742  1  -1.416626  0  -0.44823  -0.993012  0  2.203671  0
F  F116  1  0.10183310  0.29836143  0.18037435  1  -0.63459  0  -0.097249  -0.144723  0  1.346832  0
F  F117  1  0.39876666  0.20152647  0.31929225  1  -0.633767  0  -0.097243  -0.145008  0  1.346386  0
F  F118  1  0.59807570  0.67126426  0.78659289  1  -0.630828  0  -0.09569  -0.143297  0  1.348786  0
F  F119  1  0.90166136  0.82902698  0.71349290  1  -0.631216  0  -0.095855  -0.143468  0  1.349024  0
F  F120  1  0.91467610  0.66862826  0.21165444  1  -0.633241  0  -0.096785  -0.144231  0  1.348735  0
F  F121  1  0.58438627  0.83150751  0.28806608  1  -0.634868  0  -0.09725  -0.145034  0  1.348096  0
F  F122  1  0.09846822  0.32817469  0.78782896  1  -0.63336  0  -0.095904  -0.143436  0  1.346978  0
F  F123  1  0.40240282  0.17135556  0.71264592  1  -0.6361  0  -0.095595  -0.142993  0  1.347831  0
