# generated using pymatgen
data_TbH13C18N3O8
_symmetry_space_group_name_H-M   'P 1'
_cell_length_a   5.88647764
_cell_length_b   10.47723160
_cell_length_c   14.69658574
_cell_angle_alpha   113.04299413
_cell_angle_beta   87.07828052
_cell_angle_gamma   96.89041149
_symmetry_Int_Tables_number   1
_chemical_formula_structural   TbH13C18N3O8
_chemical_formula_sum   'Tb2 H26 C36 N6 O16'
_cell_volume   828.04475281
_cell_formula_units_Z   2
loop_
 _symmetry_equiv_pos_site_id
 _symmetry_equiv_pos_as_xyz
  1  'x, y, z'
loop_
 _atom_site_type_symbol
 _atom_site_label
 _atom_site_symmetry_multiplicity
 _atom_site_fract_x
 _atom_site_fract_y
 _atom_site_fract_z
 _atom_site_occupancy
 _atom_site_hle17_bader_spin_density
 _atom_site_hle17_ddec_charge
 _atom_site_hle17_ddec_spin_density
 _atom_site_hle17_ddec_sum_bond_order
 _atom_site_hle17_magmom
 _atom_site_hse06_10hf_bader_spin_density
 _atom_site_hse06_10hf_ddec_charge
 _atom_site_hse06_10hf_ddec_spin_density
 _atom_site_hse06_10hf_ddec_sum_bond_order
 _atom_site_hse06_10hf_magmom
 _atom_site_hse06_bader_spin_density
 _atom_site_hse06_ddec_charge
 _atom_site_hse06_ddec_spin_density
 _atom_site_hse06_ddec_sum_bond_order
 _atom_site_hse06_magmom
 _atom_site_pbe_bader_spin_density
 _atom_site_pbe_cm5_charge
 _atom_site_pbe_ddec_charge
 _atom_site_pbe_ddec_spin_density
 _atom_site_pbe_ddec_sum_bond_order
 _atom_site_pbe_magmom
Tb  Tb0  1  0.38337376  0.25282443  0.51303046  1  0  2.275838  0  1.630472  0  0  2.135515  0  2.091014  0  0  2.249393  0  1.920286  0  0  1.510134  2.101733  0  2.121356  0
Tb  Tb1  1  0.61663594  0.74717888  0.48696796  1  0  2.275773  0  1.630583  0  0  2.1354  0  2.091197  0  0  2.249314  0  1.920402  0  0  1.510173  2.101622  0  2.121547  0
H  H2  1  0.86766536  0.31810081  0.47828071  1  0  0.437013  0  0.850237  0  0  0.406812  0  0.920097  0  0  0.417705  0  0.904339  0  0  0.310087  0.398837  0  0.931929  0
H  H3  1  0.13234620  0.68190229  0.52171630  1  0  0.436948  0  0.850356  0  0  0.406765  0  0.920157  0  0  0.417655  0  0.904406  0  0  0.310061  0.398796  0  0.931981  0
H  H4  1  0.74146398  0.43844837  0.47270230  1  0  0.430548  0  0.854686  0  0  0.400479  0  0.927985  0  0  0.410894  0  0.913053  0  0  0.309908  0.392885  0  0.939143  0
H  H5  1  0.25854737  0.56155233  0.52729143  1  0  0.430553  0  0.854717  0  0  0.400484  0  0.927992  0  0  0.410901  0  0.913056  0  0  0.309921  0.392886  0  0.939157  0
H  H6  1  0.12981974  0.02149830  0.58197076  1  0  0.459191  0  0.827987  0  0  0.432938  0  0.881611  0  0  0.443766  0  0.866001  0  0  0.310169  0.425589  0  0.892223  0
H  H7  1  0.87019264  0.97850162  0.41802553  1  0  0.459192  0  0.828008  0  0  0.432937  0  0.881637  0  0  0.443767  0  0.866021  0  0  0.310163  0.425586  0  0.892251  0
H  H8  1  0.39194293  0.04428245  0.60633272  1  0  0.441627  0  0.851709  0  0  0.412089  0  0.91426  0  0  0.421879  0  0.900089  0  0  0.309652  0.404894  0  0.925033  0
H  H9  1  0.60807115  0.95571868  0.39366590  1  0  0.441678  0  0.851644  0  0  0.412082  0  0.914268  0  0  0.421886  0  0.900082  0  0  0.309667  0.404889  0  0.925038  0
H  H10  1  0.51565766  0.01645419  0.16135601  1  0  0.114032  0  0.934634  0  0  0.119125  0  1.003749  0  0  0.123124  0  0.999571  0  0  0.112056  0.116125  0  1.006955  0
H  H11  1  0.48432059  0.98354856  0.83864624  1  0  0.113967  0  0.934625  0  0  0.119084  0  1.003718  0  0  0.12308  0  0.999546  0  0  0.11198  0.116084  0  1.006924  0
H  H12  1  0.36403960  0.90887673  0.98638813  1  0  0.110515  0  0.967838  0  0  0.117794  0  1.034943  0  0  0.121283  0  1.033548  0  0  0.107539  0.11544  0  1.035968  0
H  H13  1  0.63594298  0.09112894  0.01361412  1  0  0.110474  0  0.967751  0  0  0.117799  0  1.034839  0  0  0.121294  0  1.033441  0  0  0.10754  0.115455  0  1.035843  0
H  H14  1  0.83526850  0.92020661  0.25737577  1  0  0.076469  0  0.957935  0  0  0.084377  0  1.025431  0  0  0.087984  0  1.021249  0  0  0.113939  0.081849  0  1.0282  0
H  H15  1  0.16471478  0.07977956  0.74262618  1  0  0.076382  0  0.957967  0  0  0.084286  0  1.025473  0  0  0.087931  0  1.021244  0  0  0.113916  0.081763  0  1.028234  0
H  H16  1  0.60208504  0.73247738  0.98711077  1  0  0.104733  0  0.985902  0  0  0.109739  0  1.056674  0  0  0.11382  0  1.054096  0  0  0.104916  0.10707  0  1.058306  0
H  H17  1  0.39790725  0.26751552  0.01288043  1  0  0.104753  0  0.985876  0  0  0.109765  0  1.056642  0  0  0.113845  0  1.054063  0  0  0.104958  0.107097  0  1.05826  0
H  H18  1  0.42807985  0.61664278  0.81894371  1  0  0.104167  0  0.975429  0  0  0.110505  0  1.043952  0  0  0.113687  0  1.040665  0  0  0.109756  0.108333  0  1.045998  0
H  H19  1  0.57193111  0.38336836  0.18105169  1  0  0.104242  0  0.97522  0  0  0.110572  0  1.043791  0  0  0.113751  0  1.040505  0  0  0.109769  0.108413  0  1.045796  0
H  H20  1  0.07342823  0.72997388  0.70154624  1  0  0.098357  0  0.941792  0  0  0.105327  0  1.004499  0  0  0.109244  0  1.000451  0  0  0.11615  0.102751  0  1.006974  0
H  H21  1  0.92657710  0.27003288  0.29845430  1  0  0.098387  0  0.941871  0  0  0.105363  0  1.004546  0  0  0.10928  0  1.0005  0  0  0.11618  0.102784  0  1.007032  0
H  H22  1  0.55084693  0.28605518  0.78169739  1  0  0.108688  0  0.925887  0  0  0.120532  0  0.983045  0  0  0.123653  0  0.980455  0  0  0.11635  0.118399  0  0.9847  0
H  H23  1  0.44914343  0.71394056  0.21830059  1  0  0.108737  0  0.925994  0  0  0.120578  0  0.983126  0  0  0.123698  0  0.980537  0  0  0.116371  0.118443  0  0.984779  0
H  H24  1  0.62345898  0.39672747  0.96502224  1  0  0.112612  0  0.965895  0  0  0.11846  0  1.034632  0  0  0.122611  0  1.031849  0  0  0.108734  0.115587  0  1.036665  0
H  H25  1  0.37653460  0.60325947  0.03498061  1  0  0.112531  0  0.966095  0  0  0.118386  0  1.034825  0  0  0.122527  0  1.032045  0  0  0.108699  0.115513  0  1.03686  0
H  H26  1  0.24849391  0.43139191  0.73953597  1  0  0.072898  0  0.990122  0  0  0.074347  0  1.06805  0  0  0.077741  0  1.065033  0  0  0.115673  0.071134  0  1.072018  0
H  H27  1  0.75150024  0.56860849  0.26046856  1  0  0.072815  0  0.990116  0  0  0.074286  0  1.068049  0  0  0.077657  0  1.065056  0  0  0.115609  0.071069  0  1.072024  0
C  C28  1  0.25538382  0.04247440  0.32868615  1  0  0.652698  0  3.915374  0  0  0.601144  0  4.211596  0  0  0.63395  0  4.212105  0  0  0.202168  0.577914  0  4.215873  0
C  C29  1  0.74460435  0.95751550  0.67131393  1  0  0.652492  0  3.915436  0  0  0.600922  0  4.211697  0  0  0.633725  0  4.21222  0  0  0.202147  0.57768  0  4.215989  0
C  C30  1  0.18643162  0.97501070  0.22320407  1  0  -0.126006  0  3.750519  0  0  -0.09935  0  3.984329  0  0  -0.111859  0  4.008306  0  0  -0.015707  -0.090715  0  3.968  0
C  C31  1  0.81358099  0.02498150  0.77679664  1  0  -0.12595  0  3.750191  0  0  -0.099321  0  3.98408  0  0  -0.111828  0  4.008064  0  0  -0.015678  -0.090682  0  3.967757  0
C  C32  1  0.33790041  0.97178736  0.14577831  1  0  -0.001123  0  3.664468  0  0  -0.030446  0  3.916139  0  0  -0.025154  0  3.932876  0  0  -0.056941  -0.033814  0  3.905461  0
C  C33  1  0.66209022  0.02821586  0.85423230  1  0  -0.001097  0  3.664299  0  0  -0.030433  0  3.91602  0  0  -0.025144  0  3.932763  0  0  -0.056873  -0.033794  0  3.905329  0
C  C34  1  0.25536381  0.91265116  0.04931259  1  0  -0.138073  0  3.680085  0  0  -0.15562  0  3.929242  0  0  -0.163163  0  3.949626  0  0  -0.078086  -0.15131  0  3.916603  0
C  C35  1  0.74463239  0.08734888  0.95068913  1  0  -0.138125  0  3.68024  0  0  -0.155733  0  3.929406  0  0  -0.163279  0  3.949779  0  0  -0.078107  -0.151429  0  3.916774  0
C  C36  1  0.02606934  0.85564664  0.03235253  1  0  0.185287  0  3.741362  0  0  0.18328  0  3.985823  0  0  0.190364  0  4.003992  0  0  0.125084  0.178791  0  3.97411  0
C  C37  1  0.97393471  0.14435350  0.96764309  1  0  0.185495  0  3.741889  0  0  0.183548  0  3.986335  0  0  0.190627  0  4.004512  0  0  0.125194  0.17907  0  3.974615  0
C  C38  1  0.95867463  0.91751516  0.19895974  1  0  0.136302  0  3.708259  0  0  0.098342  0  3.969736  0  0  0.106404  0  3.984745  0  0  0.057071  0.093273  0  3.958987  0
C  C39  1  0.04131540  0.08247452  0.80103893  1  0  0.136528  0  3.708282  0  0  0.09857  0  3.969767  0  0  0.106605  0  3.984764  0  0  0.057108  0.093496  0  3.959026  0
C  C40  1  0.92620876  0.78940888  0.93176385  1  0  0.177046  0  3.760842  0  0  0.17701  0  4.003897  0  0  0.183963  0  4.022876  0  0  0.121782  0.172547  0  3.991187  0
C  C41  1  0.07375935  0.21057902  0.06823021  1  0  0.176964  0  3.760889  0  0  0.176791  0  4.004106  0  0  0.183748  0  4.02308  0  0  0.121516  0.172321  0  3.991397  0
C  C42  1  0.69859735  0.72848168  0.92126929  1  0  -0.141031  0  3.715131  0  0  -0.159439  0  3.963843  0  0  -0.16738  0  3.984419  0  0  -0.082504  -0.154509  0  3.950581  0
C  C43  1  0.30139151  0.27151396  0.07872730  1  0  -0.141007  0  3.714934  0  0  -0.15937  0  3.963659  0  0  -0.16731  0  3.984235  0  0  -0.082437  -0.15444  0  3.950393  0
C  C44  1  0.60405573  0.66429597  0.82790279  1  0  -0.003017  0  3.704258  0  0  -0.031591  0  3.954171  0  0  -0.026121  0  3.970934  0  0  -0.063168  -0.034972  0  3.943205  0
C  C45  1  0.39593281  0.33570628  0.17209802  1  0  -0.003177  0  3.703778  0  0  -0.031731  0  3.95367  0  0  -0.026266  0  3.970446  0  0  -0.063134  -0.035105  0  3.942707  0
C  C46  1  0.73813795  0.66294613  0.74624539  1  0  -0.132019  0  3.720575  0  0  -0.110176  0  3.9579  0  0  -0.123056  0  3.980771  0  0  -0.016279  -0.101536  0  3.942868  0
C  C47  1  0.26185355  0.33706021  0.25376593  1  0  -0.13182  0  3.720645  0  0  -0.110032  0  3.957942  0  0  -0.122916  0  3.98082  0  0  -0.016264  -0.101392  0  3.942915  0
C  C48  1  0.96364056  0.72916740  0.76361384  1  0  0.125573  0  3.668652  0  0  0.090589  0  3.931505  0  0  0.098394  0  3.946566  0  0  0.052604  0.085464  0  3.92117  0
C  C49  1  0.03637379  0.27084369  0.23639182  1  0  0.125442  0  3.668665  0  0  0.090506  0  3.931446  0  0  0.098309  0  3.946512  0  0  0.052567  0.085381  0  3.921114  0
C  C50  1  0.64576885  0.58525759  0.64441146  1  0  0.735686  0  3.817757  0  0  0.688281  0  4.102868  0  0  0.72492  0  4.095212  0  0  0.240667  0.663794  0  4.109743  0
C  C51  1  0.35423705  0.41474106  0.35558041  1  0  0.735571  0  3.818335  0  0  0.688238  0  4.103335  0  0  0.72488  0  4.09568  0  0  0.240631  0.663741  0  4.110225  0
C  C52  1  0.86565862  0.29240269  0.63770095  1  0  0.732521  0  3.843046  0  0  0.684462  0  4.129128  0  0  0.721142  0  4.12179  0  0  0.240833  0.659582  0  4.136375  0
C  C53  1  0.13434900  0.70760864  0.36230473  1  0  0.732218  0  3.842887  0  0  0.684005  0  4.129177  0  0  0.72069  0  4.12186  0  0  0.240651  0.659147  0  4.136383  0
C  C54  1  0.89726841  0.34889816  0.74656830  1  0  -0.141902  0  3.752546  0  0  -0.121498  0  3.992422  0  0  -0.134658  0  4.016041  0  0  -0.016594  -0.112819  0  3.976863  0
C  C55  1  0.10273733  0.65110191  0.25342732  1  0  -0.141798  0  3.752324  0  0  -0.12122  0  3.992056  0  0  -0.134382  0  4.015682  0  0  -0.016524  -0.112553  0  3.976494  0
C  C56  1  0.71822098  0.33893630  0.81083698  1  0  0.003732  0  3.686771  0  0  -0.024333  0  3.936699  0  0  -0.01916  0  3.954232  0  0  -0.056415  -0.027248  0  3.924537  0
C  C57  1  0.28179185  0.66106324  0.18915581  1  0  0.00355  0  3.686981  0  0  -0.024536  0  3.936862  0  0  -0.019366  0  3.954395  0  0  -0.056511  -0.027436  0  3.924691  0
C  C58  1  0.75753223  0.39920019  0.91187639  1  0  -0.129066  0  3.679691  0  0  -0.148807  0  3.930845  0  0  -0.156364  0  3.951356  0  0  -0.074621  -0.14409  0  3.917427  0
C  C59  1  0.24248014  0.60079726  0.08812550  1  0  -0.128922  0  3.67988  0  0  -0.148706  0  3.931032  0  0  -0.156252  0  3.951532  0  0  -0.074555  -0.143989  0  3.91761  0
C  C60  1  0.97546861  0.46688046  0.94639455  1  0  0.185305  0  3.74092  0  0  0.18441  0  3.983386  0  0  0.191605  0  4.001412  0  0  0.127008  0.179824  0  3.971468  0
C  C61  1  0.02452909  0.53311967  0.05360857  1  0  0.185409  0  3.740841  0  0  0.184573  0  3.983242  0  0  0.191775  0  4.001259  0  0  0.127091  0.179981  0  3.971325  0
C  C62  1  0.10813289  0.41932977  0.78802618  1  0  0.123486  0  3.712346  0  0  0.0867  0  3.976493  0  0  0.094035  0  3.99277  0  0  0.055934  0.082105  0  3.965927  0
C  C63  1  0.89186952  0.58067424  0.21197646  1  0  0.123555  0  3.712315  0  0  0.086707  0  3.976421  0  0  0.094051  0  3.992724  0  0  0.055989  0.082108  0  3.965864  0
N  N64  1  0.88039057  0.85786355  0.10700446  1  0  -0.334759  0  3.073712  0  0  -0.299381  0  3.344321  0  0  -0.311789  0  3.359595  0  0  -0.312188  -0.29116  0  3.333883  0
N  N65  1  0.11958694  0.14212717  0.89299985  1  0  -0.334933  0  3.074217  0  0  -0.299545  0  3.344772  0  0  -0.31195  0  3.360056  0  0  -0.312228  -0.291326  0  3.334335  0
N  N66  1  0.05737130  0.78989293  0.85375179  1  0  -0.333758  0  3.037342  0  0  -0.301306  0  3.308584  0  0  -0.313727  0  3.324094  0  0  -0.31203  -0.292644  0  3.297693  0
N  N67  1  0.94262557  0.21010910  0.14624970  1  0  -0.333737  0  3.036979  0  0  -0.301254  0  3.308262  0  0  -0.313673  0  3.323767  0  0  -0.31195  -0.292599  0  3.297379  0
N  N68  1  0.14872383  0.47659671  0.88485918  1  0  -0.327836  0  3.051645  0  0  -0.292497  0  3.320251  0  0  -0.304849  0  3.33551  0  0  -0.309828  -0.283802  0  3.309257  0
N  N69  1  0.85127364  0.52339975  0.11513832  1  0  -0.327868  0  3.05161  0  0  -0.292549  0  3.32024  0  0  -0.304902  0  3.335496  0  0  -0.309862  -0.283849  0  3.30924  0
O  O70  1  0.10212320  0.07747746  0.39658542  1  0  -0.6982  0  2.018536  0  0  -0.642452  0  2.254074  0  0  -0.673864  0  2.244191  0  0  -0.358012  -0.624985  0  2.260251  0
O  O71  1  0.89787103  0.92252159  0.60341606  1  0  -0.69809  0  2.018617  0  0  -0.642333  0  2.254139  0  0  -0.673755  0  2.244268  0  0  -0.357999  -0.624862  0  2.260317  0
O  O72  1  0.46783278  0.07387484  0.35261724  1  0  -0.697311  0  1.964571  0  0  -0.640194  0  2.200856  0  0  -0.671849  0  2.19022  0  0  -0.369591  -0.623093  0  2.207619  0
O  O73  1  0.53214991  0.92612064  0.64738544  1  0  -0.697306  0  1.964585  0  0  -0.640127  0  2.200798  0  0  -0.671784  0  2.190161  0  0  -0.369623  -0.62302  0  2.207563  0
O  O74  1  0.49233041  0.48341114  0.63083080  1  0  -0.730509  0  2.044946  0  0  -0.677306  0  2.298315  0  0  -0.711524  0  2.284114  0  0  -0.376826  -0.659568  0  2.305671  0
O  O75  1  0.50768325  0.51658402  0.36916921  1  0  -0.730481  0  2.045015  0  0  -0.677328  0  2.298414  0  0  -0.711509  0  2.284111  0  0  -0.376887  -0.659591  0  2.305779  0
O  O76  1  0.72961428  0.62151363  0.57436267  1  0  -0.771962  0  2.055359  0  0  -0.713437  0  2.308199  0  0  -0.748016  0  2.292511  0  0  -0.404656  -0.695633  0  2.316427  0
O  O77  1  0.27040110  0.37848896  0.42563082  1  0  -0.771951  0  2.055595  0  0  -0.713477  0  2.308428  0  0  -0.748053  0  2.292745  0  0  -0.404635  -0.695663  0  2.316653  0
O  O78  1  0.67294939  0.22772883  0.60269764  1  0  -0.733813  0  2.061539  0  0  -0.678837  0  2.320698  0  0  -0.71382  0  2.305914  0  0  -0.404518  -0.660634  0  2.328384  0
O  O79  1  0.32707771  0.77227470  0.39729885  1  0  -0.733665  0  2.061569  0  0  -0.678631  0  2.320782  0  0  -0.713626  0  2.306004  0  0  -0.404436  -0.660432  0  2.328451  0
O  O80  1  0.03064619  0.31423222  0.58343027  1  0  -0.749941  0  2.058917  0  0  -0.68954  0  2.309144  0  0  -0.724971  0  2.293531  0  0  -0.39966  -0.671521  0  2.317743  0
O  O81  1  0.96934627  0.68577964  0.41657546  1  0  -0.749824  0  2.058823  0  0  -0.689435  0  2.309203  0  0  -0.724848  0  2.29352  0  0  -0.399648  -0.671427  0  2.317802  0
O  O82  1  0.73293944  0.33591288  0.44921899  1  0  -0.879807  0  1.899671  0  0  -0.83393  0  2.101597  0  0  -0.860514  0  2.065463  0  0  -0.626157  -0.820552  0  2.123555  0
O  O83  1  0.26706966  0.66408708  0.55077661  1  0  -0.879739  0  1.899799  0  0  -0.833863  0  2.10166  0  0  -0.860454  0  2.065524  0  0  -0.626128  -0.820489  0  2.123614  0
O  O84  1  0.27424120  0.08097257  0.58078944  1  0  -0.934151  0  1.872837  0  0  -0.892083  0  2.076413  0  0  -0.919712  0  2.039553  0  0  -0.644416  -0.879298  0  2.099333  0
O  O85  1  0.72577139  0.91902974  0.41921013  1  0  -0.934206  0  1.872749  0  0  -0.892054  0  2.076434  0  0  -0.919711  0  2.039536  0  0  -0.644444  -0.879265  0  2.099354  0
