# generated using pymatgen
data_CdH18C20(N6O)2
_symmetry_space_group_name_H-M   'P 1'
_cell_length_a   7.39596224
_cell_length_b   11.75338374
_cell_length_c   13.03900000
_cell_angle_alpha   90.00000000
_cell_angle_beta   90.00000000
_cell_angle_gamma   92.95293835
_symmetry_Int_Tables_number   1
_chemical_formula_structural   CdH18C20(N6O)2
_chemical_formula_sum   'Cd2 H36 C40 N24 O4'
_cell_volume   1131.94373695
_cell_formula_units_Z   2
loop_
 _symmetry_equiv_pos_site_id
 _symmetry_equiv_pos_as_xyz
  1  'x, y, z'
loop_
 _atom_site_type_symbol
 _atom_site_label
 _atom_site_symmetry_multiplicity
 _atom_site_fract_x
 _atom_site_fract_y
 _atom_site_fract_z
 _atom_site_occupancy
 _atom_site_hle17_bader_spin_density
 _atom_site_hle17_ddec_charge
 _atom_site_hle17_ddec_spin_density
 _atom_site_hle17_ddec_sum_bond_order
 _atom_site_hle17_magmom
 _atom_site_hse06_10hf_bader_spin_density
 _atom_site_hse06_10hf_ddec_charge
 _atom_site_hse06_10hf_ddec_spin_density
 _atom_site_hse06_10hf_ddec_sum_bond_order
 _atom_site_hse06_10hf_magmom
 _atom_site_hse06_bader_spin_density
 _atom_site_hse06_ddec_charge
 _atom_site_hse06_ddec_spin_density
 _atom_site_hse06_ddec_sum_bond_order
 _atom_site_hse06_magmom
 _atom_site_pbe_bader_charge
 _atom_site_pbe_bader_spin_density
 _atom_site_pbe_cm5_charge
 _atom_site_pbe_ddec_charge
 _atom_site_pbe_ddec_spin_density
 _atom_site_pbe_ddec_sum_bond_order
 _atom_site_pbe_magmom
Cd  Cd0  1  0.99999624  0.50000437  0.00000000  1  0  1.021551  0  1.762451  0  0  0.813898  0  2.199371  0  0  0.864319  0  2.156736  0  1.241091  0  0.797238  0.778214  0  2.228484  0
Cd  Cd1  1  0.49999993  0.99999511  0.49999923  1  0  1.02151  0  1.762495  0  0  0.813846  0  2.19944  0  0  0.864269  0  2.156799  0  1.24101  0  0.797241  0.778163  0  2.228554  0
H  H2  1  0.57802653  0.73759620  0.97642764  1  0  0.098553  0  0.948029  0  0  0.109378  0  1.010863  0  0  0.112706  0  1.008576  0  0.093712  0  0.100892  0.106945  0  1.012649  0
H  H3  1  0.92197627  0.76240158  0.47642841  1  0  0.098531  0  0.948123  0  0  0.109369  0  1.010944  0  0  0.112696  0  1.00866  0  0.093762  0  0.100871  0.106938  0  1.012729  0
H  H4  1  0.42198633  0.26240999  0.02357389  1  0  0.0985  0  0.948043  0  0  0.109352  0  1.010841  0  0  0.11268  0  1.008554  0  0.093606  0  0.100877  0.106923  0  1.012621  0
H  H5  1  0.07801007  0.23759438  0.52357236  1  0  0.098437  0  0.948097  0  0  0.109283  0  1.01091  0  0  0.11261  0  1.008627  0  0.093673  0  0.100843  0.106848  0  1.012697  0
H  H6  1  0.72614667  0.76252000  0.14685942  1  0  0.094423  0  0.950311  0  0  0.107828  0  1.003383  0  0  0.109583  0  1.003955  0  0.083398  0  0.103682  0.106549  0  1.003082  0
H  H7  1  0.77385072  0.73747778  0.64685559  1  0  0.094404  0  0.950466  0  0  0.107807  0  1.003522  0  0  0.109561  0  1.004093  0  0.083452  0  0.103659  0.10653  0  1.00322  0
H  H8  1  0.27386078  0.23748619  0.85314365  1  0  0.094416  0  0.950289  0  0  0.107849  0  1.003325  0  0  0.109605  0  1.003896  0  0.083275  0  0.103725  0.10657  0  1.003025  0
H  H9  1  0.22613832  0.26251818  0.35314441  1  0  0.094386  0  0.950374  0  0  0.107802  0  1.003432  0  0  0.109556  0  1.004005  0  0.083333  0  0.10369  0.106525  0  1.003129  0
H  H10  1  0.87488366  0.94707197  0.19668686  1  0  0.098836  0  0.948498  0  0  0.112854  0  1.006425  0  0  0.115872  0  1.004572  0  0.070496  0  0.105103  0.110638  0  1.007945  0
H  H11  1  0.62511130  0.55292921  0.69668686  1  0  0.098813  0  0.948393  0  0  0.112857  0  1.006296  0  0  0.115875  0  1.004444  0  0.070521  0  0.105112  0.110635  0  1.007824  0
H  H12  1  0.12512129  0.05293677  0.80331390  1  0  0.098809  0  0.948417  0  0  0.112873  0  1.006296  0  0  0.115887  0  1.004447  0  0.070617  0  0.105131  0.110668  0  1.0078  0
H  H13  1  0.37488179  0.44706675  0.30331621  1  0  0.098833  0  0.948406  0  0  0.112904  0  1.006271  0  0  0.115919  0  1.004422  0  0.070662  0  0.105153  0.110692  0  1.007784  0
H  H14  1  0.99873972  0.10983170  0.23283074  1  0  0.104418  0  0.967936  0  0  0.114069  0  1.031886  0  0  0.116985  0  1.02932  0  0.113403  0  0.120117  0.11192  0  1.033925  0
H  H15  1  0.50126007  0.39016841  0.73282920  1  0  0.10443  0  0.967984  0  0  0.114065  0  1.031941  0  0  0.116982  0  1.029369  0  0.113193  0  0.1201  0.111906  0  1.033992  0
H  H16  1  0.00126502  0.89017449  0.76716849  1  0  0.104502  0  0.967742  0  0  0.11407  0  1.031772  0  0  0.117022  0  1.029158  0  0.113391  0  0.120123  0.111861  0  1.03388  0
H  H17  1  0.49873437  0.60982755  0.26716849  1  0  0.104477  0  0.96775  0  0  0.114074  0  1.031749  0  0  0.11701  0  1.029155  0  0.113279  0  0.120128  0.111865  0  1.033856  0
H  H18  1  0.08101646  0.34115658  0.22066339  1  0  0.095398  0  0.981728  0  0  0.102858  0  1.047783  0  0  0.104765  0  1.047884  0  0.080775  0  0.111415  0.101481  0  1.047805  0
H  H19  1  0.41898242  0.15884523  0.72065879  1  0  0.095435  0  0.981772  0  0  0.102914  0  1.047795  0  0  0.104805  0  1.047914  0  0.080568  0  0.11143  0.101538  0  1.047815  0
H  H20  1  0.91897611  0.65884960  0.77933814  1  0  0.09547  0  0.98169  0  0  0.102924  0  1.047744  0  0  0.104844  0  1.047829  0  0.080809  0  0.111446  0.101547  0  1.047771  0
H  H21  1  0.58101899  0.84115328  0.27933891  1  0  0.095443  0  0.981736  0  0  0.10287  0  1.047821  0  0  0.10479  0  1.047907  0  0.080856  0  0.111431  0.101495  0  1.047843  0
H  H22  1  0.84697280  0.23400938  0.94098551  1  0  0.085809  0  0.987586  0  0  0.089088  0  1.060908  0  0  0.09222  0  1.05665  0  0.169315  0  0.131418  0.086823  0  1.063872  0
H  H23  1  0.65301084  0.26599158  0.44097937  1  0  0.085883  0  0.987612  0  0  0.089226  0  1.060849  0  0  0.092362  0  1.056586  0  0.169181  0  0.131464  0.086962  0  1.063814  0
H  H24  1  0.15302526  0.76599766  0.05901526  1  0  0.085732  0  0.987693  0  0  0.089095  0  1.06093  0  0  0.092227  0  1.056672  0  0.169317  0  0.131429  0.08683  0  1.063895  0
H  H25  1  0.34698204  0.73400182  0.55901756  1  0  0.085744  0  0.987688  0  0  0.089113  0  1.060902  0  0  0.092248  0  1.056641  0  0.169303  0  0.131413  0.086848  0  1.063868  0
H  H26  1  0.74402062  0.08168412  0.89845310  1  0  0.115309  0  0.952173  0  0  0.127546  0  1.011834  0  0  0.130563  0  1.010025  0  0.091445  0  0.111354  0.125336  0  1.013278  0
H  H27  1  0.75599107  0.41831258  0.39845540  1  0  0.115414  0  0.952321  0  0  0.127674  0  1.011925  0  0  0.130695  0  1.010116  0  0.090914  0  0.111402  0.125463  0  1.013369  0
H  H28  1  0.25599182  0.91831695  0.10154460  1  0  0.115348  0  0.952175  0  0  0.127591  0  1.011819  0  0  0.130611  0  1.010006  0  0.091027  0  0.111379  0.125381  0  1.013265  0
H  H29  1  0.24400088  0.58168593  0.60154306  1  0  0.115434  0  0.952225  0  0  0.127673  0  1.011859  0  0  0.130691  0  1.010053  0  0.090982  0  0.111397  0.125464  0  1.013304  0
H  H30  1  0.71128102  0.40899140  0.88265051  1  0  0.3894  0  0.917101  0  0  0.348287  0  1.005648  0  0  0.358934  0  0.990175  0  0.620123  0  0.287898  0.340755  0  1.016567  0
H  H31  1  0.78871735  0.09100786  0.38265204  1  0  0.389419  0  0.917038  0  0  0.348308  0  1.005605  0  0  0.358954  0  0.990134  0  0.620139  0  0.28791  0.340776  0  1.016524  0
H  H32  1  0.28871661  0.59101052  0.11734796  1  0  0.389463  0  0.916964  0  0  0.348353  0  1.005539  0  0  0.358999  0  0.990067  0  0.620022  0  0.28792  0.340821  0  1.016457  0
H  H33  1  0.21128635  0.90898554  0.61735486  1  0  0.389325  0  0.917169  0  0  0.348218  0  1.005733  0  0  0.358863  0  0.990263  0  0.619918  0  0.287868  0.340686  0  1.016651  0
H  H34  1  0.59680236  0.51292504  0.91707186  1  0  0.423332  0  0.821561  0  0  0.407888  0  0.873823  0  0  0.416327  0  0.863964  0  0.620301  0  0.317324  0.401858  0  0.880926  0
H  H35  1  0.90319510  0.98707358  0.41707109  1  0  0.423357  0  0.821526  0  0  0.407922  0  0.873773  0  0  0.41636  0  0.863915  0  0.620418  0  0.317342  0.401893  0  0.880874  0
H  H36  1  0.40319244  0.48707518  0.08292277  1  0  0.423361  0  0.82161  0  0  0.407899  0  0.8739  0  0  0.416339  0  0.864038  0  0.620334  0  0.317303  0.401868  0  0.881005  0
H  H37  1  0.09680028  0.01291727  0.58292507  1  0  0.42339  0  0.821635  0  0  0.407914  0  0.873935  0  0  0.416353  0  0.864077  0  0.620374  0  0.317337  0.401882  0  0.88104  0
C  C38  1  0.64543366  0.81880493  0.99754582  1  0  -0.098274  0  3.71792  0  0  -0.125365  0  3.968883  0  0  -0.1289  0  3.989859  0  -0.007554  0  -0.088411  -0.122957  0  3.95462  0
C  C39  1  0.85456658  0.68119455  0.49754582  1  0  -0.098331  0  3.717957  0  0  -0.125445  0  3.968922  0  0  -0.12898  0  3.989894  0  -0.007549  0  -0.088401  -0.123039  0  3.954661  0
C  C40  1  0.35457806  0.18120381  0.00245648  1  0  -0.098364  0  3.717655  0  0  -0.125447  0  3.968672  0  0  -0.128982  0  3.989647  0  -0.008675  0  -0.088422  -0.123037  0  3.95441  0
C  C41  1  0.14541840  0.31880141  0.50245494  1  0  -0.098231  0  3.717871  0  0  -0.125332  0  3.968871  0  0  -0.128856  0  3.989813  0  -0.007653  0  -0.088358  -0.12292  0  3.954613  0
C  C42  1  0.81507677  0.02901316  0.05250403  1  0  0.194781  0  3.779244  0  0  0.188221  0  4.02896  0  0  0.194943  0  4.050808  0  0.252978  0  0.098871  0.183711  0  4.014187  0
C  C43  1  0.68492296  0.47098610  0.55250403  1  0  0.194679  0  3.779239  0  0  0.188164  0  4.028908  0  0  0.194888  0  4.050756  0  0.252941  0  0.098832  0.183655  0  4.014134  0
C  C44  1  0.18492947  0.97099473  0.94749521  1  0  0.194543  0  3.779339  0  0  0.188049  0  4.028999  0  0  0.19477  0  4.050852  0  0.253092  0  0.098811  0.183541  0  4.014223  0
C  C45  1  0.31507134  0.52900816  0.44749521  1  0  0.194688  0  3.779288  0  0  0.188241  0  4.028879  0  0  0.194965  0  4.050728  0  0.252957  0  0.098931  0.183732  0  4.014105  0
C  C46  1  0.65586734  0.90881089  0.92677199  1  0  0.038851  0  3.80798  0  0  0.058533  0  4.038332  0  0  0.05932  0  4.061265  0  -0.006826  0  0.000209  0.058043  0  4.022758  0
C  C47  1  0.84414215  0.59118603  0.42677199  1  0  0.038917  0  3.807955  0  0  0.058624  0  4.038286  0  0  0.059408  0  4.061237  0  -0.006878  0  0.000165  0.05813  0  4.022732  0
C  C48  1  0.34414652  0.09119103  0.07322954  1  0  0.039131  0  3.807729  0  0  0.058709  0  4.038218  0  0  0.059492  0  4.061171  0  -0.00584  0  0.000236  0.058213  0  4.022656  0
C  C49  1  0.15585493  0.40880908  0.57322878  1  0  0.039024  0  3.807716  0  0  0.058692  0  4.038107  0  0  0.059478  0  4.061062  0  -0.006827  0  0.00022  0.0582  0  4.022554  0
C  C50  1  0.72583199  0.83383929  0.09352021  1  0  -0.050881  0  3.777009  0  0  -0.06048  0  4.029524  0  0  -0.060914  0  4.051221  0  -0.146451  0  -0.089562  -0.06005  0  4.014734  0
C  C51  1  0.77416824  0.66616019  0.59352021  1  0  -0.050848  0  3.777164  0  0  -0.060439  0  4.029655  0  0  -0.060873  0  4.05135  0  -0.146301  0  -0.089544  -0.06001  0  4.014863  0
C  C52  1  0.27417958  0.16616774  0.90648209  1  0  -0.050828  0  3.776787  0  0  -0.060449  0  4.029324  0  0  -0.060881  0  4.051009  0  -0.145686  0  -0.0896  -0.060024  0  4.014549  0
C  C53  1  0.22581404  0.33383577  0.40648056  1  0  -0.050782  0  3.777005  0  0  -0.0604  0  4.029545  0  0  -0.060832  0  4.051242  0  -0.15039  0  -0.089578  -0.059975  0  4.014768  0
C  C54  1  0.81059179  0.93810349  0.12182069  1  0  -0.147852  0  3.716223  0  0  -0.176452  0  3.977307  0  0  -0.180534  0  3.997167  0  0.045031  0  -0.095701  -0.173717  0  3.963919  0
C  C55  1  0.68940837  0.56189513  0.62181686  1  0  -0.14781  0  3.716268  0  0  -0.176445  0  3.977344  0  0  -0.18053  0  3.997211  0  0.044919  0  -0.095693  -0.173705  0  3.963958  0
C  C56  1  0.18941573  0.06190354  0.87818084  1  0  -0.147817  0  3.716169  0  0  -0.176476  0  3.977265  0  0  -0.180557  0  3.997128  0  0.044393  0  -0.095771  -0.173749  0  3.963873  0
C  C57  1  0.31058600  0.43809998  0.37818238  1  0  -0.147871  0  3.716261  0  0  -0.176543  0  3.977346  0  0  -0.180628  0  3.997211  0  0.049031  0  -0.095801  -0.17381  0  3.963958  0
C  C58  1  0.97557037  0.16965222  0.17192499  1  0  -0.034884  0  3.676376  0  0  -0.081127  0  3.947698  0  0  -0.078883  0  3.965239  0  0.29364  0  0.005443  -0.08263  0  3.936013  0
C  C59  1  0.52443269  0.33035471  0.67192423  1  0  -0.034984  0  3.676055  0  0  -0.081201  0  3.947346  0  0  -0.078964  0  3.964901  0  0.293292  0  0.005378  -0.082696  0  3.935672  0
C  C60  1  0.02443060  0.83035737  0.82807501  1  0  -0.035009  0  3.676065  0  0  -0.081134  0  3.947306  0  0  -0.078931  0  3.964849  0  0.293269  0  0.005393  -0.082585  0  3.935662  0
C  C61  1  0.47557029  0.66964637  0.32807654  1  0  -0.034968  0  3.676153  0  0  -0.081133  0  3.94742  0  0  -0.078912  0  3.964968  0  0.293073  0  0.005355  -0.082585  0  3.935775  0
C  C62  1  0.02034825  0.28373174  0.16407853  1  0  0.005566  0  3.751156  0  0  -0.031465  0  4.024325  0  0  -0.029216  0  4.044149  0  0.478666  0  -0.005753  -0.032978  0  4.010914  0
C  C63  1  0.47964886  0.21626496  0.66407547  1  0  0.005558  0  3.750823  0  0  -0.031494  0  4.02399  0  0  -0.029233  0  4.043818  0  0.478709  0  -0.005688  -0.033006  0  4.01058  0
C  C64  1  0.97964710  0.71627530  0.83592377  1  0  0.005464  0  3.751148  0  0  -0.031588  0  4.024306  0  0  -0.029347  0  4.044125  0  0.478565  0  -0.005793  -0.033103  0  4.010884  0
C  C65  1  0.52034915  0.78372503  0.33592300  1  0  0.005541  0  3.751115  0  0  -0.031472  0  4.024275  0  0  -0.029233  0  4.044094  0  0.478453  0  -0.00572  -0.032985  0  4.010852  0
C  C66  1  0.58145255  0.89708636  0.82314211  1  0  0.229725  0  3.817441  0  0  0.21375  0  4.094563  0  0  0.219694  0  4.112877  0  0.935518  0  0.197917  0.209742  0  4.082184  0
C  C67  1  0.91856235  0.60291056  0.32314365  1  0  0.229543  0  3.817639  0  0  0.213522  0  4.094829  0  0  0.219464  0  4.113143  0  0.935499  0  0.197828  0.209507  0  4.08246  0
C  C68  1  0.41855563  0.10291216  0.17685635  1  0  0.22944  0  3.817757  0  0  0.213498  0  4.094903  0  0  0.21944  0  4.113219  0  0.935473  0  0.19785  0.209491  0  4.082519  0
C  C69  1  0.08143508  0.39708880  0.67685635  1  0  0.229693  0  3.817481  0  0  0.213649  0  4.094721  0  0  0.219591  0  4.113036  0  0.935498  0  0.197862  0.209628  0  4.082364  0
C  C70  1  0.89649028  0.23204308  0.01908505  1  0  0.188655  0  3.645683  0  0  0.126977  0  3.914045  0  0  0.141675  0  3.926561  0  0.972792  0  0.145559  0.117536  0  3.905115  0
C  C71  1  0.60350012  0.26795788  0.51908198  1  0  0.188424  0  3.646028  0  0  0.12673  0  3.914303  0  0  0.141423  0  3.926829  0  0.973546  0  0.145504  0.117294  0  3.905366  0
C  C72  1  0.10350912  0.76796396  0.98091495  1  0  0.188717  0  3.645874  0  0  0.126958  0  3.914243  0  0  0.141654  0  3.926761  0  0.972398  0  0.145612  0.117516  0  3.905317  0
C  C73  1  0.39649696  0.73203722  0.48091648  1  0  0.188654  0  3.645977  0  0  0.12692  0  3.914288  0  0  0.141616  0  3.926808  0  0.97287  0  0.145615  0.117482  0  3.905354  0
C  C74  1  0.73972655  0.01355878  0.95495667  1  0  -0.176186  0  3.680855  0  0  -0.209503  0  3.932783  0  0  -0.214339  0  3.952815  0  0.066677  0  -0.086979  -0.206243  0  3.919312  0
C  C75  1  0.76028628  0.48643536  0.45495437  1  0  -0.176204  0  3.680886  0  0  -0.209583  0  3.932837  0  0  -0.214415  0  3.952849  0  0.06716  0  -0.086951  -0.206322  0  3.919372  0
C  C76  1  0.26028596  0.98644314  0.04504180  1  0  -0.176124  0  3.680609  0  0  -0.209451  0  3.932575  0  0  -0.214278  0  3.95258  0  0.06696  0  -0.086933  -0.206204  0  3.919132  0
C  C77  1  0.23971357  0.51356060  0.54504410  1  0  -0.176397  0  3.68069  0  0  -0.209763  0  3.932654  0  0  -0.214596  0  3.952662  0  0.06707  0  -0.087052  -0.206506  0  3.919192  0
N  N78  1  0.89622402  0.13716140  0.07933584  1  0  -0.095812  0  3.601115  0  0  -0.00571  0  3.808634  0  0  -0.021135  0  3.834222  0  -1.245737  0  -0.220736  0.004569  0  3.791038  0
N  N79  1  0.60377713  0.36283871  0.57933047  1  0  -0.095658  0  3.60114  0  0  -0.005586  0  3.808646  0  0  -0.021014  0  3.834244  0  -1.245779  0  -0.220673  0.004696  0  3.791039  0
N  N80  1  0.10378073  0.86284478  0.92066723  1  0  -0.095666  0  3.601219  0  0  -0.00559  0  3.808717  0  0  -0.021017  0  3.834312  0  -1.244965  0  -0.220677  0.004693  0  3.791101  0
N  N81  1  0.39622258  0.63715555  0.42066723  1  0  -0.095692  0  3.601189  0  0  -0.005648  0  3.808699  0  0  -0.021073  0  3.834285  0  -1.244617  0  -0.220674  0.004636  0  3.791086  0
N  N82  1  0.64435586  0.95971491  0.74225784  1  0  -0.295487  0  2.936523  0  0  -0.285052  0  3.211295  0  0  -0.29081  0  3.224429  0  -0.657451  0  -0.231899  -0.281001  0  3.202246  0
N  N83  1  0.85565491  0.54028116  0.24226244  1  0  -0.295372  0  2.936571  0  0  -0.284922  0  3.211343  0  0  -0.29068  0  3.224479  0  -0.657374  0  -0.231881  -0.280867  0  3.202293  0
N  N84  1  0.35565474  0.04028020  0.25774062  1  0  -0.295457  0  2.93646  0  0  -0.285029  0  3.211228  0  0  -0.290789  0  3.224361  0  -0.657636  0  -0.231908  -0.280977  0  3.202182  0
N  N85  1  0.14433860  0.45971991  0.75773679  1  0  -0.295422  0  2.936248  0  0  -0.284954  0  3.211027  0  0  -0.290711  0  3.224158  0  -0.657588  0  -0.231958  -0.280898  0  3.201984  0
N  N86  1  0.97113041  0.32131977  0.06815247  1  0  -0.3829  0  3.278211  0  0  -0.3027  0  3.558615  0  0  -0.324833  0  3.57724  0  -1.223045  0  -0.361068  -0.287516  0  3.545417  0
N  N87  1  0.52886013  0.17868289  0.56814786  1  0  -0.382799  0  3.278424  0  0  -0.302622  0  3.558839  0  0  -0.324755  0  3.577466  0  -1.222842  0  -0.361089  -0.287438  0  3.54564  0
N  N88  1  0.02886480  0.67868556  0.93184830  1  0  -0.382858  0  3.278257  0  0  -0.30263  0  3.558674  0  0  -0.324767  0  3.57731  0  -1.222751  0  -0.361079  -0.287444  0  3.545476  0
N  N89  1  0.47113567  0.82131307  0.43185060  1  0  -0.382861  0  3.278359  0  0  -0.302654  0  3.558764  0  0  -0.324791  0  3.577398  0  -1.223231  0  -0.361094  -0.287468  0  3.545567  0
N  N90  1  0.43695998  0.82803155  0.79719764  1  0  -0.276701  0  2.954689  0  0  -0.267031  0  3.24113  0  0  -0.273733  0  3.254412  0  -0.651756  0  -0.22379  -0.262351  0  3.232016  0
N  N91  1  0.06305002  0.67196793  0.29719994  1  0  -0.276582  0  2.954676  0  0  -0.266884  0  3.241121  0  0  -0.273586  0  3.254402  0  -0.651908  0  -0.223779  -0.262202  0  3.232007  0
N  N92  1  0.56305090  0.17196697  0.20280390  1  0  -0.276593  0  2.954837  0  0  -0.266922  0  3.241281  0  0  -0.273624  0  3.254564  0  -0.65176  0  -0.22381  -0.262242  0  3.232163  0
N  N93  1  0.93694477  0.32803229  0.70280313  1  0  -0.276697  0  2.954835  0  0  -0.266998  0  3.241289  0  0  -0.2737  0  3.254571  0  -0.651877  0  -0.223787  -0.262313  0  3.232175  0
N  N94  1  0.40700654  0.85018821  0.69855740  1  0  -0.155024  0  3.085438  0  0  -0.124081  0  3.367257  0  0  -0.127815  0  3.381966  0  -0.196496  0  -0.117008  -0.121202  0  3.357041  0
N  N95  1  0.09299926  0.64980956  0.19855971  1  0  -0.15514  0  3.085546  0  0  -0.124211  0  3.36738  0  0  -0.127945  0  3.382087  0  -0.196504  0  -0.117004  -0.121331  0  3.357162  0
N  N96  1  0.59299872  0.14980775  0.30144260  1  0  -0.155145  0  3.085595  0  0  -0.124209  0  3.367438  0  0  -0.127944  0  3.382146  0  -0.196537  0  -0.116991  -0.12133  0  3.35722  0
N  N97  1  0.90699560  0.35019151  0.80144183  1  0  -0.155081  0  3.085634  0  0  -0.124127  0  3.367432  0  0  -0.12786  0  3.382138  0  -0.196597  0  -0.116986  -0.121247  0  3.357211  0
N  N98  1  0.53292201  0.92816890  0.66606181  1  0  -0.162889  0  3.252008  0  0  -0.102099  0  3.542143  0  0  -0.113005  0  3.559742  0  -0.23889  0  -0.1381  -0.094299  0  3.529703  0
N  N99  1  0.96708478  0.57182802  0.16606488  1  0  -0.162934  0  3.25215  0  0  -0.10214  0  3.542278  0  0  -0.113045  0  3.559879  0  -0.238809  0  -0.13809  -0.094339  0  3.529835  0
N  N100  1  0.46708454  0.07182620  0.33393895  1  0  -0.162759  0  3.251883  0  0  -0.101952  0  3.541996  0  0  -0.112859  0  3.559597  0  -0.238629  0  -0.138024  -0.094152  0  3.529554  0
N  N101  1  0.03290880  0.42817391  0.83393588  1  0  -0.162944  0  3.251942  0  0  -0.10216  0  3.542075  0  0  -0.113066  0  3.559673  0  -0.238549  0  -0.138032  -0.094357  0  3.529631  0
O  O102  1  0.66947309  0.45226279  0.94280390  1  0  -0.796919  0  1.814557  0  0  -0.743146  0  1.994953  0  0  -0.761612  0  1.966584  0  -1.234655  0  -0.576827  -0.730052  0  2.014779  0
O  O103  1  0.83052664  0.04773646  0.44280466  1  0  -0.79695  0  1.814478  0  0  -0.743188  0  1.994891  0  0  -0.761652  0  1.96652  0  -1.23478  0  -0.576852  -0.730095  0  2.014717  0
O  O104  1  0.33052326  0.54773998  0.05719227  1  0  -0.796985  0  1.814471  0  0  -0.743218  0  1.994934  0  0  -0.761683  0  1.966565  0  -1.234584  0  -0.57682  -0.730123  0  2.014762  0
O  O105  1  0.16947814  0.95225353  0.55719840  1  0  -0.796914  0  1.814679  0  0  -0.743124  0  1.995143  0  0  -0.761589  0  1.966776  0  -1.234484  0  -0.576812  -0.73003  0  2.01497  0
