# generated using pymatgen
data_Tl2H12PtC20N2(OF5)2
_symmetry_space_group_name_H-M   'P 1'
_cell_length_a   7.78824992
_cell_length_b   12.29935549
_cell_length_c   13.65214552
_cell_angle_alpha   101.43290689
_cell_angle_beta   89.99923631
_cell_angle_gamma   89.99983340
_symmetry_Int_Tables_number   1
_chemical_formula_structural   Tl2H12PtC20N2(OF5)2
_chemical_formula_sum   'Tl4 H24 Pt2 C40 N4 O4 F20'
_cell_volume   1281.79627744
_cell_formula_units_Z   2
loop_
 _symmetry_equiv_pos_site_id
 _symmetry_equiv_pos_as_xyz
  1  'x, y, z'
loop_
 _atom_site_type_symbol
 _atom_site_label
 _atom_site_symmetry_multiplicity
 _atom_site_fract_x
 _atom_site_fract_y
 _atom_site_fract_z
 _atom_site_occupancy
 _atom_site_hle17_bader_spin_density
 _atom_site_hle17_ddec_charge
 _atom_site_hle17_ddec_spin_density
 _atom_site_hle17_ddec_sum_bond_order
 _atom_site_hle17_magmom
 _atom_site_hse06_10hf_bader_spin_density
 _atom_site_hse06_10hf_ddec_charge
 _atom_site_hse06_10hf_ddec_spin_density
 _atom_site_hse06_10hf_ddec_sum_bond_order
 _atom_site_hse06_10hf_magmom
 _atom_site_hse06_bader_spin_density
 _atom_site_hse06_ddec_charge
 _atom_site_hse06_ddec_spin_density
 _atom_site_hse06_ddec_sum_bond_order
 _atom_site_hse06_magmom
 _atom_site_pbe_bader_spin_density
 _atom_site_pbe_cm5_charge
 _atom_site_pbe_ddec_charge
 _atom_site_pbe_ddec_spin_density
 _atom_site_pbe_ddec_sum_bond_order
 _atom_site_pbe_magmom
Tl  Tl0  1  0.13112429  0.99994033  0.36011791  1  0  0.834953  0  0.783718  0  0  0.714852  0  1.076235  0  0  0.748372  0  1.04997  0  0  0.408154  0.68986  0  1.095371  0
Tl  Tl1  1  0.63112220  0.00006068  0.13987924  1  0  0.83497  0  0.783722  0  0  0.714863  0  1.076201  0  0  0.748377  0  1.049945  0  0  0.408143  0.689868  0  1.095338  0
Tl  Tl2  1  0.86890155  0.00006375  0.63988088  1  0  0.83483  0  0.784036  0  0  0.714849  0  1.076292  0  0  0.748397  0  1.049982  0  0  0.408161  0.689855  0  1.09543  0
Tl  Tl3  1  0.36890493  0.99993844  0.86011644  1  0  0.834851  0  0.784079  0  0  0.71487  0  1.076349  0  0  0.748418  0  1.050036  0  0  0.408166  0.689876  0  1.095487  0
H  H4  1  0.19227421  0.65604624  0.31203379  1  0  0.138639  0  0.943055  0  0  0.155775  0  1.006204  0  0  0.157352  0  1.005988  0  0  0.097371  0.154621  0  1.006406  0
H  H5  1  0.69225907  0.34394877  0.18795812  1  0  0.138693  0  0.943004  0  0  0.155837  0  1.006178  0  0  0.157402  0  1.005981  0  0  0.097417  0.154685  0  1.006375  0
H  H6  1  0.80772082  0.34395119  0.68796524  1  0  0.138805  0  0.943163  0  0  0.155923  0  1.006319  0  0  0.157502  0  1.006102  0  0  0.097465  0.154771  0  1.006502  0
H  H7  1  0.30772312  0.65604454  0.81203722  1  0  0.138699  0  0.943102  0  0  0.155827  0  1.006255  0  0  0.157407  0  1.006037  0  0  0.097409  0.154673  0  1.006459  0
H  H8  1  0.99126121  0.59430413  0.31997649  1  0  0.141854  0  0.9464  0  0  0.155911  0  1.012765  0  0  0.158043  0  1.011657  0  0  0.095592  0.15434  0  1.013617  0
H  H9  1  0.49124979  0.40569725  0.18001796  1  0  0.142085  0  0.946365  0  0  0.156132  0  1.012683  0  0  0.158262  0  1.011577  0  0  0.095705  0.154566  0  1.01353  0
H  H10  1  0.00872612  0.40569574  0.68003104  1  0  0.141866  0  0.946532  0  0  0.155953  0  1.012854  0  0  0.158085  0  1.011748  0  0  0.095626  0.154379  0  1.013714  0
H  H11  1  0.50873239  0.59429856  0.81997637  1  0  0.141943  0  0.946531  0  0  0.156003  0  1.012862  0  0  0.158132  0  1.011756  0  0  0.095641  0.154434  0  1.013716  0
H  H12  1  0.00263233  0.72423465  0.27944817  1  0  0.141998  0  0.945956  0  0  0.158098  0  1.008271  0  0  0.161094  0  1.006151  0  0  0.096689  0.155938  0  1.009804  0
H  H13  1  0.50261805  0.27576932  0.22054905  1  0  0.14213  0  0.945867  0  0  0.158212  0  1.008207  0  0  0.16121  0  1.006084  0  0  0.096734  0.156054  0  1.009743  0
H  H14  1  0.99735628  0.27576692  0.72055309  1  0  0.141981  0  0.945981  0  0  0.158097  0  1.008281  0  0  0.161093  0  1.006162  0  0  0.096683  0.155938  0  1.009815  0
H  H15  1  0.49736414  0.72422485  0.77944279  1  0  0.142006  0  0.945968  0  0  0.158108  0  1.008287  0  0  0.161104  0  1.006168  0  0  0.096699  0.155951  0  1.009814  0
H  H16  1  0.10120927  0.73127707  0.59074794  1  0  0.14934  0  0.939391  0  0  0.166272  0  0.999385  0  0  0.169434  0  0.996922  0  0  0.099646  0.163983  0  1.001183  0
H  H17  1  0.60119836  0.26871451  0.90924362  1  0  0.149322  0  0.939503  0  0  0.166251  0  0.99949  0  0  0.169413  0  0.997029  0  0  0.099623  0.163958  0  1.001288  0
H  H18  1  0.89879089  0.26873034  0.40925001  1  0  0.149314  0  0.939075  0  0  0.166168  0  0.999263  0  0  0.169333  0  0.996798  0  0  0.099572  0.163879  0  1.001061  0
H  H19  1  0.39879795  0.73127882  0.09074879  1  0  0.149348  0  0.939352  0  0  0.166277  0  0.999348  0  0  0.169441  0  0.996883  0  0  0.099638  0.163986  0  1.00115  0
H  H20  1  0.01820459  0.60399248  0.51941579  1  0  0.138555  0  0.937292  0  0  0.154688  0  1.001484  0  0  0.156548  0  1.000531  0  0  0.097567  0.153341  0  1.002187  0
H  H21  1  0.51819271  0.39600600  0.98058208  1  0  0.138505  0  0.937286  0  0  0.154624  0  1.001507  0  0  0.156485  0  1.000553  0  0  0.097525  0.153272  0  1.002215  0
H  H22  1  0.98180071  0.39601734  0.48059286  1  0  0.138534  0  0.937141  0  0  0.154618  0  1.001391  0  0  0.156479  0  1.000438  0  0  0.097544  0.153264  0  1.002105  0
H  H23  1  0.48179975  0.60399147  0.01941257  1  0  0.138513  0  0.937323  0  0  0.154636  0  1.001528  0  0  0.156497  0  1.000573  0  0  0.097542  0.153288  0  1.002235  0
H  H24  1  0.23134247  0.64218973  0.49966627  1  0  0.132536  0  0.955231  0  0  0.146546  0  1.026023  0  0  0.147199  0  1.02769  0  0  0.093123  0.146042  0  1.024924  0
H  H25  1  0.73133160  0.35780348  0.00032647  1  0  0.132584  0  0.955148  0  0  0.146602  0  1.025924  0  0  0.147255  0  1.027587  0  0  0.093175  0.146093  0  1.02483  0
H  H26  1  0.76865770  0.35782094  0.50034106  1  0  0.132515  0  0.955097  0  0  0.146538  0  1.025867  0  0  0.147191  0  1.027536  0  0  0.093135  0.146032  0  1.02477  0
H  H27  1  0.26866086  0.64219149  0.99966991  1  0  0.13257  0  0.955232  0  0  0.146574  0  1.026026  0  0  0.147226  0  1.027694  0  0  0.093159  0.146067  0  1.024933  0
Pt  Pt28  1  0.00004879  0.99997748  0.00001196  1  0  0.017765  0  3.966502  0  0  0.054779  0  4.537476  0  0  0.036487  0  4.528207  0  0  0.487135  0.070099  0  4.542344  0
Pt  Pt29  1  0.50004880  0.00000525  0.49998053  1  0  0.017658  0  3.966505  0  0  0.054834  0  4.537026  0  0  0.03654  0  4.527767  0  0  0.487252  0.070161  0  4.541869  0
C  C30  1  0.16999359  0.97734264  0.10038021  1  0  0.088881  0  3.698047  0  0  0.063494  0  4.0417  0  0  0.078384  0  4.053808  0  0  -0.014781  0.05289  0  4.032837  0
C  C31  1  0.66999180  0.02265322  0.39962155  1  0  0.08888  0  3.698072  0  0  0.063605  0  4.041491  0  0  0.078498  0  4.053596  0  0  -0.014824  0.053  0  4.032633  0
C  C32  1  0.83003995  0.02266395  0.89961758  1  0  0.088677  0  3.696535  0  0  0.063469  0  4.039836  0  0  0.078345  0  4.051963  0  0  -0.014665  0.052874  0  4.030967  0
C  C33  1  0.33002248  0.97734241  0.60039693  1  0  0.088947  0  3.697211  0  0  0.063753  0  4.040419  0  0  0.078616  0  4.052549  0  0  -0.014471  0.053163  0  4.03157  0
C  C34  1  0.96249707  0.82906590  0.96325652  1  0  -0.296221  0  3.785021  0  0  -0.33143  0  4.141165  0  0  -0.336055  0  4.159626  0  0  -0.172824  -0.328555  0  4.128664  0
C  C35  1  0.46249138  0.17093921  0.53674941  1  0  -0.296514  0  3.784739  0  0  -0.331684  0  4.14078  0  0  -0.336319  0  4.159251  0  0  -0.17281  -0.328785  0  4.128244  0
C  C36  1  0.03752749  0.17094810  0.03674850  1  0  -0.29686  0  3.78416  0  0  -0.33211  0  4.14075  0  0  -0.336769  0  4.159247  0  0  -0.172885  -0.329206  0  4.128198  0
C  C37  1  0.53752676  0.82905733  0.46325751  1  0  -0.296951  0  3.785078  0  0  -0.332045  0  4.141079  0  0  -0.336689  0  4.159564  0  0  -0.172956  -0.329153  0  4.128552  0
C  C38  1  0.97573623  0.77002920  0.86517128  1  0  0.210782  0  3.836265  0  0  0.190162  0  4.13685  0  0  0.198735  0  4.147772  0  0  0.067094  0.183974  0  4.129915  0
C  C39  1  0.47572543  0.22997262  0.63482442  1  0  0.210698  0  3.836561  0  0  0.190095  0  4.137086  0  0  0.198666  0  4.148011  0  0  0.066985  0.183916  0  4.130144  0
C  C40  1  0.02430245  0.22996991  0.13482586  1  0  0.212025  0  3.835893  0  0  0.190478  0  4.137257  0  0  0.199052  0  4.148181  0  0  0.067085  0.184295  0  4.13031  0
C  C41  1  0.52428757  0.77002731  0.36517434  1  0  0.210856  0  3.836677  0  0  0.190257  0  4.137242  0  0  0.198829  0  4.148163  0  0  0.067016  0.184074  0  4.130308  0
C  C42  1  0.93842679  0.65741704  0.83594261  1  0  0.099398  0  3.827047  0  0  0.066453  0  4.128671  0  0  0.073381  0  4.136682  0  0  0.070056  0.061431  0  4.123884  0
C  C43  1  0.43842889  0.34258481  0.66406730  1  0  0.099299  0  3.827095  0  0  0.066426  0  4.12864  0  0  0.073354  0  4.136649  0  0  0.070015  0.061389  0  4.123869  0
C  C44  1  0.06155668  0.34258036  0.16406155  1  0  0.099271  0  3.826895  0  0  0.066113  0  4.129167  0  0  0.073041  0  4.137178  0  0  0.069963  0.061086  0  4.124381  0
C  C45  1  0.56155329  0.65741836  0.33594304  1  0  0.099244  0  3.827525  0  0  0.066302  0  4.129102  0  0  0.073232  0  4.13711  0  0  0.069973  0.061274  0  4.124319  0
C  C46  1  0.88420212  0.59821483  0.90744959  1  0  0.117891  0  3.845091  0  0  0.081644  0  4.158556  0  0  0.088186  0  4.167845  0  0  0.072929  0.076818  0  4.15286  0
C  C47  1  0.38420302  0.40178815  0.59254630  1  0  0.118032  0  3.845319  0  0  0.081738  0  4.158816  0  0  0.088282  0  4.168103  0  0  0.072949  0.076911  0  4.153125  0
C  C48  1  0.11576980  0.40180094  0.09254037  1  0  0.118143  0  3.845093  0  0  0.081906  0  4.158574  0  0  0.08845  0  4.167861  0  0  0.073055  0.077082  0  4.152878  0
C  C49  1  0.61576761  0.59819935  0.40744944  1  0  0.117863  0  3.845215  0  0  0.081702  0  4.158599  0  0  0.088246  0  4.167883  0  0  0.072926  0.076878  0  4.152904  0
C  C50  1  0.87246007  0.65270996  0.00698084  1  0  0.101354  0  3.824  0  0  0.063854  0  4.134735  0  0  0.070678  0  4.142947  0  0  0.067553  0.058906  0  4.129765  0
C  C51  1  0.37247381  0.34729669  0.49303308  1  0  0.101202  0  3.824883  0  0  0.063717  0  4.135648  0  0  0.070538  0  4.143861  0  0  0.067466  0.058771  0  4.130685  0
C  C52  1  0.12751441  0.34730733  0.99302991  1  0  0.101181  0  3.824523  0  0  0.063669  0  4.13537  0  0  0.07049  0  4.143582  0  0  0.06744  0.058719  0  4.130402  0
C  C53  1  0.62752764  0.65269155  0.50697378  1  0  0.101219  0  3.824053  0  0  0.063791  0  4.134779  0  0  0.070614  0  4.142987  0  0  0.067544  0.058843  0  4.129813  0
C  C54  1  0.91328126  0.76519063  0.03226197  1  0  0.210082  0  3.825265  0  0  0.188345  0  4.126173  0  0  0.197029  0  4.137208  0  0  0.06707  0.182111  0  4.119126  0
C  C55  1  0.41327558  0.23482182  0.46773366  1  0  0.210232  0  3.825061  0  0  0.188437  0  4.126055  0  0  0.197122  0  4.137084  0  0  0.067054  0.182188  0  4.119024  0
C  C56  1  0.08674330  0.23483593  0.96772925  1  0  0.210671  0  3.824573  0  0  0.188739  0  4.12575  0  0  0.197428  0  4.136777  0  0  0.067084  0.182503  0  4.118704  0
C  C57  1  0.58673999  0.76517061  0.53226884  1  0  0.210637  0  3.824515  0  0  0.188741  0  4.125641  0  0  0.197426  0  4.136671  0  0  0.067133  0.1825  0  4.118607  0
C  C58  1  0.05666068  0.67502302  0.33064352  1  0  -0.454027  0  3.659565  0  0  -0.528613  0  3.890432  0  0  -0.534934  0  3.896947  0  0  -0.24686  -0.523957  0  3.885857  0
C  C59  1  0.55664735  0.32497743  0.16935336  1  0  -0.454429  0  3.659731  0  0  -0.529052  0  3.890665  0  0  -0.535367  0  3.89718  0  0  -0.247025  -0.5244  0  3.886085  0
C  C60  1  0.94333049  0.32497769  0.66936197  1  0  -0.454213  0  3.659951  0  0  -0.528816  0  3.890885  0  0  -0.535142  0  3.897396  0  0  -0.246991  -0.524156  0  3.886315  0
C  C61  1  0.44333613  0.67501838  0.83064098  1  0  -0.454161  0  3.65988  0  0  -0.528765  0  3.890801  0  0  -0.535087  0  3.897312  0  0  -0.246979  -0.524115  0  3.886217  0
C  C62  1  0.04100752  0.73477628  0.43760993  1  0  0.60721  0  3.624925  0  0  0.602966  0  3.886413  0  0  0.622293  0  3.89437  0  0  0.173315  0.589678  0  3.880603  0
C  C63  1  0.54099823  0.26522834  0.06239224  1  0  0.607277  0  3.624513  0  0  0.603049  0  3.885991  0  0  0.622379  0  3.893939  0  0  0.173223  0.589767  0  3.880173  0
C  C64  1  0.95899393  0.26523352  0.56240237  1  0  0.607296  0  3.624498  0  0  0.602944  0  3.886159  0  0  0.622277  0  3.894118  0  0  0.173246  0.589665  0  3.880335  0
C  C65  1  0.45899423  0.73476663  0.93760341  1  0  0.607017  0  3.62489  0  0  0.602823  0  3.886314  0  0  0.622149  0  3.894275  0  0  0.17322  0.589542  0  3.880488  0
C  C66  1  0.10174182  0.67571787  0.51747666  1  0  -0.442495  0  3.646797  0  0  -0.518585  0  3.878119  0  0  -0.524227  0  3.884032  0  0  -0.24633  -0.514444  0  3.873964  0
C  C67  1  0.60172895  0.32427702  0.98251624  1  0  -0.442448  0  3.64685  0  0  -0.518549  0  3.878178  0  0  -0.52419  0  3.884089  0  0  -0.246286  -0.514411  0  3.874027  0
C  C68  1  0.89826348  0.32428781  0.48253049  1  0  -0.442321  0  3.646244  0  0  -0.518378  0  3.877673  0  0  -0.524026  0  3.883592  0  0  -0.246222  -0.514235  0  3.873524  0
C  C69  1  0.39826222  0.67571796  0.01747795  1  0  -0.442434  0  3.646825  0  0  -0.518531  0  3.878128  0  0  -0.524175  0  3.884043  0  0  -0.246318  -0.514389  0  3.873976  0
N  N70  1  0.27190287  0.96170269  0.15979094  1  0  -0.526376  0  2.889169  0  0  -0.464674  0  3.158169  0  0  -0.486607  0  3.171778  0  0  -0.374624  -0.449052  0  3.14849  0
N  N71  1  0.77190623  0.03827790  0.34020210  1  0  -0.526374  0  2.888695  0  0  -0.464797  0  3.157825  0  0  -0.486729  0  3.171429  0  0  -0.374627  -0.449179  0  3.148165  0
N  N72  1  0.72811398  0.03829148  0.84020016  1  0  -0.5264  0  2.88901  0  0  -0.464614  0  3.157794  0  0  -0.486557  0  3.171422  0  0  -0.374522  -0.448986  0  3.148101  0
N  N73  1  0.22811704  0.96171868  0.65979971  1  0  -0.52656  0  2.890214  0  0  -0.464777  0  3.159037  0  0  -0.486713  0  3.172655  0  0  -0.37465  -0.449157  0  3.149368  0
O  O74  1  0.98026042  0.82949019  0.45849601  1  0  -0.551229  0  1.968491  0  0  -0.489322  0  2.184339  0  0  -0.51582  0  2.187894  0  0  -0.255474  -0.47079  0  2.18176  0
O  O75  1  0.48024564  0.17050458  0.04149951  1  0  -0.551301  0  1.967956  0  0  -0.489377  0  2.183773  0  0  -0.515878  0  2.187324  0  0  -0.255445  -0.470848  0  2.181182  0
O  O76  1  0.01975515  0.17051557  0.54150017  1  0  -0.551317  0  1.967973  0  0  -0.489331  0  2.183822  0  0  -0.515836  0  2.187381  0  0  -0.255421  -0.470803  0  2.181235  0
O  O77  1  0.51975709  0.82948461  0.95849141  1  0  -0.55117  0  1.968245  0  0  -0.489229  0  2.183995  0  0  -0.515733  0  2.187554  0  0  -0.255385  -0.470695  0  2.181397  0
F  F78  1  0.02869237  0.82202771  0.79063942  1  0  -0.19388  0  1.249074  0  0  -0.145995  0  1.423824  0  0  -0.156075  0  1.415121  0  0  -0.091148  -0.138621  0  1.429796  0
F  F79  1  0.52867369  0.17797319  0.70936320  1  0  -0.193866  0  1.248916  0  0  -0.145991  0  1.423647  0  0  -0.156072  0  1.414944  0  0  -0.091162  -0.138622  0  1.429616  0
F  F80  1  0.97135530  0.17796138  0.20936540  1  0  -0.196413  0  1.250349  0  0  -0.146143  0  1.423421  0  0  -0.156217  0  1.414714  0  0  -0.091192  -0.138774  0  1.429392  0
F  F81  1  0.47134188  0.82203499  0.29064294  1  0  -0.193835  0  1.248996  0  0  -0.145958  0  1.423737  0  0  -0.156034  0  1.415033  0  0  -0.091087  -0.138585  0  1.429707  0
F  F82  1  0.95350460  0.60475743  0.73903862  1  0  -0.149046  0  1.240325  0  0  -0.106007  0  1.407515  0  0  -0.113229  0  1.396859  0  0  -0.086376  -0.100773  0  1.414928  0
F  F83  1  0.45349907  0.39524279  0.76095989  1  0  -0.148909  0  1.240746  0  0  -0.105898  0  1.407929  0  0  -0.113119  0  1.397276  0  0  -0.086283  -0.100662  0  1.415347  0
F  F84  1  0.04648273  0.39523678  0.26094736  1  0  -0.148701  0  1.240907  0  0  -0.105762  0  1.408323  0  0  -0.112983  0  1.397671  0  0  -0.086319  -0.100532  0  1.415739  0
F  F85  1  0.54646129  0.60475789  0.23904927  1  0  -0.148914  0  1.240674  0  0  -0.105879  0  1.407858  0  0  -0.113101  0  1.397202  0  0  -0.086314  -0.100645  0  1.415272  0
F  F86  1  0.84155126  0.48968090  0.88046226  1  0  -0.153205  0  1.254969  0  0  -0.09723  0  1.41424  0  0  -0.105517  0  1.405283  0  0  -0.079581  -0.091219  0  1.420442  0
F  F87  1  0.34157156  0.51032384  0.61954014  1  0  -0.153202  0  1.254945  0  0  -0.097239  0  1.414253  0  0  -0.105527  0  1.405297  0  0  -0.07956  -0.091226  0  1.420455  0
F  F88  1  0.15836801  0.51033569  0.11952932  1  0  -0.153237  0  1.255074  0  0  -0.097276  0  1.414362  0  0  -0.105564  0  1.405405  0  0  -0.079575  -0.091265  0  1.420564  0
F  F89  1  0.65837982  0.48966192  0.38046480  1  0  -0.153086  0  1.254946  0  0  -0.097201  0  1.414244  0  0  -0.105489  0  1.405287  0  0  -0.07952  -0.091188  0  1.420444  0
F  F90  1  0.81773209  0.59600973  0.07692976  1  0  -0.156785  0  1.240512  0  0  -0.110497  0  1.404123  0  0  -0.117831  0  1.394249  0  0  -0.090649  -0.105159  0  1.410962  0
F  F91  1  0.31774845  0.40399388  0.42307376  1  0  -0.156831  0  1.240502  0  0  -0.110506  0  1.40408  0  0  -0.117839  0  1.394207  0  0  -0.090643  -0.105168  0  1.41092  0
F  F92  1  0.18221800  0.40400931  0.92306886  1  0  -0.156882  0  1.240209  0  0  -0.110498  0  1.403774  0  0  -0.117832  0  1.3939  0  0  -0.090586  -0.105161  0  1.410614  0
F  F93  1  0.68223759  0.59598941  0.57692925  1  0  -0.156794  0  1.24028  0  0  -0.110503  0  1.403869  0  0  -0.117838  0  1.393994  0  0  -0.090614  -0.105166  0  1.410708  0
F  F94  1  0.89614264  0.81246700  0.13168914  1  0  -0.198525  0  1.235479  0  0  -0.144008  0  1.403413  0  0  -0.154568  0  1.394443  0  0  -0.091174  -0.136334  0  1.409625  0
F  F95  1  0.39614462  0.18753302  0.36831092  1  0  -0.198511  0  1.235445  0  0  -0.143978  0  1.403412  0  0  -0.154539  0  1.394442  0  0  -0.091153  -0.136305  0  1.409626  0
F  F96  1  0.10387935  0.18753877  0.86830630  1  0  -0.198564  0  1.235214  0  0  -0.144024  0  1.403236  0  0  -0.154588  0  1.394266  0  0  -0.091148  -0.136353  0  1.409449  0
F  F97  1  0.60388636  0.81246018  0.63169832  1  0  -0.198638  0  1.235095  0  0  -0.144122  0  1.403108  0  0  -0.154685  0  1.394139  0  0  -0.091228  -0.136449  0  1.409323  0
