# generated using pymatgen
data_GdH12C10NO8
_symmetry_space_group_name_H-M   'P 1'
_cell_length_a   9.26022598
_cell_length_b   10.65535602
_cell_length_c   13.24861176
_cell_angle_alpha   89.99963763
_cell_angle_beta   93.90850699
_cell_angle_gamma   90.00038207
_symmetry_Int_Tables_number   1
_chemical_formula_structural   GdH12C10NO8
_chemical_formula_sum   'Gd4 H48 C40 N4 O32'
_cell_volume   1304.21338109
_cell_formula_units_Z   4
loop_
 _symmetry_equiv_pos_site_id
 _symmetry_equiv_pos_as_xyz
  1  'x, y, z'
loop_
 _atom_site_type_symbol
 _atom_site_label
 _atom_site_symmetry_multiplicity
 _atom_site_fract_x
 _atom_site_fract_y
 _atom_site_fract_z
 _atom_site_occupancy
 _atom_site_hle17_bader_spin_density
 _atom_site_hle17_ddec_charge
 _atom_site_hle17_ddec_spin_density
 _atom_site_hle17_ddec_sum_bond_order
 _atom_site_hle17_magmom
 _atom_site_hse06_10hf_bader_spin_density
 _atom_site_hse06_10hf_ddec_charge
 _atom_site_hse06_10hf_ddec_spin_density
 _atom_site_hse06_10hf_ddec_sum_bond_order
 _atom_site_hse06_10hf_magmom
 _atom_site_hse06_bader_spin_density
 _atom_site_hse06_ddec_charge
 _atom_site_hse06_ddec_spin_density
 _atom_site_hse06_ddec_sum_bond_order
 _atom_site_hse06_magmom
 _atom_site_pbe_bader_spin_density
 _atom_site_pbe_cm5_charge
 _atom_site_pbe_ddec_charge
 _atom_site_pbe_ddec_spin_density
 _atom_site_pbe_ddec_sum_bond_order
 _atom_site_pbe_magmom
Gd  Gd0  1  0.59617749  0.26310821  0.63876298  1  0  2.207975  0  1.748968  0  0  2.119416  0  2.097649  0  0  2.17164  0  2.045466  0  0  1.461125  2.077712  0  2.142215  0
Gd  Gd1  1  0.90381866  0.76310568  0.36123758  1  0  2.207886  0  1.749  0  0  2.119384  0  2.097613  0  0  2.17156  0  2.045511  0  0  1.461149  2.077726  0  2.142112  0
Gd  Gd2  1  0.40382029  0.73689113  0.36123797  1  0  2.207884  0  1.749005  0  0  2.119402  0  2.097582  0  0  2.171595  0  2.045454  0  0  1.461176  2.077723  0  2.14211  0
Gd  Gd3  1  0.09618018  0.23689553  0.63876040  1  0  2.207888  0  1.748911  0  0  2.119419  0  2.097437  0  0  2.171623  0  2.045285  0  0  1.461136  2.077717  0  2.142003  0
H  H4  1  0.05292022  0.21006434  0.98683241  1  0  0.112518  0  0.955863  0  0  0.119519  0  1.019968  0  0  0.122586  0  1.019891  0  0  0.108637  0.117147  0  1.020543  0
H  H5  1  0.44707898  0.71006198  0.01316679  1  0  0.112548  0  0.955894  0  0  0.119542  0  1.020005  0  0  0.122611  0  1.019925  0  0  0.108631  0.117173  0  1.020581  0
H  H6  1  0.94707971  0.78993312  0.01316637  1  0  0.112484  0  0.955939  0  0  0.119504  0  1.020024  0  0  0.122573  0  1.019945  0  0  0.108611  0.117132  0  1.020598  0
H  H7  1  0.55292530  0.28993641  0.98683596  1  0  0.112497  0  0.955855  0  0  0.1195  0  1.019971  0  0  0.122569  0  1.019891  0  0  0.108631  0.117129  0  1.020546  0
H  H8  1  0.64084916  0.05265171  0.88558930  1  0  0.125748  0  0.943928  0  0  0.132082  0  1.008463  0  0  0.136312  0  1.005957  0  0  0.117096  0.128858  0  1.010821  0
H  H9  1  0.85915088  0.55265368  0.11441099  1  0  0.125729  0  0.94406  0  0  0.132054  0  1.008587  0  0  0.136283  0  1.006086  0  0  0.117119  0.12883  0  1.010944  0
H  H10  1  0.35915190  0.94734575  0.11441632  1  0  0.125686  0  0.944058  0  0  0.132026  0  1.008577  0  0  0.13626  0  1.006068  0  0  0.117081  0.128801  0  1.010934  0
H  H11  1  0.14085122  0.44734284  0.88558789  1  0  0.125782  0  0.944034  0  0  0.132108  0  1.008555  0  0  0.13634  0  1.006049  0  0  0.117117  0.128883  0  1.010914  0
H  H12  1  0.61824155  0.97395210  0.06502380  1  0  0.075821  0  0.932635  0  0  0.086898  0  0.991465  0  0  0.089186  0  0.990197  0  0  0.116344  0.085012  0  0.992939  0
H  H13  1  0.88175612  0.47395582  0.93497425  1  0  0.075837  0  0.932647  0  0  0.086927  0  0.991465  0  0  0.089215  0  0.990197  0  0  0.116364  0.085037  0  0.992945  0
H  H14  1  0.38175732  0.02604912  0.93497795  1  0  0.075809  0  0.932632  0  0  0.086892  0  0.991458  0  0  0.089181  0  0.99019  0  0  0.116346  0.085008  0  0.992931  0
H  H15  1  0.11824273  0.52604351  0.06502524  1  0  0.075846  0  0.932649  0  0  0.086931  0  0.991466  0  0  0.08922  0  0.990198  0  0  0.116354  0.085042  0  0.992945  0
H  H16  1  0.01085962  0.13266695  0.16231084  1  0  0.074872  0  0.937615  0  0  0.087323  0  0.99475  0  0  0.089431  0  0.993564  0  0  0.117771  0.085711  0  0.995825  0
H  H17  1  0.48914011  0.63266868  0.83768953  1  0  0.074812  0  0.937664  0  0  0.087264  0  0.994803  0  0  0.089372  0  0.993616  0  0  0.117769  0.085656  0  0.995876  0
H  H18  1  0.98914249  0.86733145  0.83768955  1  0  0.074848  0  0.937659  0  0  0.087295  0  0.994802  0  0  0.089404  0  0.993616  0  0  0.117769  0.085684  0  0.995875  0
H  H19  1  0.51086093  0.36733254  0.16231458  1  0  0.074794  0  0.937596  0  0  0.087222  0  0.994759  0  0  0.089333  0  0.993573  0  0  0.117743  0.085612  0  0.995834  0
H  H20  1  0.82902687  0.45563721  0.68840352  1  0  0.445887  0  0.849862  0  0  0.41674  0  0.910401  0  0  0.427367  0  0.894807  0  0  0.30225  0.409211  0  0.921474  0
H  H21  1  0.67097175  0.95563561  0.31159542  1  0  0.445889  0  0.849866  0  0  0.416747  0  0.910398  0  0  0.427375  0  0.894798  0  0  0.302229  0.409217  0  0.92147  0
H  H22  1  0.17097198  0.54436494  0.31159672  1  0  0.445887  0  0.849867  0  0  0.416738  0  0.91041  0  0  0.427367  0  0.89481  0  0  0.30222  0.409211  0  0.92148  0
H  H23  1  0.32902495  0.04436373  0.68840548  1  0  0.445829  0  0.849966  0  0  0.416683  0  0.910499  0  0  0.42731  0  0.894904  0  0  0.302218  0.409155  0  0.921569  0
H  H24  1  0.70686255  0.48543659  0.76538575  1  0  0.390466  0  0.931457  0  0  0.348394  0  1.014019  0  0  0.359981  0  0.99751  0  0  0.283746  0.34021  0  1.025672  0
H  H25  1  0.79313304  0.98543442  0.23461365  1  0  0.390468  0  0.93147  0  0  0.348388  0  1.014047  0  0  0.359974  0  0.997539  0  0  0.28374  0.340206  0  1.025698  0
H  H26  1  0.29313522  0.51456462  0.23461520  1  0  0.390525  0  0.931377  0  0  0.348438  0  1.013969  0  0  0.360024  0  0.99746  0  0  0.283774  0.340255  0  1.02562  0
H  H27  1  0.20686474  0.01456397  0.76538729  1  0  0.390485  0  0.931437  0  0  0.348408  0  1.014006  0  0  0.359997  0  0.997495  0  0  0.283752  0.340227  0  1.025655  0
H  H28  1  0.98285489  0.30612903  0.39391229  1  0  0.125508  0  0.928482  0  0  0.133743  0  0.984476  0  0  0.137536  0  0.982585  0  0  0.119866  0.13105  0  0.985963  0
H  H29  1  0.51714589  0.80612891  0.60608674  1  0  0.125529  0  0.928505  0  0  0.133759  0  0.98449  0  0  0.137553  0  0.982598  0  0  0.119865  0.131063  0  0.985977  0
H  H30  1  0.01714395  0.69387312  0.60608568  1  0  0.125576  0  0.928497  0  0  0.133799  0  0.984477  0  0  0.137572  0  0.982613  0  0  0.119877  0.131104  0  0.985963  0
H  H31  1  0.48285188  0.19387136  0.39391345  1  0  0.125499  0  0.928488  0  0  0.133706  0  0.984495  0  0  0.137519  0  0.982582  0  0  0.119861  0.131013  0  0.985982  0
H  H32  1  0.34651208  0.43968651  0.58106646  1  0  0.439151  0  0.862025  0  0  0.407839  0  0.926629  0  0  0.418148  0  0.911627  0  0  0.306347  0.400591  0  0.937186  0
H  H33  1  0.15348554  0.93968584  0.41893226  1  0  0.439193  0  0.861967  0  0  0.407897  0  0.926544  0  0  0.418206  0  0.911542  0  0  0.30638  0.400647  0  0.937105  0
H  H34  1  0.65348678  0.56031376  0.41893303  1  0  0.439166  0  0.862011  0  0  0.407867  0  0.926594  0  0  0.418176  0  0.911593  0  0  0.306371  0.400619  0  0.937152  0
H  H35  1  0.84651332  0.06031537  0.58106798  1  0  0.43917  0  0.862001  0  0  0.407871  0  0.926584  0  0  0.41818  0  0.911583  0  0  0.306368  0.400621  0  0.937145  0
H  H36  1  0.47540072  0.53352417  0.58803038  1  0  0.453439  0  0.811865  0  0  0.431219  0  0.867808  0  0  0.440505  0  0.854089  0  0  0.323732  0.424456  0  0.877837  0
H  H37  1  0.02459936  0.03352244  0.41196900  1  0  0.45338  0  0.811813  0  0  0.431147  0  0.867889  0  0  0.440433  0  0.854169  0  0  0.323704  0.424385  0  0.877915  0
H  H38  1  0.52459707  0.46647610  0.41197132  1  0  0.453371  0  0.81182  0  0  0.43114  0  0.867894  0  0  0.440427  0  0.854174  0  0  0.323707  0.424378  0  0.877922  0
H  H39  1  0.97540057  0.96647784  0.58803129  1  0  0.453377  0  0.811804  0  0  0.431144  0  0.86789  0  0  0.440431  0  0.85417  0  0  0.323704  0.424383  0  0.877916  0
H  H40  1  0.86413374  0.33599604  0.22100595  1  0  0.099235  0  0.955659  0  0  0.117409  0  1.022006  0  0  0.119433  0  1.021675  0  0  0.086434  0.115877  0  1.022349  0
H  H41  1  0.63586401  0.83599618  0.77899205  1  0  0.099229  0  0.95566  0  0  0.1174  0  1.022013  0  0  0.119425  0  1.021682  0  0  0.086428  0.11587  0  1.022354  0
H  H42  1  0.13586294  0.66400236  0.77899118  1  0  0.099205  0  0.955706  0  0  0.117426  0  1.021995  0  0  0.119452  0  1.021663  0  0  0.086456  0.115888  0  1.022342  0
H  H43  1  0.36413484  0.16400409  0.22100668  1  0  0.09923  0  0.955679  0  0  0.117392  0  1.022034  0  0  0.119415  0  1.021705  0  0  0.086431  0.115866  0  1.022369  0
H  H44  1  0.69377752  0.36152053  0.27291225  1  0  0.100574  0  0.958324  0  0  0.119611  0  1.023087  0  0  0.12181  0  1.021811  0  0  0.087978  0.117895  0  1.02421  0
H  H45  1  0.80622258  0.86151926  0.72708723  1  0  0.100578  0  0.958287  0  0  0.119614  0  1.023058  0  0  0.121813  0  1.021782  0  0  0.087975  0.117895  0  1.024184  0
H  H46  1  0.30622133  0.63848068  0.72708723  1  0  0.100592  0  0.958294  0  0  0.119615  0  1.02308  0  0  0.121813  0  1.021805  0  0  0.087987  0.117899  0  1.024203  0
H  H47  1  0.19377627  0.13848008  0.27291226  1  0  0.100563  0  0.958363  0  0  0.119595  0  1.023124  0  0  0.121795  0  1.021847  0  0  0.087982  0.117878  0  1.024246  0
H  H48  1  0.77712182  0.21104523  0.28328445  1  0  0.111238  0  0.952372  0  0  0.131434  0  1.012909  0  0  0.133616  0  1.012073  0  0  0.091663  0.129827  0  1.01361  0
H  H49  1  0.72287611  0.71104450  0.71671494  1  0  0.11121  0  0.952417  0  0  0.131398  0  1.012969  0  0  0.13358  0  1.012135  0  0  0.091637  0.129792  0  1.013671  0
H  H50  1  0.22287704  0.78895692  0.71671579  1  0  0.111212  0  0.952366  0  0  0.131412  0  1.012908  0  0  0.133595  0  1.012071  0  0  0.091644  0.129804  0  1.013608  0
H  H51  1  0.27712274  0.28895578  0.28328455  1  0  0.111246  0  0.952384  0  0  0.131419  0  1.012943  0  0  0.133602  0  1.012106  0  0  0.091645  0.129813  0  1.013644  0
C  C52  1  0.87025659  0.17738615  0.81719887  1  0  0.709986  0  3.877096  0  0  0.664746  0  4.170223  0  0  0.699652  0  4.158477  0  0  0.23797  0.640788  0  4.177113  0
C  C53  1  0.62974978  0.67738626  0.18280409  1  0  0.710074  0  3.877092  0  0  0.664834  0  4.17027  0  0  0.699771  0  4.158467  0  0  0.23792  0.640877  0  4.177161  0
C  C54  1  0.12974769  0.82261506  0.18280388  1  0  0.710069  0  3.877073  0  0  0.664826  0  4.17033  0  0  0.699768  0  4.158517  0  0  0.237926  0.640868  0  4.177221  0
C  C55  1  0.37025016  0.32260745  0.81719544  1  0  0.710111  0  3.877081  0  0  0.664815  0  4.170334  0  0  0.699754  0  4.158533  0  0  0.237905  0.64086  0  4.177225  0
C  C56  1  0.84914025  0.13634622  0.92417962  1  0  -0.011967  0  3.713713  0  0  0.006877  0  3.942547  0  0  0.004041  0  3.962648  0  0  0.006051  0.008687  0  3.92897  0
C  C57  1  0.65086362  0.63635104  0.07581890  1  0  -0.012164  0  3.713712  0  0  0.006595  0  3.942678  0  0  0.003747  0  3.962773  0  0  0.006002  0.008407  0  3.929097  0
C  C58  1  0.15086402  0.86365500  0.07582161  1  0  -0.012088  0  3.713668  0  0  0.006526  0  3.942872  0  0  0.003674  0  3.962968  0  0  0.005975  0.00834  0  3.929289  0
C  C59  1  0.34913957  0.36364830  0.92418304  1  0  -0.012113  0  3.713629  0  0  0.006681  0  3.942572  0  0  0.003832  0  3.962667  0  0  0.006042  0.008493  0  3.928993  0
C  C60  1  0.95435494  0.16002744  0.00250027  1  0  -0.130816  0  3.731521  0  0  -0.153392  0  3.981163  0  0  -0.158374  0  4.003266  0  0  -0.079283  -0.150079  0  3.966551  0
C  C61  1  0.54565021  0.66003379  0.99750121  1  0  -0.130824  0  3.731673  0  0  -0.153362  0  3.981327  0  0  -0.158344  0  4.003431  0  0  -0.079221  -0.15005  0  3.966717  0
C  C62  1  0.04564715  0.83996721  0.99749861  1  0  -0.130785  0  3.731646  0  0  -0.153295  0  3.981343  0  0  -0.158276  0  4.003447  0  0  -0.07922  -0.149981  0  3.966728  0
C  C63  1  0.45435192  0.33996836  0.00250219  1  0  -0.130771  0  3.731617  0  0  -0.153336  0  3.981258  0  0  -0.158317  0  4.003364  0  0  -0.079277  -0.150023  0  3.966645  0
C  C64  1  0.72427290  0.07047186  0.94598166  1  0  -0.126718  0  3.710771  0  0  -0.149666  0  3.961807  0  0  -0.154077  0  3.981774  0  0  -0.074595  -0.146757  0  3.94885  0
C  C65  1  0.77572942  0.57046913  0.05401713  1  0  -0.126546  0  3.710765  0  0  -0.149435  0  3.961821  0  0  -0.153847  0  3.981792  0  0  -0.074557  -0.146527  0  3.948861  0
C  C66  1  0.27573029  0.92953030  0.05401878  1  0  -0.126492  0  3.710772  0  0  -0.149355  0  3.961842  0  0  -0.153767  0  3.981814  0  0  -0.074487  -0.146448  0  3.948883  0
C  C67  1  0.22427159  0.42953021  0.94598245  1  0  -0.12672  0  3.710758  0  0  -0.149616  0  3.961791  0  0  -0.154028  0  3.98176  0  0  -0.074615  -0.146707  0  3.948834  0
C  C68  1  0.71192980  0.02837353  0.04455166  1  0  0.105249  0  3.733883  0  0  0.078611  0  3.986893  0  0  0.082975  0  4.005154  0  0  0.045841  0.075827  0  3.97465  0
C  C69  1  0.78807004  0.52837693  0.95544572  1  0  0.105186  0  3.733759  0  0  0.078524  0  3.986806  0  0  0.082888  0  4.005068  0  0  0.045808  0.075742  0  3.974565  0
C  C70  1  0.28806577  0.97162299  0.95544164  1  0  0.105287  0  3.734037  0  0  0.07864  0  3.987045  0  0  0.083006  0  4.005307  0  0  0.045872  0.075852  0  3.974803  0
C  C71  1  0.21193206  0.47162616  0.04455467  1  0  0.105115  0  3.733671  0  0  0.07846  0  3.986712  0  0  0.082826  0  4.004972  0  0  0.04576  0.075678  0  3.97447  0
C  C72  1  0.93129596  0.11625558  0.09904678  1  0  0.116885  0  3.732027  0  0  0.08811  0  3.99012  0  0  0.092285  0  4.009214  0  0  0.05009  0.085598  0  3.976875  0
C  C73  1  0.56870237  0.61626189  0.90095386  1  0  0.117027  0  3.732073  0  0  0.088256  0  3.990162  0  0  0.092433  0  4.009255  0  0  0.050097  0.08574  0  3.976924  0
C  C74  1  0.06870507  0.88374001  0.90095506  1  0  0.116968  0  3.732232  0  0  0.088195  0  3.990318  0  0  0.092368  0  4.009413  0  0  0.050065  0.085684  0  3.977072  0
C  C75  1  0.43129759  0.38373463  0.09904945  1  0  0.117091  0  3.731853  0  0  0.088348  0  3.989927  0  0  0.092521  0  4.009024  0  0  0.050192  0.085833  0  3.976684  0
C  C76  1  0.87646957  0.35220418  0.38446305  1  0  -0.230562  0  3.629673  0  0  -0.226659  0  3.864959  0  0  -0.236957  0  3.874298  0  0  -0.085185  -0.219778  0  3.858551  0
C  C77  1  0.62353046  0.85220366  0.61553648  1  0  -0.230705  0  3.629892  0  0  -0.226782  0  3.865164  0  0  -0.237087  0  3.874497  0  0  -0.085246  -0.219902  0  3.858749  0
C  C78  1  0.12352927  0.64779891  0.61553417  1  0  -0.23074  0  3.629947  0  0  -0.226844  0  3.865243  0  0  -0.237125  0  3.874578  0  0  -0.085268  -0.219966  0  3.858829  0
C  C79  1  0.37646838  0.14779380  0.38446225  1  0  -0.230489  0  3.629608  0  0  -0.226557  0  3.864863  0  0  -0.236876  0  3.874195  0  0  -0.085172  -0.219679  0  3.858452  0
C  C80  1  0.79154915  0.31785935  0.47471101  1  0  0.741995  0  3.76846  0  0  0.694118  0  4.066794  0  0  0.729743  0  4.055657  0  0  0.228316  0.669543  0  4.073617  0
C  C81  1  0.70844957  0.81785722  0.52528939  1  0  0.741973  0  3.768901  0  0  0.694082  0  4.067212  0  0  0.729732  0  4.056041  0  0  0.228309  0.669523  0  4.074017  0
C  C82  1  0.20844970  0.68214468  0.52528772  1  0  0.741755  0  3.768872  0  0  0.693951  0  4.067047  0  0  0.729577  0  4.055903  0  0  0.228267  0.669393  0  4.07385  0
C  C83  1  0.29154604  0.18214118  0.47470996  1  0  0.741889  0  3.768591  0  0  0.69395  0  4.067015  0  0  0.729598  0  4.05585  0  0  0.228237  0.66939  0  4.073818  0
C  C84  1  0.90533244  0.49323288  0.38233686  1  0  0.712178  0  3.793809  0  0  0.658682  0  4.102459  0  0  0.692196  0  4.09535  0  0  0.217377  0.636382  0  4.106288  0
C  C85  1  0.59466753  0.99323218  0.61766270  1  0  0.712069  0  3.793964  0  0  0.658582  0  4.10258  0  0  0.692098  0  4.095478  0  0  0.217282  0.636282  0  4.1064  0
C  C86  1  0.09466747  0.50677021  0.61765965  1  0  0.712109  0  3.79379  0  0  0.658598  0  4.102445  0  0  0.692113  0  4.095338  0  0  0.217321  0.636298  0  4.106265  0
C  C87  1  0.40533348  0.00676716  0.38233689  1  0  0.711981  0  3.794066  0  0  0.658565  0  4.102573  0  0  0.692083  0  4.095471  0  0  0.217305  0.636265  0  4.106395  0
C  C88  1  0.79782178  0.31238400  0.28384217  1  0  -0.267795  0  3.674365  0  0  -0.349758  0  3.917916  0  0  -0.351161  0  3.926381  0  0  -0.24172  -0.348337  0  3.912002  0
C  C89  1  0.70217689  0.81238315  0.71615749  1  0  -0.267738  0  3.674408  0  0  -0.349698  0  3.91796  0  0  -0.351103  0  3.926429  0  0  -0.241698  -0.348279  0  3.912045  0
C  C90  1  0.20217707  0.68761722  0.71615656  1  0  -0.267709  0  3.674371  0  0  -0.349703  0  3.917916  0  0  -0.351106  0  3.926372  0  0  -0.241722  -0.348277  0  3.912004  0
C  C91  1  0.29781979  0.18761619  0.28384114  1  0  -0.267805  0  3.674413  0  0  -0.349739  0  3.917972  0  0  -0.351143  0  3.926441  0  0  -0.241725  -0.348326  0  3.912054  0
N  N92  1  0.81313949  0.05073693  0.11994273  1  0  -0.29051  0  3.171558  0  0  -0.229364  0  3.416914  0  0  -0.241422  0  3.432521  0  0  -0.296741  -0.220993  0  3.405963  0
N  N93  1  0.68685725  0.55074221  0.88005289  1  0  -0.290624  0  3.17152  0  0  -0.229493  0  3.416916  0  0  -0.241554  0  3.432524  0  0  -0.296809  -0.221123  0  3.405967  0
N  N94  1  0.18686261  0.94925959  0.88005766  1  0  -0.290721  0  3.171975  0  0  -0.229572  0  3.417346  0  0  -0.241633  0  3.432954  0  0  -0.296814  -0.221203  0  3.406396  0
N  N95  1  0.31314485  0.44925994  0.11994674  1  0  -0.290601  0  3.171296  0  0  -0.22945  0  3.416669  0  0  -0.241511  0  3.432279  0  0  -0.296798  -0.221079  0  3.405716  0
O  O96  1  0.76101707  0.17203853  0.75502096  1  0  -0.72924  0  2.144824  0  0  -0.687445  0  2.402613  0  0  -0.713489  0  2.392694  0  0  -0.396993  -0.668393  0  2.409712  0
O  O97  1  0.73898271  0.67203409  0.24497342  1  0  -0.729203  0  2.1451  0  0  -0.6874  0  2.402868  0  0  -0.713441  0  2.392929  0  0  -0.396922  -0.66836  0  2.409972  0
O  O98  1  0.23898175  0.82796268  0.24497324  1  0  -0.729157  0  2.14511  0  0  -0.687357  0  2.402917  0  0  -0.713406  0  2.392978  0  0  -0.396904  -0.668314  0  2.410018  0
O  O99  1  0.26102698  0.32796243  0.75502805  1  0  -0.729103  0  2.145304  0  0  -0.687314  0  2.403121  0  0  -0.713362  0  2.393183  0  0  -0.396855  -0.668271  0  2.410225  0
O  O100  1  0.99616953  0.21200111  0.79736528  1  0  -0.695632  0  2.0156  0  0  -0.658846  0  2.265927  0  0  -0.683518  0  2.255358  0  0  -0.381607  -0.640878  0  2.273277  0
O  O101  1  0.50383060  0.71199376  0.20263873  1  0  -0.695666  0  2.015521  0  0  -0.65886  0  2.265835  0  0  -0.683545  0  2.255253  0  0  -0.381626  -0.640898  0  2.273196  0
O  O102  1  0.00382935  0.78800386  0.20263874  1  0  -0.695704  0  2.015413  0  0  -0.658888  0  2.265777  0  0  -0.68357  0  2.255191  0  0  -0.381647  -0.640924  0  2.273121  0
O  O103  1  0.49618019  0.28801026  0.79736581  1  0  -0.69574  0  2.015341  0  0  -0.658909  0  2.26572  0  0  -0.683594  0  2.255123  0  0  -0.381627  -0.640934  0  2.273061  0
O  O104  1  0.85946203  0.28549052  0.55796906  1  0  -0.767871  0  2.092385  0  0  -0.725847  0  2.356135  0  0  -0.752232  0  2.344924  0  0  -0.387417  -0.706072  0  2.362924  0
O  O105  1  0.64053321  0.78548865  0.44203361  1  0  -0.767788  0  2.09262  0  0  -0.725755  0  2.356374  0  0  -0.752149  0  2.345156  0  0  -0.387304  -0.705991  0  2.363157  0
O  O106  1  0.14053465  0.71451257  0.44203033  1  0  -0.767703  0  2.092556  0  0  -0.725722  0  2.356315  0  0  -0.7521  0  2.345102  0  0  -0.387313  -0.705961  0  2.363098  0
O  O107  1  0.35946456  0.21450881  0.55796583  1  0  -0.767827  0  2.092344  0  0  -0.725766  0  2.356115  0  0  -0.752166  0  2.344899  0  0  -0.387366  -0.705996  0  2.362897  0
O  O108  1  0.65372416  0.32159513  0.46779660  1  0  -0.702384  0  2.000814  0  0  -0.65488  0  2.239489  0  0  -0.679955  0  2.228143  0  0  -0.367245  -0.637057  0  2.247481  0
O  O109  1  0.84627241  0.82159092  0.53220293  1  0  -0.702308  0  2.000876  0  0  -0.654861  0  2.239652  0  0  -0.679928  0  2.228289  0  0  -0.367296  -0.637049  0  2.247635  0
O  O110  1  0.34627360  0.67840890  0.53220133  1  0  -0.702199  0  2.000809  0  0  -0.654775  0  2.239514  0  0  -0.679853  0  2.228176  0  0  -0.367268  -0.636961  0  2.247498  0
O  O111  1  0.15372753  0.17840747  0.46779661  1  0  -0.702241  0  2.000935  0  0  -0.65479  0  2.239759  0  0  -0.679863  0  2.228398  0  0  -0.367208  -0.636972  0  2.247744  0
O  O112  1  0.98705774  0.53732387  0.31810407  1  0  -0.671364  0  1.995661  0  0  -0.622216  0  2.229983  0  0  -0.647444  0  2.220589  0  0  -0.336071  -0.604475  0  2.236463  0
O  O113  1  0.51294327  0.03732369  0.68189709  1  0  -0.671301  0  1.995687  0  0  -0.622148  0  2.229989  0  0  -0.647382  0  2.220594  0  0  -0.336041  -0.604405  0  2.236467  0
O  O114  1  0.01294110  0.46268016  0.68189240  1  0  -0.671222  0  1.995632  0  0  -0.622071  0  2.229922  0  0  -0.647305  0  2.220535  0  0  -0.335998  -0.604327  0  2.236399  0
O  O115  1  0.48705882  0.96268033  0.31810103  1  0  -0.671268  0  1.995668  0  0  -0.622151  0  2.229921  0  0  -0.64738  0  2.220524  0  0  -0.336028  -0.604407  0  2.236398  0
O  O116  1  0.84060559  0.56609346  0.44197449  1  0  -0.703664  0  2.00425  0  0  -0.650378  0  2.235882  0  0  -0.67613  0  2.227094  0  0  -0.365857  -0.632309  0  2.241612  0
O  O117  1  0.65939237  0.06609511  0.55802412  1  0  -0.703649  0  2.004303  0  0  -0.65036  0  2.235916  0  0  -0.676102  0  2.227101  0  0  -0.365793  -0.632293  0  2.241663  0
O  O118  1  0.15939433  0.43390587  0.55802353  1  0  -0.703726  0  2.004204  0  0  -0.650385  0  2.235785  0  0  -0.676128  0  2.226973  0  0  -0.365853  -0.632313  0  2.241515  0
O  O119  1  0.34061191  0.93390329  0.44197712  1  0  -0.703638  0  2.00434  0  0  -0.650381  0  2.235945  0  0  -0.676137  0  2.227151  0  0  -0.365842  -0.632309  0  2.241673  0
O  O120  1  0.72427368  0.44630917  0.69756820  1  0  -0.913937  0  1.888653  0  0  -0.86839  0  2.083804  0  0  -0.888472  0  2.051453  0  0  -0.654585  -0.853413  0  2.106772  0
O  O121  1  0.77572054  0.94630731  0.30243059  1  0  -0.913933  0  1.888672  0  0  -0.868393  0  2.083816  0  0  -0.888469  0  2.051474  0  0  -0.654562  -0.853423  0  2.106777  0
O  O122  1  0.27572408  0.55369298  0.30243048  1  0  -0.913963  0  1.88862  0  0  -0.868418  0  2.083792  0  0  -0.888499  0  2.051444  0  0  -0.654575  -0.853446  0  2.106756  0
O  O123  1  0.22427831  0.05369109  0.69756814  1  0  -0.913881  0  1.888722  0  0  -0.868337  0  2.083874  0  0  -0.888416  0  2.051514  0  0  -0.654552  -0.853365  0  2.106839  0
O  O124  1  0.45054004  0.44711867  0.60390328  1  0  -0.906241  0  1.912298  0  0  -0.865921  0  2.107697  0  0  -0.8852  0  2.077554  0  0  -0.641346  -0.851835  0  2.129105  0
O  O125  1  0.04946088  0.94711664  0.39609555  1  0  -0.906227  0  1.912238  0  0  -0.865877  0  2.107679  0  0  -0.885156  0  2.077557  0  0  -0.641332  -0.851798  0  2.129082  0
O  O126  1  0.54945990  0.55288254  0.39609701  1  0  -0.906185  0  1.912252  0  0  -0.865877  0  2.107733  0  0  -0.885146  0  2.077585  0  0  -0.64135  -0.851794  0  2.129139  0
O  O127  1  0.95053906  0.05288364  0.60390474  1  0  -0.906201  0  1.912245  0  0  -0.865878  0  2.107715  0  0  -0.885163  0  2.077592  0  0  -0.641333  -0.851791  0  2.129121  0
