# generated using pymatgen
data_Er2CoH16C24(N2O5)4
_symmetry_space_group_name_H-M   'P 1'
_cell_length_a   6.04599437
_cell_length_b   11.98519750
_cell_length_c   21.64513184
_cell_angle_alpha   90.00004722
_cell_angle_beta   89.99999956
_cell_angle_gamma   92.75976947
_symmetry_Int_Tables_number   1
_chemical_formula_structural   Er2CoH16C24(N2O5)4
_chemical_formula_sum   'Er4 Co2 H32 C48 N16 O40'
_cell_volume   1566.63988107
_cell_formula_units_Z   2
loop_
 _symmetry_equiv_pos_site_id
 _symmetry_equiv_pos_as_xyz
  1  'x, y, z'
loop_
 _atom_site_type_symbol
 _atom_site_label
 _atom_site_symmetry_multiplicity
 _atom_site_fract_x
 _atom_site_fract_y
 _atom_site_fract_z
 _atom_site_occupancy
 _atom_site_pbe_bader_charge
 _atom_site_pbe_bader_spin_density
 _atom_site_pbe_cm5_charge
 _atom_site_pbe_ddec_charge
 _atom_site_pbe_ddec_spin_density
 _atom_site_pbe_ddec_sum_bond_order
 _atom_site_pbe_magmom
Er  Er0  1  0.96999286  0.92661882  0.34303988  1  2.180914  0.000749  1.527609  2.044645  0.000718  2.185091  0.002
Er  Er1  1  0.52999873  0.57338421  0.84303724  1  2.181019  0.000749  1.527651  2.044512  0.000718  2.185359  0.002
Er  Er2  1  0.03000564  0.07338534  0.65696252  1  2.180972  0.000748  1.527637  2.044524  0.000717  2.185314  0.002
Er  Er3  1  0.47000625  0.42661831  0.15696054  1  2.181003  0.000749  1.52762  2.044562  0.000718  2.185196  0.002
Co  Co4  1  0.49999454  0.49999497  0.50000027  1  1.170713  0.998321  0.688693  0.697558  1.066775  2.97534  0.987
Co  Co5  1  0.00000662  0.00000003  0.00000046  1  1.170747  0.998319  0.688677  0.697482  1.066771  2.975456  0.987
H  H6  1  0.38398808  0.91368944  0.41222265  1  0.635966  1e-06  0.316534  0.426562  1e-06  0.880765  0.0
H  H7  1  0.11600557  0.58631686  0.91222232  1  0.636113  1e-06  0.316557  0.426577  1e-06  0.880732  0.0
H  H8  1  0.61601511  0.08631140  0.58777605  1  0.636126  1e-06  0.316541  0.426612  1e-06  0.880708  0.0
H  H9  1  0.88399822  0.41369150  0.08777961  1  0.635855  0.0  0.316547  0.426599  1e-06  0.880695  0.0
H  H10  1  0.20329912  0.84498815  0.45655548  1  0.67  -4.8e-05  0.306464  0.416576  -9.3e-05  0.904526  0.0
H  H11  1  0.29670237  0.65501241  0.95655424  1  0.670059  -4.8e-05  0.306438  0.416466  -9.3e-05  0.904641  0.0
H  H12  1  0.79670553  0.15501019  0.54344368  1  0.670062  -4.8e-05  0.306423  0.416454  -9.3e-05  0.904674  0.0
H  H13  1  0.70330771  0.34499180  0.04344631  1  0.670063  -4.8e-05  0.306439  0.416487  -9.3e-05  0.904612  0.0
H  H14  1  0.10867088  0.15491355  0.36698694  1  0.663915  -3e-06  0.303791  0.416804  -1.9e-05  0.913087  0.0
H  H15  1  0.39132621  0.34508957  0.86698808  1  0.663928  -3e-06  0.30375  0.416708  -1.9e-05  0.913246  0.0
H  H16  1  0.89131761  0.84508974  0.63300992  1  0.663726  -3e-06  0.303799  0.416809  -1.9e-05  0.913089  0.0
H  H17  1  0.60869710  0.65491469  0.13301247  1  0.663555  -3e-06  0.303753  0.416627  -1.9e-05  0.913346  0.0
H  H18  1  0.92458026  0.14809830  0.41948832  1  0.638978  -1.1e-05  0.307766  0.42958  -2.6e-05  0.878146  0.0
H  H19  1  0.57541707  0.35190845  0.91948902  1  0.639024  -1.1e-05  0.307779  0.429577  -2.6e-05  0.878134  0.0
H  H20  1  0.07540996  0.85190584  0.58051037  1  0.639011  -1.1e-05  0.307778  0.429575  -2.6e-05  0.878137  0.0
H  H21  1  0.42459976  0.64809746  0.08051198  1  0.63904  -1.1e-05  0.307752  0.429488  -2.6e-05  0.878269  0.0
H  H22  1  0.95165447  0.25470435  0.14709684  1  0.160866  -1.2e-05  0.129868  0.104751  -3.8e-05  1.026474  0.0
H  H23  1  0.54833495  0.24528854  0.64709981  1  0.160833  -1.2e-05  0.129846  0.104724  -3.8e-05  1.026449  0.0
H  H24  1  0.04832839  0.74529057  0.85289724  1  0.160886  -1.2e-05  0.129831  0.104696  -3.8e-05  1.026451  0.0
H  H25  1  0.45167909  0.75470316  0.35290628  1  0.160692  -1.2e-05  0.129807  0.104643  -3.8e-05  1.026418  0.0
H  H26  1  0.11173967  0.09194906  0.20387450  1  0.16201  5e-06  0.122338  0.091203  -9e-06  1.041905  0.0
H  H27  1  0.38823803  0.40804034  0.70387705  1  0.16193  5e-06  0.122288  0.091154  -9e-06  1.042037  0.0
H  H28  1  0.88823479  0.90804416  0.79612005  1  0.16196  5e-06  0.122289  0.091169  -9e-06  1.041996  0.0
H  H29  1  0.61176456  0.59195298  0.29612535  1  0.161828  5e-06  0.122254  0.091041  -9e-06  1.04204  0.0
H  H30  1  0.32657075  0.36607691  0.39053453  1  0.219605  2.6e-05  0.132115  0.129332  -0.000178  1.010428  0.0
H  H31  1  0.17342657  0.13392876  0.89053699  1  0.219526  2.6e-05  0.132132  0.129364  -0.000178  1.010386  0.0
H  H32  1  0.67342919  0.63392476  0.60946278  1  0.219612  2.6e-05  0.132123  0.12932  -0.000178  1.010412  0.0
H  H33  1  0.82657814  0.86607042  0.10946310  1  0.219465  2.6e-05  0.132109  0.129317  -0.000178  1.01044  0.0
H  H34  1  0.01259658  0.40170132  0.31769276  1  0.142293  -2.8e-05  0.122986  0.106958  4e-05  0.984568  0.0
H  H35  1  0.48739750  0.09830588  0.81769334  1  0.142243  -2.8e-05  0.122987  0.106884  4e-05  0.984538  0.0
H  H36  1  0.98740515  0.59830202  0.68230548  1  0.142322  -2.8e-05  0.122994  0.106934  4e-05  0.984613  0.0
H  H37  1  0.51260363  0.90168995  0.18230675  1  0.14218  -2.8e-05  0.123005  0.106869  4e-05  0.984532  0.0
C  C38  1  0.63048815  0.10182058  0.27361672  1  0.515782  -0.000111  0.139176  0.070115  -0.00012  3.904949  0.0
C  C39  1  0.86949377  0.39818085  0.77361789  1  0.515932  -0.000111  0.139262  0.070465  -0.00012  3.904423  0.0
C  C40  1  0.36949704  0.89818270  0.72638013  1  0.516158  -0.000111  0.139256  0.070258  -0.00012  3.904954  0.0
C  C41  1  0.13051300  0.60182335  0.22638589  1  0.515476  -0.000111  0.139316  0.07045  -0.00012  3.904559  0.0
C  C42  1  0.55748404  0.20140764  0.24850117  1  0.539452  3.2e-05  0.130849  0.065193  -1.5e-05  3.927923  0.0
C  C43  1  0.94250978  0.29859796  0.74850229  1  0.539199  3.2e-05  0.130842  0.065042  -1.5e-05  3.927918  0.0
C  C44  1  0.44249930  0.79859312  0.75149615  1  0.538519  3.2e-05  0.130889  0.065133  -1.5e-05  3.927737  0.0
C  C45  1  0.05750036  0.70140708  0.25150288  1  0.538551  3.3e-05  0.130952  0.065325  -1.5e-05  3.927802  0.0
C  C46  1  0.86338970  0.21339389  0.18518808  1  0.563846  0.000146  0.070897  0.093745  4.4e-05  3.867458  0.0
C  C47  1  0.63659988  0.28660074  0.68518967  1  0.563683  0.000146  0.070955  0.09382  4.4e-05  3.867303  0.0
C  C48  1  0.13659627  0.78659854  0.81480739  1  0.587642  0.000145  0.070939  0.093808  4.4e-05  3.867314  0.0
C  C49  1  0.36341283  0.71339513  0.31481503  1  0.562808  0.000146  0.07096  0.093935  4.4e-05  3.866997  0.0
C  C50  1  0.94931851  0.12205616  0.21573534  1  0.434991  -8.1e-05  0.06976  0.088844  -0.00015  3.8643  0.0
C  C51  1  0.55066117  0.37793848  0.71573837  1  0.4351  -8.2e-05  0.069821  0.088891  -0.00015  3.864422  0.0
C  C52  1  0.05066435  0.87793876  0.78425966  1  0.410868  -8.1e-05  0.069827  0.088902  -0.00015  3.864437  0.0
C  C53  1  0.44934354  0.62206070  0.28426588  1  0.435941  -8.1e-05  0.069846  0.089005  -0.00015  3.864207  0.0
C  C54  1  0.49296334  0.02239440  0.31417456  1  1.650706  8e-06  0.247967  0.634223  1e-05  4.138457  0.0
C  C55  1  0.00702577  0.47761277  0.81417347  1  1.650324  8e-06  0.247898  0.634106  1e-05  4.13834  0.0
C  C56  1  0.50702661  0.97760639  0.68582137  1  1.64988  8e-06  0.247895  0.634118  1e-05  4.138644  0.0
C  C57  1  0.99298311  0.52239728  0.18582708  1  1.651109  7e-06  0.247863  0.634045  1e-05  4.138541  0.0
C  C58  1  0.35917852  0.25998103  0.27225526  1  1.640543  2.5e-05  0.222272  0.582952  6e-06  4.236296  0.0
C  C59  1  0.14082015  0.24002193  0.77225683  1  1.644004  2.6e-05  0.222236  0.582901  6e-06  4.236637  0.0
C  C60  1  0.64081130  0.74001809  0.72774298  1  1.640373  2.6e-05  0.222239  0.58294  6e-06  4.236666  0.0
C  C61  1  0.85920137  0.75998065  0.22774510  1  1.640254  2.6e-05  0.222112  0.582602  6e-06  4.236487  0.0
C  C62  1  0.95921207  0.61010771  0.41380169  1  0.548295  0.002377  0.130749  0.058927  0.00042  3.961868  0.003
C  C63  1  0.54078083  0.88989044  0.91379778  1  0.547773  0.002376  0.130833  0.059044  0.00042  3.961548  0.003
C  C64  1  0.04078238  0.38988726  0.58619840  1  0.547737  0.002376  0.130774  0.058995  0.00042  3.961823  0.003
C  C65  1  0.45922533  0.11010624  0.08620138  1  0.548082  0.002377  0.130817  0.059014  0.00042  3.961731  0.003
C  C66  1  0.13884299  0.59467246  0.45282387  1  0.453299  -0.011119  0.106843  0.004335  -0.01169  3.933347  -0.007
C  C67  1  0.36114671  0.90532554  0.95282135  1  0.453844  -0.011116  0.106865  0.004386  -0.011688  3.93322  -0.007
C  C68  1  0.86114299  0.40531996  0.54717806  1  0.453823  -0.011116  0.106829  0.004298  -0.011689  3.933503  -0.007
C  C69  1  0.63885648  0.09467530  0.04717920  1  0.453643  -0.011119  0.106794  0.004348  -0.011691  3.933358  -0.007
C  C70  1  0.22213696  0.43660102  0.39640885  1  0.419173  -0.010946  0.058325  0.046608  -0.01147  3.842376  -0.006
C  C71  1  0.27786182  0.06340215  0.89641081  1  0.419516  -0.010944  0.058323  0.046528  -0.011469  3.8424  -0.006
C  C72  1  0.77786279  0.56339814  0.60358939  1  0.419191  -0.010945  0.058296  0.046743  -0.011469  3.842395  -0.006
C  C73  1  0.72214785  0.93659705  0.10359205  1  0.419251  -0.010946  0.058241  0.046567  -0.011471  3.842408  -0.006
C  C74  1  0.04549632  0.45684934  0.35702587  1  0.551608  -0.001845  0.061871  0.08119  -0.002184  3.91034  0.0
C  C75  1  0.45449719  0.04315041  0.85702411  1  0.551314  -0.001845  0.061989  0.081516  -0.002183  3.910002  0.0
C  C76  1  0.95450144  0.54314564  0.64297376  1  0.551194  -0.001845  0.061792  0.081043  -0.002184  3.910569  0.0
C  C77  1  0.54550387  0.95684458  0.14297366  1  0.551318  -0.001844  0.061939  0.081408  -0.002183  3.910065  0.0
C  C78  1  0.20571619  0.66147449  0.50896723  1  1.600267  -0.004007  0.21567  0.548931  -0.004956  4.204718  -0.003
C  C79  1  0.29428479  0.83852364  0.00896522  1  1.599906  -0.004007  0.215705  0.548841  -0.004957  4.204681  -0.003
C  C80  1  0.79428838  0.33852302  0.49103332  1  1.599928  -0.004007  0.215687  0.548865  -0.004956  4.20477  -0.003
C  C81  1  0.70572184  0.16147889  0.99103532  1  1.600426  -0.004005  0.215682  0.548892  -0.004954  4.204562  -0.003
C  C82  1  0.78955015  0.69610225  0.42527496  1  1.639597  3e-06  0.236475  0.618735  -0.000216  4.189677  0.0
C  C83  1  0.71043779  0.80389590  0.92527240  1  1.63982  3e-06  0.236543  0.618795  -0.000216  4.189498  0.0
C  C84  1  0.21044277  0.30389438  0.57472698  1  1.63985  3e-06  0.236479  0.618655  -0.000216  4.189752  0.0
C  C85  1  0.28955521  0.19610157  0.07472861  1  1.639815  3e-06  0.236475  0.618653  -0.000215  4.189663  0.0
N  N86  1  0.83448069  0.06830919  0.26047611  1  -1.188094  0.000124  -0.329928  -0.292479  4.2e-05  3.47092  0.0
N  N87  1  0.66550439  0.43169056  0.76047638  1  -1.188008  0.000124  -0.330013  -0.292701  4.2e-05  3.47093  0.0
N  N88  1  0.16550727  0.93168742  0.73952120  1  -1.187968  0.000124  -0.330003  -0.292615  4.2e-05  3.471275  0.0
N  N89  1  0.33450237  0.56831364  0.23952509  1  -1.187715  0.000124  -0.329967  -0.292643  4.2e-05  3.470854  0.0
N  N90  1  0.67337344  0.25560467  0.20364397  1  -1.219597  0.000186  -0.330121  -0.314793  8.9e-05  3.478731  0.0
N  N91  1  0.82662159  0.24439585  0.70364693  1  -1.219522  0.000186  -0.330115  -0.314762  8.9e-05  3.478852  0.0
N  N92  1  0.32661293  0.74439277  0.79635288  1  -1.21882  0.000186  -0.330137  -0.31476  8.9e-05  3.478772  0.0
N  N93  1  0.17339298  0.75560253  0.29636009  1  -1.218549  0.000186  -0.330189  -0.315049  8.9e-05  3.478479  0.0
N  N94  1  0.26746724  0.50635027  0.44353678  1  -1.171441  -0.012505  -0.338766  -0.174922  -0.012031  3.717644  -0.009
N  N95  1  0.23252569  0.99364690  0.94353429  1  -1.171508  -0.012503  -0.338836  -0.174987  -0.01203  3.717826  -0.009
N  N96  1  0.73252211  0.49364300  0.55646562  1  -1.171514  -0.012505  -0.338762  -0.175017  -0.01203  3.717805  -0.009
N  N97  1  0.76747882  0.00634978  0.05646441  1  -1.171263  -0.012506  -0.338779  -0.175074  -0.012031  3.717768  -0.009
N  N98  1  0.91472893  0.54259470  0.36505630  1  -1.167868  -0.012821  -0.291662  -0.24222  -0.013279  3.296684  -0.01
N  N99  1  0.58525923  0.95740669  0.86505427  1  -1.167887  -0.012816  -0.291803  -0.242494  -0.013274  3.296638  -0.01
N  N100  1  0.08526400  0.45740193  0.63494240  1  -1.167347  -0.012817  -0.291583  -0.242124  -0.013275  3.296815  -0.01
N  N101  1  0.41474210  0.04259164  0.13494535  1  -1.16781  -0.012821  -0.291771  -0.242409  -0.013279  3.296637  -0.01
O  O102  1  0.59596013  0.97460017  0.35720105  1  -1.176837  -1.9e-05  -0.351851  -0.615598  -3e-05  2.270335  0.0
O  O103  1  0.90402711  0.52541039  0.85719698  1  -1.176581  -1.9e-05  -0.351852  -0.615638  -3e-05  2.270428  0.0
O  O104  1  0.40402685  0.02540479  0.64279673  1  -1.176055  -2e-05  -0.351833  -0.615599  -3e-05  2.270447  0.0
O  O105  1  0.09597576  0.47460715  0.14279941  1  -1.177139  -1.9e-05  -0.351865  -0.615669  -3e-05  2.27047  0.0
O  O106  1  0.22668873  0.89162632  0.41898075  1  -1.280807  -0.000132  -0.651182  -0.878957  -0.00015  2.09446  0.0
O  O107  1  0.27330148  0.60837831  0.91897673  1  -1.280928  -0.000133  -0.651175  -0.878824  -0.00015  2.094584  0.0
O  O108  1  0.77330970  0.10837701  0.58102164  1  -1.280947  -0.000133  -0.651177  -0.878901  -0.00015  2.094598  0.0
O  O109  1  0.72670046  0.39162754  0.08102289  1  -1.280693  -0.000133  -0.651185  -0.878917  -0.00015  2.09456  0.0
O  O110  1  0.29130188  0.00340161  0.30026612  1  -1.187164  1.7e-05  -0.379439  -0.636157  1.8e-05  2.316692  0.0
O  O111  1  0.20868682  0.49660053  0.80026641  1  -1.186997  1.6e-05  -0.379428  -0.636045  1.8e-05  2.316522  0.0
O  O112  1  0.70868642  0.99659918  0.69973211  1  -1.187066  1.7e-05  -0.379431  -0.636041  1.8e-05  2.316557  0.0
O  O113  1  0.79132140  0.50340117  0.19973460  1  -1.187054  1.7e-05  -0.379393  -0.636028  1.8e-05  2.316507  0.0
O  O114  1  0.99844767  0.10348128  0.38775739  1  -1.274592  -2.9e-05  -0.655992  -0.886492  -3.2e-05  2.031383  0.0
O  O115  1  0.50154950  0.39652374  0.88775857  1  -1.274667  -2.9e-05  -0.655957  -0.886372  -3.2e-05  2.031473  0.0
O  O116  1  0.00154421  0.89652286  0.61224085  1  -1.274435  -2.9e-05  -0.656004  -0.886452  -3.2e-05  2.031414  0.0
O  O117  1  0.49846904  0.60348301  0.11224197  1  -1.274354  -2.9e-05  -0.655917  -0.886185  -3.2e-05  2.031649  0.0
O  O118  1  0.29264740  0.33822148  0.23765673  1  -1.183127  -4.2e-05  -0.404845  -0.685056  -5.5e-05  2.375801  0.0
O  O119  1  0.20734331  0.16178557  0.73765966  1  -1.187122  -4.2e-05  -0.404783  -0.684961  -5.5e-05  2.376171  0.0
O  O120  1  0.70734819  0.66178769  0.76234197  1  -1.183015  -4.2e-05  -0.404821  -0.68498  -5.5e-05  2.376168  0.0
O  O121  1  0.79265849  0.83821861  0.26234643  1  -1.182752  -4.2e-05  -0.404907  -0.685024  -5.5e-05  2.375653  0.0
O  O122  1  0.28163340  0.23272647  0.32385669  1  -1.185012  3e-06  -0.291129  -0.52009  2.1e-05  2.234894  0.0
O  O123  1  0.21835910  0.26728157  0.82385781  1  -1.184521  3e-06  -0.291158  -0.520097  2.1e-05  2.234904  0.0
O  O124  1  0.71834676  0.76727595  0.67614108  1  -1.185058  3e-06  -0.291145  -0.520133  2.1e-05  2.234905  0.0
O  O125  1  0.78167235  0.73272106  0.17614319  1  -1.185142  3e-06  -0.290997  -0.519855  2.1e-05  2.234924  0.0
O  O126  1  0.81432159  0.79118754  0.39931764  1  -1.192612  0.004805  -0.426  -0.670852  0.002255  2.363658  0.004
O  O127  1  0.68566626  0.70880973  0.89931458  1  -1.192794  0.004805  -0.426069  -0.670991  0.002255  2.363865  0.004
O  O128  1  0.18567637  0.20880994  0.60068568  1  -1.192819  0.004805  -0.426052  -0.670935  0.002255  2.363908  0.004
O  O129  1  0.31432997  0.29118692  0.10068597  1  -1.192783  0.004805  -0.425992  -0.670865  0.002255  2.363815  0.004
O  O130  1  0.62382648  0.66481467  0.45654665  1  -1.131423  0.052973  -0.272047  -0.497608  0.027226  2.272666  0.046
O  O131  1  0.87616143  0.83518270  0.95654548  1  -1.131408  0.052974  -0.272047  -0.497541  0.027226  2.272564  0.046
O  O132  1  0.37616328  0.33518361  0.54345343  1  -1.131504  0.052977  -0.272021  -0.497503  0.027226  2.272607  0.046
O  O133  1  0.12384123  0.16481147  0.04345414  1  -1.131451  0.052971  -0.272044  -0.497525  0.027224  2.272651  0.046
O  O134  1  0.33896851  0.61100635  0.54475494  1  -1.074671  -0.001552  -0.290437  -0.475228  -0.002212  2.363681  -0.001
O  O135  1  0.16103217  0.88898767  0.04475157  1  -1.074657  -0.001549  -0.290445  -0.475155  -0.00221  2.363666  -0.001
O  O136  1  0.66103057  0.38898446  0.45524700  1  -1.074715  -0.00155  -0.290436  -0.475158  -0.002211  2.36366  -0.001
O  O137  1  0.83896771  0.11101317  0.95524897  1  -1.074634  -0.001553  -0.290462  -0.475198  -0.002212  2.363594  -0.001
O  O138  1  0.13091454  0.75639413  0.51829683  1  -1.184178  -0.005334  -0.291276  -0.518467  -0.005331  2.170446  -0.004
O  O139  1  0.36908976  0.74360403  0.01829432  1  -1.183882  -0.005334  -0.291289  -0.518401  -0.005331  2.170472  -0.004
O  O140  1  0.86908997  0.24360255  0.48170372  1  -1.183966  -0.005334  -0.291244  -0.518379  -0.005331  2.170511  -0.004
O  O141  1  0.63092170  0.25639685  0.98170761  1  -1.184382  -0.005332  -0.29123  -0.518352  -0.005329  2.170475  -0.004
