# generated using pymatgen
data_KBaP3H65C52Se3N3O
_symmetry_space_group_name_H-M   'P 1'
_cell_length_a   11.03463381
_cell_length_b   11.58803818
_cell_length_c   24.76985148
_cell_angle_alpha   86.81193267
_cell_angle_beta   83.44007479
_cell_angle_gamma   67.51038545
_symmetry_Int_Tables_number   1
_chemical_formula_structural   KBaP3H65C52Se3N3O
_chemical_formula_sum   'K2 Ba2 P6 H130 C104 Se6 N6 O2'
_cell_volume   2907.03253100
_cell_formula_units_Z   2
loop_
 _symmetry_equiv_pos_site_id
 _symmetry_equiv_pos_as_xyz
  1  'x, y, z'
loop_
 _atom_site_type_symbol
 _atom_site_label
 _atom_site_symmetry_multiplicity
 _atom_site_fract_x
 _atom_site_fract_y
 _atom_site_fract_z
 _atom_site_occupancy
 _atom_site_pbe_bader_charge
 _atom_site_pbe_bader_spin_density
 _atom_site_pbe_cm5_charge
 _atom_site_pbe_ddec_charge
 _atom_site_pbe_ddec_spin_density
 _atom_site_pbe_ddec_sum_bond_order
 _atom_site_pbe_magmom
K  K0  1  0.59821926  0.72171972  0.30453898  1  0.837125  0  0.550408  0.778058  0  0.748742  0
K  K1  1  0.40178600  0.27826479  0.69545575  1  0.837174  0  0.550398  0.778083  0  0.748664  0
Ba  Ba2  1  0.99670060  0.82737768  0.26440521  1  1.526619  0  0.765238  1.236183  0  1.764856  0
Ba  Ba3  1  0.00329633  0.17262545  0.73559556  1  1.526576  0  0.765227  1.236152  0  1.764849  0
P  P4  1  0.23489579  0.97071651  0.21800797  1  2.089014  0  0.197038  0.690567  0  4.885719  0
P  P5  1  0.76510376  0.02928007  0.78199282  1  2.088495  0  0.197063  0.690612  0  4.885656  0
P  P6  1  0.86579351  0.68785712  0.17000191  1  2.099702  0  0.19193  0.687677  0  4.901601  0
P  P7  1  0.13420788  0.31213947  0.82999919  1  2.099625  0  0.191868  0.687575  0  4.901624  0
P  P8  1  0.84204778  0.79581092  0.40003475  1  2.083227  0  0.187808  0.685023  0  4.917121  0
P  P9  1  0.15795242  0.20419315  0.59996582  1  2.082956  0  0.187876  0.685108  0  4.916945  0
H  H10  1  0.82970374  0.04388881  0.19377840  1  0.020624  0  0.073058  0.097295  0  1.092605  0
H  H11  1  0.17029832  0.95611060  0.80622138  1  0.02062  0  0.073077  0.097337  0  1.092541  0
H  H12  1  0.79925274  0.18826138  0.15901702  1  0.016826  0  0.084281  0.120856  0  0.994943  0
H  H13  1  0.20074840  0.81173803  0.84098200  1  0.016828  0  0.084268  0.120852  0  0.994979  0
H  H14  1  0.84422276  0.17121539  0.22654773  1  0.020828  0  0.08355  0.109573  0  1.050529  0
H  H15  1  0.15578059  0.82878308  0.77345201  1  0.020812  0  0.083534  0.109551  0  1.050565  0
H  H16  1  0.01645604  0.25728066  0.18670909  1  0.03234  0  0.08191  0.116985  0  1.052183  0
H  H17  1  0.98354806  0.74271595  0.81329025  1  0.032739  0  0.081893  0.116976  0  1.05216  0
H  H18  1  0.98110020  0.25077953  0.11911212  1  0.015524  0  0.083854  0.118403  0  1.003138  0
H  H19  1  0.01890572  0.74921708  0.88088753  1  0.015475  0  0.083857  0.11842  0  1.003137  0
H  H20  1  0.14417429  0.17133550  0.13704009  1  -0.003299  0  0.081705  0.111197  0  1.047647  0
H  H21  1  0.85583056  0.82865924  0.86295966  1  -0.003252  0  0.081698  0.111216  0  1.047649  0
H  H22  1  0.13652695  0.97139320  0.09783201  1  0.018982  0  0.082632  0.11919  0  1.032039  0
H  H23  1  0.86347557  0.02860058  0.90216950  1  0.019004  0  0.08262  0.11916  0  1.032039  0
H  H24  1  0.97009925  0.05498554  0.08395230  1  0.019717  0  0.082815  0.11679  0  1.001238  0
H  H25  1  0.02990323  0.94500827  0.91604679  1  0.019555  0  0.082806  0.11678  0  1.001183  0
H  H26  1  0.01157967  0.91719907  0.12537695  1  -0.003581  0  0.089979  0.117397  0  1.039086  0
H  H27  1  0.98842354  0.08279751  0.87462445  1  -0.003625  0  0.089996  0.117413  0  1.039114  0
H  H28  1  0.07166538  0.19854533  0.27566213  1  0.088802  0  0.102821  0.097586  0  1.036051  0
H  H29  1  0.92833397  0.80145406  0.72433901  1  0.088814  0  0.102832  0.097614  0  1.036026  0
H  H30  1  0.12058841  0.36871994  0.31493642  1  0.087481  0  0.095976  0.09892  0  1.022643  0
H  H31  1  0.87941987  0.63127761  0.68506267  1  0.087391  0  0.095943  0.098854  0  1.022646  0
H  H32  1  0.34941373  0.36206081  0.30505286  1  0.054812  0  0.098055  0.087277  0  1.03259  0
H  H33  1  0.65059732  0.63793209  0.69494499  1  0.054562  0  0.098018  0.087219  0  1.032575  0
H  H34  1  0.53078893  0.18461137  0.25625687  1  0.062537  0  0.100007  0.099005  0  0.999617  0
H  H35  1  0.46921648  0.81537966  0.74374052  1  0.062484  0  0.099987  0.098896  0  0.999734  0
H  H36  1  0.48198971  0.01634169  0.21828307  1  0.110766  0  0.089074  0.103157  0  1.066639  0
H  H37  1  0.51800950  0.98365118  0.78171581  1  0.110912  0  0.089093  0.1032  0  1.066659  0
H  H38  1  0.34758118  0.73652201  0.16323494  1  0.074362  0  0.098088  0.088453  0  1.060739  0
H  H39  1  0.65241920  0.26347928  0.83676368  1  0.074564  0  0.098101  0.088479  0  1.060756  0
H  H40  1  0.47623877  0.66685434  0.07379636  1  0.035832  0  0.100522  0.096487  0  0.990991  0
H  H41  1  0.52375903  0.33314881  0.92620194  1  0.035732  0  0.100536  0.096507  0  0.991058  0
H  H42  1  0.55857263  0.81112940  0.01711137  1  0.076705  0  0.096047  0.088416  0  1.031281  0
H  H43  1  0.44142261  0.18887561  0.98288783  1  0.076672  0  0.096037  0.088415  0  1.031261  0
H  H44  1  0.50367985  0.02706338  0.04874587  1  0.056716  0  0.099087  0.094053  0  1.020636  0
H  H45  1  0.49631981  0.97293975  0.95125476  1  0.056621  0  0.099063  0.094054  0  1.020622  0
H  H46  1  0.36772470  0.09913981  0.13582954  1  0.083409  0  0.098803  0.093577  0  1.023863  0
H  H47  1  0.63227755  0.90086144  0.86417220  1  0.083438  0  0.098818  0.093603  0  1.023858  0
H  H48  1  0.11651769  0.39795049  0.18438947  1  0.021136  0  0.083358  0.118332  0  1.045738  0
H  H49  1  0.88348460  0.60204610  0.81561158  1  0.021184  0  0.083357  0.118314  0  1.045816  0
H  H50  1  0.22993192  0.38429443  0.12600757  1  0.00585  0  0.083467  0.116465  0  1.001917  0
H  H51  1  0.77006614  0.61570589  0.87399361  1  0.00583  0  0.083463  0.116498  0  1.001827  0
H  H52  1  0.05788633  0.45353698  0.12016633  1  0.009104  0  0.084008  0.11704  0  1.038283  0
H  H53  1  0.94211522  0.54646148  0.87983511  1  0.009124  0  0.084018  0.11706  0  1.038262  0
H  H54  1  0.10699208  0.64036283  0.07417374  1  0.024132  0  0.082643  0.120161  0  1.032569  0
H  H55  1  0.89300401  0.35963560  0.92582840  1  0.024228  0  0.082627  0.120168  0  1.032604  0
H  H56  1  0.27585953  0.56689473  0.08631130  1  0.019897  0  0.078662  0.107626  0  1.012205  0
H  H57  1  0.72413889  0.43310467  0.91368868  1  0.019865  0  0.078656  0.107632  0  1.012195  0
H  H58  1  0.17970738  0.72046504  0.11050538  1  0.022837  0  0.088582  0.125223  0  1.032476  0
H  H59  1  0.82028922  0.27953435  0.88949509  1  0.022807  0  0.088598  0.125249  0  1.032415  0
H  H60  1  0.25345968  0.63837609  0.20590022  1  -0.016231  0  0.080327  0.09361  0  1.090081  0
H  H61  1  0.74654368  0.36162238  0.79409992  1  -0.016221  0  0.080328  0.093607  0  1.090069  0
H  H62  1  0.33721775  0.48356318  0.18142613  1  0.010064  0  0.08476  0.117835  0  1.008361  0
H  H63  1  0.66278650  0.51643530  0.81857275  1  0.009981  0  0.084753  0.117812  0  1.008379  0
H  H64  1  0.21105508  0.51426679  0.23621934  1  -0.001019  0  0.088352  0.112857  0  1.039822  0
H  H65  1  0.78895178  0.48572980  0.76378146  1  -0.000978  0  0.088352  0.112892  0  1.039789  0
H  H66  1  0.85314868  0.51123573  0.08915718  1  0.072616  0  0.098582  0.09565  0  1.01992  0
H  H67  1  0.14685016  0.48876271  0.91084562  1  0.072661  0  0.098609  0.09568  0  1.019881  0
H  H68  1  0.84268791  0.52952571  0.98950085  1  0.06658  0  0.099354  0.097933  0  1.01764  0
H  H69  1  0.15730813  0.47047740  0.01050158  1  0.066674  0  0.09935  0.097934  0  1.017653  0
H  H70  1  0.82929738  0.72708170  0.94080674  1  0.03789  0  0.096319  0.086254  0  1.056787  0
H  H71  1  0.17069389  0.27292420  0.05919588  1  0.03779  0  0.096331  0.086304  0  1.056613  0
H  H72  1  0.82391985  0.90763873  0.99229423  1  0.08988  0  0.100788  0.099339  0  1.004754  0
H  H73  1  0.17606997  0.09236623  0.00770889  1  0.089647  0  0.100779  0.099274  0  1.004808  0
H  H74  1  0.83036570  0.89055887  0.09280134  1  0.085455  0  0.099071  0.098058  0  1.026981  0
H  H75  1  0.16963109  0.10944237  0.90720070  1  0.085654  0  0.099  0.097966  0  1.027004  0
H  H76  1  0.62719792  0.64298214  0.15224115  1  0.106972  0  0.098552  0.096774  0  1.05423  0
H  H77  1  0.37280303  0.35702006  0.84775943  1  0.107081  0  0.098573  0.096828  0  1.054294  0
H  H78  1  0.52293445  0.50359958  0.19829725  1  0.06808  0  0.100917  0.099847  0  1.025191  0
H  H79  1  0.47706243  0.49640358  0.80170029  1  0.068138  0  0.100924  0.099872  0  1.025123  0
H  H80  1  0.63319917  0.35425576  0.27058580  1  0.039365  0  0.101417  0.092779  0  1.007668  0
H  H81  1  0.36679409  0.64574274  0.72941044  1  0.039039  0  0.101434  0.092853  0  1.007627  0
H  H82  1  0.84965508  0.34358343  0.29532822  1  0.038216  0  0.100106  0.093987  0  1.026448  0
H  H83  1  0.15033827  0.65641036  0.70467054  1  0.03862  0  0.10012  0.09394  0  1.026483  0
H  H84  1  0.95437198  0.48386189  0.24849823  1  0.062046  0  0.102863  0.10732  0  1.026111  0
H  H85  1  0.04562674  0.51613001  0.75150394  1  0.06199  0  0.102888  0.107363  0  1.026025  0
H  H86  1  0.98308091  0.06310867  0.31888319  1  0.034707  0  0.089977  0.109416  0  1.058897  0
H  H87  1  0.01691653  0.93689540  0.68111632  1  0.035095  0  0.089954  0.109384  0  1.05901  0
H  H88  1  0.91131994  0.18384116  0.36733140  1  0.011532  0  0.082456  0.111157  0  1.029855  0
H  H89  1  0.08867842  0.81616292  0.63266846  1  0.011527  0  0.082423  0.111132  0  1.029776  0
H  H90  1  0.80797264  0.13345727  0.33218160  1  -0.004684  0  0.086698  0.110952  0  1.014523  0
H  H91  1  0.19202519  0.86654586  0.66781872  1  -0.004663  0  0.086713  0.110989  0  1.014445  0
H  H92  1  0.04043455  0.89485678  0.45383358  1  0.036875  0  0.081541  0.120819  0  1.025529  0
H  H93  1  0.95956564  0.10514730  0.54616659  1  0.036843  0  0.081513  0.1208  0  1.025535  0
H  H94  1  0.05009153  0.04272893  0.43710827  1  0.017438  0  0.079759  0.115121  0  1.028742  0
H  H95  1  0.94990774  0.95727514  0.56289155  1  0.017492  0  0.07977  0.115148  0  1.028736  0
H  H96  1  0.11673029  0.91883319  0.38892352  1  0.023653  0  0.08097  0.109108  0  1.056619  0
H  H97  1  0.88326952  0.08117183  0.61107624  1  0.023619  0  0.08096  0.109112  0  1.056593  0
H  H98  1  0.69457149  0.10082095  0.42470185  1  -0.004981  0  0.080488  0.112598  0  1.042891  0
H  H99  1  0.30542801  0.89918032  0.57529843  1  -0.004978  0  0.080492  0.112608  0  1.04289  0
H  H100  1  0.80307876  0.15245036  0.45545332  1  -0.007862  0  0.082311  0.116418  0  1.010091  0
H  H101  1  0.19691944  0.84755184  0.54454660  1  -0.007841  0  0.082318  0.116431  0  1.010106  0
H  H102  1  0.79139056  0.00767042  0.47545304  1  0.029791  0  0.082337  0.117417  0  1.050886  0
H  H103  1  0.20860984  0.99233085  0.52454678  1  0.029772  0  0.082342  0.117394  0  1.050906  0
H  H104  1  0.08352538  0.60902060  0.43255305  1  0.067369  0  0.095158  0.092103  0  1.037297  0
H  H105  1  0.91647378  0.39097694  0.56744652  1  0.067384  0  0.095168  0.092104  0  1.037251  0
H  H106  1  0.16919607  0.53605259  0.52268784  1  0.050967  0  0.093392  0.082863  0  1.03583  0
H  H107  1  0.83080272  0.46394588  0.47731214  1  0.050968  0  0.093396  0.082881  0  1.035804  0
H  H108  1  0.03046736  0.62461611  0.60736811  1  0.084017  0  0.088032  0.088458  0  1.044852  0
H  H109  1  0.96953411  0.37538703  0.39263161  1  0.084109  0  0.088036  0.088485  0  1.044861  0
H  H110  1  0.80524302  0.78909822  0.60296951  1  0.069141  0  0.094217  0.088085  0  1.049083  0
H  H111  1  0.19476293  0.21090963  0.39702824  1  0.06909  0  0.094216  0.088113  0  1.049128  0
H  H112  1  0.71944401  0.86112510  0.51403699  1  0.085497  0  0.096978  0.094095  0  1.037745  0
H  H113  1  0.28055997  0.13888087  0.48596172  1  0.085397  0  0.096981  0.094048  0  1.037769  0
H  H114  1  0.65389863  0.70064682  0.46643256  1  0.063447  0  0.09968  0.094814  0  1.022248  0
H  H115  1  0.34610557  0.29935633  0.53356701  1  0.063422  0  0.099675  0.094786  0  1.022351  0
H  H116  1  0.41001315  0.76781055  0.47031997  1  0.052322  0  0.101263  0.09685  0  1.008448  0
H  H117  1  0.58999219  0.23218980  0.52968002  1  0.052279  0  0.101249  0.096861  0  1.008403  0
H  H118  1  0.28024015  0.95192390  0.41646597  1  0.063035  0  0.10322  0.101793  0  1.037536  0
H  H119  1  0.71976085  0.04807363  0.58353432  1  0.063017  0  0.103214  0.101813  0  1.037566  0
H  H120  1  0.39409533  0.07059717  0.35861781  1  0.07858  0  0.097922  0.096879  0  1.041722  0
H  H121  1  0.60590199  0.92940037  0.64138065  1  0.07863  0  0.097964  0.096904  0  1.041642  0
H  H122  1  0.63824278  0.00402719  0.35535091  1  0.091015  0  0.105729  0.09636  0  1.031274  0
H  H123  1  0.36175322  0.99597595  0.64464870  1  0.091037  0  0.105735  0.096366  0  1.031181  0
H  H124  1  0.59388462  0.49867269  0.44246861  1  0.018191  0  0.088883  0.045925  0  0.994143  0
H  H125  1  0.40611569  0.50132203  0.55753179  1  0.018139  0  0.088912  0.045977  0  0.994108  0
H  H126  1  0.68805957  0.42054306  0.38232976  1  0.051197  0  0.102137  0.067763  0  0.998526  0
H  H127  1  0.31194108  0.57945075  0.61766902  1  0.051247  0  0.102119  0.06776  0  0.99853  0
H  H128  1  0.53778350  0.31297740  0.37510231  1  0.01502  0  0.092189  0.090771  0  0.988705  0
H  H129  1  0.46220649  0.68702479  0.62489764  1  0.015027  0  0.092205  0.090816  0  0.988764  0
H  H130  1  0.53790114  0.31306956  0.44669536  1  0.041028  0  0.094766  0.09634  0  1.016681  0
H  H131  1  0.46209216  0.68692891  0.55330370  1  0.041503  0  0.094791  0.096439  0  1.016667  0
H  H132  1  0.33928407  0.50475351  0.45519605  1  0.032831  0  0.089138  0.082155  0  1.010574  0
H  H133  1  0.66071430  0.49525055  0.54480462  1  0.032886  0  0.089102  0.082091  0  1.010552  0
H  H134  1  0.30129029  0.42409553  0.40484479  1  0.061878  0  0.09662  0.10216  0  0.995529  0
H  H135  1  0.69870218  0.57591414  0.59515565  1  0.061736  0  0.096641  0.102155  0  0.995619  0
H  H136  1  0.35697775  0.55087987  0.33225489  1  0.023109  0  0.095557  0.059676  0  0.992506  0
H  H137  1  0.64301987  0.44912606  0.66774577  1  0.023084  0  0.095551  0.059659  0  0.992523  0
H  H138  1  0.30836937  0.66211856  0.38534714  1  0.068551  0  0.101328  0.07625  0  0.978691  0
H  H139  1  0.69163099  0.33788737  0.61465378  1  0.067985  0  0.101312  0.076229  0  0.978737  0
C  C140  1  0.00838197  0.08010165  0.16633617  1  0.390729  0  0.074218  0.442944  0  3.806805  0
C  C141  1  0.99161827  0.91989776  0.83366371  1  0.390725  0  0.074199  0.442968  0  3.806872  0
C  C142  1  0.86189382  0.12312252  0.18781113  1  -0.076072  0  -0.246765  -0.433276  0  3.882107  0
C  C143  1  0.13810551  0.87687688  0.81218920  1  -0.076073  0  -0.246753  -0.433296  0  3.882157  0
C  C144  1  0.03960113  0.19649297  0.15155882  1  -0.074595  0  -0.248257  -0.438415  0  3.873309  0
C  C145  1  0.96040260  0.80350457  0.84844132  1  -0.075024  0  -0.248238  -0.438471  0  3.873319  0
C  C146  1  0.03329306  0.00130143  0.11525473  1  -0.058011  0  -0.243392  -0.44265  0  3.875331  0
C  C147  1  0.96670996  0.99869331  0.88474430  1  -0.0578  0  -0.243376  -0.442625  0  3.875394  0
C  C148  1  0.27277302  0.09739300  0.24392629  1  -0.452453  0  -0.024437  -0.100722  0  3.94985  0
C  C149  1  0.72722069  0.90260451  0.75607479  1  -0.452369  0  -0.024421  -0.100776  0  3.949835  0
C  C150  1  0.17187095  0.19648238  0.27168268  1  -0.068803  0  -0.081176  -0.077314  0  3.962578  0
C  C151  1  0.82812726  0.80351981  0.72831845  1  -0.068076  0  -0.081193  -0.077348  0  3.962506  0
C  C152  1  0.19949392  0.29097874  0.29374944  1  -0.115712  0  -0.093433  -0.091864  0  4.009712  0
C  C153  1  0.80051512  0.70901694  0.70625046  1  -0.116304  0  -0.093453  -0.09183  0  4.009631  0
C  C154  1  0.32844422  0.28733500  0.28831761  1  -0.051369  0  -0.092295  -0.089981  0  4.0303  0
C  C155  1  0.67156570  0.71266070  0.71167982  1  -0.051313  0  -0.09217  -0.089795  0  4.029969  0
C  C156  1  0.42965366  0.18860310  0.26090905  1  -0.122421  0  -0.093987  -0.087628  0  4.010888  0
C  C157  1  0.57034990  0.81138794  0.73908682  1  -0.12227  0  -0.093948  -0.087486  0  4.010475  0
C  C158  1  0.40209384  0.09386851  0.23910446  1  -0.044705  0  -0.084493  -0.089225  0  3.976847  0
C  C159  1  0.59790373  0.90612621  0.76089608  1  -0.044594  0  -0.084616  -0.089422  0  3.976723  0
C  C160  1  0.34713857  0.92246174  0.15550073  1  -0.472131  0  -0.024355  -0.104462  0  3.951312  0
C  C161  1  0.65286312  0.07753860  0.84449905  1  -0.471989  0  -0.02441  -0.104532  0  3.951267  0
C  C162  1  0.37937857  0.80084754  0.13732000  1  -0.050177  0  -0.081549  -0.082117  0  3.992406  0
C  C163  1  0.62062144  0.19915468  0.86267902  1  -0.05042  0  -0.081568  -0.082132  0  3.992362  0
C  C164  1  0.45249514  0.76171177  0.08738022  1  -0.059018  0  -0.09235  -0.085136  0  4.013209  0
C  C165  1  0.54750046  0.23829231  0.91261858  1  -0.058972  0  -0.092312  -0.085122  0  4.013229  0
C  C166  1  0.49742189  0.84304021  0.05526925  1  -0.049523  0  -0.089779  -0.077667  0  4.012599  0
C  C167  1  0.50257518  0.15696481  0.94472985  1  -0.049512  0  -0.089773  -0.077655  0  4.012585  0
C  C168  1  0.46690997  0.96395815  0.07316684  1  0.006723  0  -0.091525  -0.081003  0  4.006973  0
C  C169  1  0.53309151  0.03604499  0.92683328  1  0.00671  0  -0.091506  -0.081055  0  4.006937  0
C  C170  1  0.39090353  0.00421431  0.12258904  1  -0.139842  0  -0.085936  -0.088046  0  3.996015  0
C  C171  1  0.60909961  0.99578697  0.87741104  1  -0.139757  0  -0.085927  -0.087998  0  3.995947  0
C  C172  1  0.13712904  0.57292093  0.15763570  1  0.410539  0  0.076762  0.445468  0  3.807876  0
C  C173  1  0.86287213  0.42707846  0.84236575  1  0.410579  0  0.076747  0.445495  0  3.80794  0
C  C174  1  0.13450073  0.44497454  0.14649219  1  -0.051803  0  -0.247603  -0.437348  0  3.864029  0
C  C175  1  0.86549931  0.55502766  0.85350884  1  -0.051891  0  -0.247597  -0.437383  0  3.863986  0
C  C176  1  0.17741757  0.62852781  0.10396586  1  -0.084433  0  -0.247128  -0.442018  0  3.877437  0
C  C177  1  0.82257996  0.37147158  0.89603537  1  -0.084539  0  -0.247124  -0.442095  0  3.877427  0
C  C178  1  0.24070764  0.55164157  0.19747890  1  -0.043473  0  -0.241756  -0.438209  0  3.890412  0
C  C179  1  0.75929609  0.44835597  0.80252124  1  -0.043363  0  -0.241745  -0.438206  0  3.890325  0
C  C180  1  0.84417907  0.69956410  0.09741777  1  -0.547229  0  -0.025573  -0.101228  0  3.950915  0
C  C181  1  0.15582135  0.30043715  0.90258366  1  -0.547123  0  -0.025572  -0.101152  0  3.950937  0
C  C182  1  0.84663603  0.59840201  0.06814797  1  -0.042973  0  -0.087021  -0.092875  0  3.999947  0
C  C183  1  0.15336371  0.40159643  0.93185479  1  -0.043011  0  -0.087069  -0.092934  0  4.000137  0
C  C184  1  0.84045616  0.60868876  0.01197122  1  -0.066291  0  -0.094508  -0.088989  0  4.019419  0
C  C185  1  0.15953752  0.39131341  0.98803136  1  -0.066964  0  -0.094566  -0.089066  0  4.019566  0
C  C186  1  0.83318415  0.71942296  0.98464257  1  -0.039933  0  -0.093181  -0.088125  0  4.014918  0
C  C187  1  0.16680788  0.28058107  0.01536045  1  -0.039478  0  -0.093156  -0.088142  0  4.014742  0
C  C188  1  0.83068734  0.82073296  0.01359598  1  -0.035257  0  -0.090654  -0.08424  0  4.001697  0
C  C189  1  0.16930581  0.17926827  0.98640665  1  -0.034968  0  -0.0906  -0.084027  0  4.001664  0
C  C190  1  0.83520353  0.81115654  0.06971053  1  -0.049285  0  -0.080535  -0.072277  0  3.971436  0
C  C191  1  0.16478811  0.18884843  0.93029168  1  -0.049427  0  -0.080486  -0.072373  0  3.971411  0
C  C192  1  0.79925200  0.57054442  0.19667129  1  -0.52878  0  -0.038038  -0.125246  0  3.981749  0
C  C193  1  0.20074905  0.42945307  0.80333223  1  -0.528761  0  -0.038058  -0.125276  0  3.981753  0
C  C194  1  0.67755288  0.57520147  0.18261324  1  -0.09093  0  -0.093727  -0.101882  0  4.012051  0
C  C195  1  0.32245212  0.42479515  0.81738564  1  -0.090992  0  -0.093718  -0.101907  0  4.011917  0
C  C196  1  0.61845922  0.49738024  0.20885753  1  0.013049  0  -0.096561  -0.098215  0  4.013748  0
C  C197  1  0.38153599  0.50262479  0.79113965  1  0.013124  0  -0.096647  -0.098227  0  4.01364  0
C  C198  1  0.68000217  0.41421998  0.24968543  1  -0.073834  0  -0.088372  -0.080319  0  4.024214  0
C  C199  1  0.31999185  0.58577665  0.75031122  1  -0.073391  0  -0.088486  -0.080764  0  4.024556  0
C  C200  1  0.80133222  0.40852141  0.26364244  1  -0.013276  0  -0.094437  -0.096859  0  4.01251  0
C  C201  1  0.19866300  0.59146773  0.73635553  1  -0.013914  0  -0.094309  -0.096415  0  4.01275  0
C  C202  1  0.86090599  0.48604183  0.23719121  1  -0.088075  0  -0.088762  -0.086208  0  3.989298  0
C  C203  1  0.13908998  0.51395471  0.76281340  1  -0.08801  0  -0.088717  -0.08625  0  3.989346  0
C  C204  1  0.90340871  0.00558120  0.39635606  1  0.394682  0  0.077043  0.448109  0  3.798849  0
C  C205  1  0.09659094  0.99442195  0.60364376  1  0.394619  0  0.077104  0.448123  0  3.7989  0
C  C206  1  0.90131991  0.10201457  0.35088540  1  -0.073619  0  -0.23984  -0.433156  0  3.874715  0
C  C207  1  0.09867791  0.89798856  0.64911452  1  -0.07398  0  -0.239797  -0.433117  0  3.87461  0
C  C208  1  0.03599067  0.96291216  0.42070394  1  -0.103025  0  -0.247579  -0.43802  0  3.860708  0
C  C209  1  0.96400898  0.03709098  0.57929588  1  -0.103037  0  -0.247548  -0.438002  0  3.860677  0
C  C210  1  0.79112922  0.07009085  0.44049958  1  -0.036396  0  -0.250346  -0.445051  0  3.875363  0
C  C211  1  0.20887065  0.92990949  0.55950030  1  -0.036391  0  -0.250363  -0.445047  0  3.875419  0
C  C212  1  0.89717243  0.74109275  0.46716092  1  -0.454999  0  -0.02756  -0.104551  0  3.953053  0
C  C213  1  0.10282795  0.25890854  0.53283769  1  -0.455016  0  -0.027545  -0.104658  0  3.953083  0
C  C214  1  0.02441073  0.65005564  0.47013059  1  -0.003098  0  -0.083369  -0.074228  0  3.976014  0
C  C215  1  0.97558799  0.34994751  0.52986806  1  -0.002944  0  -0.083389  -0.074191  0  3.975978  0
C  C216  1  0.07203635  0.60969241  0.52037529  1  -0.118616  0  -0.094587  -0.083842  0  4.01108  0
C  C217  1  0.92796442  0.39030794  0.47962413  1  -0.118647  0  -0.094594  -0.083861  0  4.011177  0
C  C218  1  0.99352298  0.65983859  0.56829426  1  -0.036893  0  -0.093058  -0.079407  0  4.011104  0
C  C219  1  0.00647939  0.34016457  0.43170461  1  -0.037169  0  -0.093092  -0.079477  0  4.011223  0
C  C220  1  0.86703070  0.75031257  0.56569023  1  -0.086691  0  -0.096922  -0.089162  0  4.015157  0
C  C221  1  0.13297784  0.24969340  0.43430864  1  -0.086592  0  -0.097036  -0.089421  0  4.015341  0
C  C222  1  0.81880662  0.79084638  0.51540362  1  -0.115114  0  -0.089623  -0.095603  0  3.999992  0
C  C223  1  0.18119468  0.20915489  0.48459575  1  -0.114993  0  -0.089514  -0.095248  0  3.999964  0
C  C224  1  0.66146306  0.84989155  0.41132400  1  -0.525916  0  -0.039033  -0.12203  0  3.984124  0
C  C225  1  0.33853933  0.15011159  0.58867608  1  -0.525877  0  -0.039092  -0.122261  0  3.984521  0
C  C226  1  0.59653484  0.78323140  0.44370004  1  -0.069638  0  -0.090573  -0.099591  0  4.011965  0
C  C227  1  0.40346533  0.21677269  0.55629892  1  -0.06966  0  -0.090525  -0.09945  0  4.011978  0
C  C228  1  0.45993443  0.82063035  0.44571523  1  -0.078431  0  -0.091101  -0.08414  0  4.008067  0
C  C229  1  0.54006869  0.17937094  0.55428323  1  -0.078641  0  -0.091047  -0.084102  0  4.007947  0
C  C230  1  0.38642621  0.92447016  0.41550456  1  0.005984  0  -0.088814  -0.082087  0  3.9967  0
C  C231  1  0.61357530  0.07552832  0.58449447  1  0.006339  0  -0.088844  -0.082221  0  3.996895  0
C  C232  1  0.45010913  0.99141994  0.38331257  1  -0.026375  0  -0.096724  -0.095207  0  4.010336  0
C  C233  1  0.54989347  0.00858041  0.61668716  1  -0.026596  0  -0.09676  -0.095198  0  4.010369  0
C  C234  1  0.58686576  0.95436199  0.38132984  1  -0.11083  0  -0.094992  -0.106781  0  4.016937  0
C  C235  1  0.41313554  0.04563929  0.61866912  1  -0.110787  0  -0.095013  -0.106709  0  4.016819  0
C  C236  1  0.58786541  0.46174469  0.40301649  1  0.413412  0  -0.071467  0.041267  0  3.90601  0
C  C237  1  0.41213632  0.53825098  0.59698299  1  0.41337  0  -0.071449  0.041331  0  3.90608  0
C  C238  1  0.51418042  0.37353891  0.41062528  1  -0.019074  0  -0.167645  -0.188216  0  3.948504  0
C  C239  1  0.48581268  0.62646235  0.58937453  1  -0.019546  0  -0.167708  -0.188457  0  3.948785  0
C  C240  1  0.37045191  0.46590243  0.41409412  1  -0.06049  0  -0.167401  -0.18821  0  3.940179  0
C  C241  1  0.62954207  0.53410350  0.58590674  1  -0.060364  0  -0.167337  -0.18808  0  3.940329  0
C  C242  1  0.37675887  0.56771487  0.37313841  1  0.375918  0  -0.07178  0.039135  0  3.859371  0
C  C243  1  0.62324004  0.43229013  0.62686221  1  0.37654  0  -0.071804  0.039127  0  3.859602  0
Se  Se244  1  0.29316588  0.82116702  0.27906001  1  -0.66006  0  -0.227977  -0.649366  0  2.084472  0
Se  Se245  1  0.70683643  0.17882493  0.72093833  1  -0.660007  0  -0.227949  -0.649347  0  2.084459  0
Se  Se246  1  0.72703517  0.86152202  0.20751227  1  -0.655295  0  -0.209334  -0.625493  0  2.099276  0
Se  Se247  1  0.27296632  0.13846986  0.79249217  1  -0.655287  0  -0.209268  -0.625377  0  2.09913  0
Se  Se248  1  0.90064485  0.63303784  0.34812854  1  -0.651416  0  -0.215465  -0.65765  0  2.098919  0
Se  Se249  1  0.09935424  0.36696902  0.65187283  1  -0.651192  0  -0.215474  -0.657628  0  2.098849  0
N  N250  1  0.08370858  0.00332498  0.21017697  1  -1.638773  0  -0.511853  -0.7317  0  3.264857  0
N  N251  1  0.91629114  0.99667348  0.78982377  1  -1.63876  0  -0.511857  -0.73168  0  3.264827  0
N  N252  1  0.01147606  0.66133547  0.18421809  1  -1.641391  0  -0.510287  -0.728857  0  3.270611  0
N  N253  1  0.98852442  0.33866111  0.81578346  1  -1.641389  0  -0.510313  -0.728868  0  3.27053  0
N  N254  1  0.89131096  0.89856415  0.37083846  1  -1.638761  0  -0.511416  -0.735936  0  3.274313  0
N  N255  1  0.10869051  0.10143899  0.62916126  1  -1.638676  0  -0.511487  -0.736029  0  3.274299  0
O  O256  1  0.51091803  0.56326475  0.36946188  1  -1.03726  0  -0.307251  -0.300654  0  2.45206  0
O  O257  1  0.48908388  0.43673278  0.63053836  1  -1.037326  0  -0.30725  -0.300667  0  2.452001  0
