# generated using pymatgen
data_AgH3(C2N)6
_symmetry_space_group_name_H-M   'P 1'
_cell_length_a   3.90251475
_cell_length_b   18.33731115
_cell_length_c   19.79148063
_cell_angle_alpha   65.30807488
_cell_angle_beta   84.30073379
_cell_angle_gamma   83.83615757
_symmetry_Int_Tables_number   1
_chemical_formula_structural   AgH3(C2N)6
_chemical_formula_sum   'Ag4 H12 C48 N24'
_cell_volume   1277.04727282
_cell_formula_units_Z   4
loop_
 _symmetry_equiv_pos_site_id
 _symmetry_equiv_pos_as_xyz
  1  'x, y, z'
loop_
 _atom_site_type_symbol
 _atom_site_label
 _atom_site_symmetry_multiplicity
 _atom_site_fract_x
 _atom_site_fract_y
 _atom_site_fract_z
 _atom_site_occupancy
 _atom_site_hle17_bader_spin_density
 _atom_site_hle17_ddec_charge
 _atom_site_hle17_ddec_spin_density
 _atom_site_hle17_ddec_sum_bond_order
 _atom_site_hle17_magmom
 _atom_site_hse06_10hf_bader_spin_density
 _atom_site_hse06_10hf_ddec_charge
 _atom_site_hse06_10hf_ddec_spin_density
 _atom_site_hse06_10hf_ddec_sum_bond_order
 _atom_site_hse06_10hf_magmom
 _atom_site_hse06_bader_spin_density
 _atom_site_hse06_ddec_charge
 _atom_site_hse06_ddec_spin_density
 _atom_site_hse06_ddec_sum_bond_order
 _atom_site_hse06_magmom
 _atom_site_pbe_bader_spin_density
 _atom_site_pbe_cm5_charge
 _atom_site_pbe_ddec_charge
 _atom_site_pbe_ddec_spin_density
 _atom_site_pbe_ddec_sum_bond_order
 _atom_site_pbe_magmom
Ag  Ag0  1  0.62882675  0.45366428  0.69465178  1  0  0.670094  0  1.696892  0  0  0.559863  0  2.215825  0  0  0.571348  0  2.167913  0  0  0.564047  0.554079  0  2.247924  0
Ag  Ag1  1  0.77619156  0.04637269  0.80571902  1  0  0.669952  0  1.6957  0  0  0.559548  0  2.214602  0  0  0.571126  0  2.166537  0  0  0.563874  0.553745  0  2.24672  0
Ag  Ag2  1  0.37117848  0.54633526  0.30534769  1  0  0.670064  0  1.696823  0  0  0.559834  0  2.215735  0  0  0.57132  0  2.167823  0  0  0.564004  0.554048  0  2.247834  0
Ag  Ag3  1  0.22380225  0.95362626  0.19428199  1  0  0.669926  0  1.695698  0  0  0.55951  0  2.214603  0  0  0.571092  0  2.166539  0  0  0.563838  0.553706  0  2.246722  0
H  H4  1  0.71167440  0.65431403  0.81493595  1  0  0.164699  0  0.94061  0  0  0.177714  0  1.007727  0  0  0.179631  0  1.006101  0  0  0.11519  0.176344  0  1.008869  0
H  H5  1  0.18136369  0.84581656  0.68516141  1  0  0.164777  0  0.939756  0  0  0.177444  0  1.007229  0  0  0.179364  0  1.005568  0  0  0.114903  0.176082  0  1.008384  0
H  H6  1  0.28830313  0.34568852  0.18506339  1  0  0.164651  0  0.940687  0  0  0.177674  0  1.007799  0  0  0.179595  0  1.006168  0  0  0.11514  0.176304  0  1.008944  0
H  H7  1  0.81864042  0.15418178  0.31484003  1  0  0.164784  0  0.939733  0  0  0.17748  0  1.007188  0  0  0.179401  0  1.005525  0  0  0.11491  0.176118  0  1.008344  0
H  H8  1  0.11089119  0.59880007  0.84633739  1  0  0.157181  0  0.929734  0  0  0.179106  0  0.982733  0  0  0.179675  0  0.983559  0  0  0.117132  0.178697  0  0.982132  0
H  H9  1  0.55645714  0.90116160  0.65368206  1  0  0.156905  0  0.930001  0  0  0.178973  0  0.982716  0  0  0.179493  0  0.983631  0  0  0.117097  0.178577  0  0.982101  0
H  H10  1  0.88907846  0.40120188  0.15366254  1  0  0.15717  0  0.929596  0  0  0.179079  0  0.982629  0  0  0.179635  0  0.98347  0  0  0.117111  0.178669  0  0.98203  0
H  H11  1  0.44354660  0.09883794  0.34631892  1  0  0.156919  0  0.929977  0  0  0.178996  0  0.982685  0  0  0.179516  0  0.9836  0  0  0.117101  0.1786  0  0.98207  0
H  H12  1  0.72042306  0.56174906  0.89862672  1  0  0.162836  0  0.928672  0  0  0.1771  0  0.993942  0  0  0.178738  0  0.992855  0  0  0.11622  0.175958  0  0.994676  0
H  H13  1  0.18109643  0.93837839  0.60147883  1  0  0.163008  0  0.929194  0  0  0.177243  0  0.994271  0  0  0.178866  0  0.993189  0  0  0.116094  0.176114  0  0.994999  0
H  H14  1  0.27955195  0.43825350  0.10137258  1  0  0.162828  0  0.928637  0  0  0.177076  0  0.993946  0  0  0.178711  0  0.992866  0  0  0.116221  0.17594  0  0.994664  0
H  H15  1  0.81890497  0.06162055  0.39852233  1  0  0.162968  0  0.92926  0  0  0.177207  0  0.994346  0  0  0.17883  0  0.993265  0  0  0.116077  0.176078  0  0.995073  0
C  C16  1  0.83759399  0.59343855  0.84214043  1  0  -0.387627  0  3.730045  0  0  -0.458267  0  3.953463  0  0  -0.461055  0  3.959499  0  0  -0.208014  -0.456049  0  3.949136  0
C  C17  1  0.27353508  0.90664964  0.65793413  1  0  -0.387404  0  3.729143  0  0  -0.457595  0  3.952291  0  0  -0.460332  0  3.958377  0  0  -0.207341  -0.455418  0  3.947929  0
C  C18  1  0.16238629  0.40656160  0.15785781  1  0  -0.387504  0  3.729736  0  0  -0.45814  0  3.953188  0  0  -0.460919  0  3.959233  0  0  -0.207949  -0.455924  0  3.948867  0
C  C19  1  0.72646903  0.09334871  0.34206731  1  0  -0.387368  0  3.729152  0  0  -0.457598  0  3.952276  0  0  -0.460333  0  3.95836  0  0  -0.207313  -0.455421  0  3.947913  0
C  C20  1  0.80535699  0.54841866  0.79859579  1  0  0.446224  0  3.691573  0  0  0.437181  0  3.963741  0  0  0.4487  0  3.981873  0  0  0.219494  0.429377  0  3.951454  0
C  C21  1  0.15295387  0.95166057  0.70156076  1  0  0.445863  0  3.69077  0  0  0.436839  0  3.96293  0  0  0.44833  0  3.981082  0  0  0.219387  0.42905  0  3.950637  0
C  C22  1  0.19463393  0.45158149  0.20140471  1  0  0.44612  0  3.691466  0  0  0.437095  0  3.963626  0  0  0.448613  0  3.981756  0  0  0.219478  0.429291  0  3.951339  0
C  C23  1  0.84704469  0.04833778  0.29844108  1  0  0.445855  0  3.69075  0  0  0.436829  0  3.962944  0  0  0.448322  0  3.981096  0  0  0.219344  0.42904  0  3.950652  0
C  C24  1  0.09523936  0.30327793  0.55583575  1  0  -0.05524  0  3.892134  0  0  -0.053158  0  4.140217  0  0  -0.056643  0  4.162313  0  0  -0.004278  -0.050677  0  4.125186  0
C  C25  1  0.95390831  0.19684933  0.94433232  1  0  -0.054241  0  3.890409  0  0  -0.0522  0  4.138653  0  0  -0.05568  0  4.160757  0  0  -0.004137  -0.049738  0  4.123621  0
C  C26  1  0.90477561  0.69672282  0.44416345  1  0  -0.055242  0  3.892199  0  0  -0.053125  0  4.140274  0  0  -0.056619  0  4.16238  0  0  -0.004276  -0.050649  0  4.125238  0
C  C27  1  0.04609137  0.80315021  0.05566755  1  0  -0.054241  0  3.890535  0  0  -0.052132  0  4.138695  0  0  -0.05561  0  4.160797  0  0  -0.004125  -0.049676  0  4.12366  0
C  C28  1  0.28289307  0.22677648  0.58420852  1  0  -0.056731  0  3.882471  0  0  -0.051818  0  4.129977  0  0  -0.055677  0  4.152466  0  0  -0.002641  -0.049173  0  4.114753  0
C  C29  1  0.09313754  0.27333866  0.91588077  1  0  -0.056837  0  3.880864  0  0  -0.052444  0  4.128694  0  0  -0.056238  0  4.151098  0  0  -0.00273  -0.049831  0  4.113502  0
C  C30  1  0.71711734  0.77322427  0.41579008  1  0  -0.056718  0  3.882567  0  0  -0.051797  0  4.130017  0  0  -0.055649  0  4.152498  0  0  -0.002589  -0.049154  0  4.114795  0
C  C31  1  0.90686025  0.72666209  0.08411758  1  0  -0.056858  0  3.881065  0  0  -0.052489  0  4.128887  0  0  -0.056281  0  4.151289  0  0  -0.0027  -0.049879  0  4.113699  0
C  C32  1  0.33672674  0.19900010  0.52645732  1  0  -0.034899  0  3.86404  0  0  -0.035525  0  4.115285  0  0  -0.037418  0  4.136363  0  0  0.001984  -0.034162  0  4.100955  0
C  C33  1  0.06156748  0.30114559  0.97360662  1  0  -0.036196  0  3.866598  0  0  -0.035837  0  4.116436  0  0  -0.037812  0  4.137573  0  0  0.0018  -0.034444  0  4.102097  0
C  C34  1  0.66327141  0.80099944  0.47354150  1  0  -0.034893  0  3.864215  0  0  -0.035486  0  4.115398  0  0  -0.037383  0  4.136479  0  0  0.002012  -0.034119  0  4.101071  0
C  C35  1  0.93843151  0.69885456  0.02639353  1  0  -0.036192  0  3.866694  0  0  -0.035826  0  4.116536  0  0  -0.037802  0  4.137672  0  0  0.001809  -0.034435  0  4.102195  0
C  C36  1  0.18041931  0.25820831  0.46241314  1  0  -0.039558  0  3.870494  0  0  -0.038081  0  4.119025  0  0  -0.040466  0  4.140219  0  0  0.000213  -0.036546  0  4.10488  0
C  C37  1  0.90065483  0.24200755  0.03770887  1  0  -0.03775  0  3.869965  0  0  -0.036172  0  4.117719  0  0  -0.038328  0  4.138591  0  0  0.001118  -0.034691  0  4.103603  0
C  C38  1  0.81957866  0.74179183  0.53758545  1  0  -0.039467  0  3.87023  0  0  -0.037982  0  4.118779  0  0  -0.040355  0  4.139957  0  0  0.00027  -0.036463  0  4.104642  0
C  C39  1  0.09935112  0.75799140  0.96229289  1  0  -0.037745  0  3.869881  0  0  -0.036182  0  4.117684  0  0  -0.038331  0  4.138543  0  0  0.001091  -0.034696  0  4.103547  0
C  C40  1  0.03035856  0.32245921  0.48062871  1  0  -0.057555  0  3.887305  0  0  -0.05292  0  4.135481  0  0  -0.056813  0  4.158245  0  0  -0.004046  -0.050242  0  4.120063  0
C  C41  1  0.83346850  0.17771896  0.01956189  1  0  -0.0591  0  3.888597  0  0  -0.054505  0  4.136765  0  0  -0.058531  0  4.15967  0  0  -0.00422  -0.051752  0  4.121274  0
C  C42  1  0.96964802  0.67754093  0.51937158  1  0  -0.057495  0  3.887208  0  0  -0.052947  0  4.135482  0  0  -0.056845  0  4.158257  0  0  -0.004043  -0.050246  0  4.120041  0
C  C43  1  0.16653998  0.82227999  0.98043992  1  0  -0.059177  0  3.888751  0  0  -0.054615  0  4.136947  0  0  -0.058641  0  4.159846  0  0  -0.004253  -0.051843  0  4.121422  0
C  C44  1  0.99364003  0.35112196  0.59506138  1  0  0.312743  0  3.769953  0  0  0.298777  0  4.030026  0  0  0.310196  0  4.047708  0  0  0.200457  0.291026  0  4.0182  0
C  C45  1  0.93936485  0.14897987  0.90516064  1  0  0.312574  0  3.770304  0  0  0.298534  0  4.030609  0  0  0.309941  0  4.048312  0  0  0.200482  0.290789  0  4.018787  0
C  C46  1  0.00637076  0.64887759  0.40493768  1  0  0.312737  0  3.770042  0  0  0.298757  0  4.03011  0  0  0.31018  0  4.047794  0  0  0.200465  0.291009  0  4.01828  0
C  C47  1  0.06063814  0.85102208  0.09483942  1  0  0.312599  0  3.770535  0  0  0.298539  0  4.030814  0  0  0.309943  0  4.04852  0  0  0.200563  0.290794  0  4.018993  0
C  C48  1  0.39829555  0.18656147  0.65632309  1  0  0.313312  0  3.779969  0  0  0.294853  0  4.049403  0  0  0.306596  0  4.066549  0  0  0.199103  0.28688  0  4.038049  0
C  C49  1  0.24068903  0.31352424  0.84376150  1  0  0.313477  0  3.780376  0  0  0.29515  0  4.049788  0  0  0.306863  0  4.066859  0  0  0.198981  0.287197  0  4.038462  0
C  C50  1  0.60171339  0.81343747  0.34367564  1  0  0.313407  0  3.779677  0  0  0.294945  0  4.049113  0  0  0.306686  0  4.066256  0  0  0.199134  0.286971  0  4.037761  0
C  C51  1  0.75930285  0.68647772  0.15623938  1  0  0.313796  0  3.780466  0  0  0.295484  0  4.049852  0  0  0.307195  0  4.066917  0  0  0.199065  0.287532  0  4.038527  0
C  C52  1  0.52123647  0.12640015  0.53241062  1  0  0.264804  0  3.78667  0  0  0.251493  0  4.063663  0  0  0.261494  0  4.082376  0  0  0.182046  0.244714  0  4.051023  0
C  C53  1  0.17934578  0.37370543  0.96758889  1  0  0.265644  0  3.786459  0  0  0.251855  0  4.063373  0  0  0.26184  0  4.082153  0  0  0.182377  0.245064  0  4.050716  0
C  C54  1  0.47876774  0.87359940  0.46758728  1  0  0.264773  0  3.786858  0  0  0.251438  0  4.06386  0  0  0.261438  0  4.082577  0  0  0.181989  0.244658  0  4.051219  0
C  C55  1  0.82065038  0.62629411  0.03241194  1  0  0.265583  0  3.786506  0  0  0.25179  0  4.063427  0  0  0.261771  0  4.082214  0  0  0.182344  0.244998  0  4.050774  0
C  C56  1  0.16830226  0.25460098  0.39306134  1  0  0.262454  0  3.787561  0  0  0.250393  0  4.059176  0  0  0.260313  0  4.07796  0  0  0.182287  0.243668  0  4.046491  0
C  C57  1  0.81603901  0.24566181  0.10708022  1  0  0.261338  0  3.788052  0  0  0.24909  0  4.059594  0  0  0.25895  0  4.078411  0  0  0.18171  0.242375  0  4.046917  0
C  C58  1  0.83169420  0.74539917  0.60693876  1  0  0.262335  0  3.787375  0  0  0.250281  0  4.058992  0  0  0.260198  0  4.077778  0  0  0.182254  0.24356  0  4.04631  0
C  C59  1  0.18396101  0.75433833  0.89292149  1  0  0.261236  0  3.787985  0  0  0.248996  0  4.059531  0  0  0.258855  0  4.078346  0  0  0.18167  0.242277  0  4.046852  0
C  C60  1  0.84531231  0.39183598  0.43320706  1  0  0.316337  0  3.779576  0  0  0.296733  0  4.051097  0  0  0.308732  0  4.067695  0  0  0.201663  0.288609  0  4.040054  0
C  C61  1  0.67055536  0.10837714  0.06697457  1  0  0.317177  0  3.779354  0  0  0.297505  0  4.050791  0  0  0.30951  0  4.067428  0  0  0.201889  0.289354  0  4.039754  0
C  C62  1  0.15469610  0.60816477  0.56679356  1  0  0.316296  0  3.779422  0  0  0.296727  0  4.050946  0  0  0.308724  0  4.067544  0  0  0.201674  0.288596  0  4.0399  0
C  C63  1  0.32944807  0.89162180  0.93302714  1  0  0.317166  0  3.779501  0  0  0.297499  0  4.050948  0  0  0.309504  0  4.067591  0  0  0.201814  0.289342  0  4.039906  0
N  N64  1  0.77540525  0.51247488  0.76333394  1  0  -0.498083  0  2.935439  0  0  -0.455502  0  3.238838  0  0  -0.470756  0  3.2449  0  0  -0.356975  -0.44564  0  3.234808  0
N  N65  1  0.05200359  0.98761813  0.73685594  1  0  -0.498126  0  2.93338  0  0  -0.455565  0  3.236285  0  0  -0.470826  0  3.242437  0  0  -0.356813  -0.445702  0  3.232201  0
N  N66  1  0.22459999  0.48752466  0.23666552  1  0  -0.49803  0  2.935475  0  0  -0.455446  0  3.238868  0  0  -0.470698  0  3.244929  0  0  -0.356961  -0.445585  0  3.234838  0
N  N67  1  0.94799799  0.01238021  0.26314545  1  0  -0.498148  0  2.933413  0  0  -0.455583  0  3.236315  0  0  -0.470845  0  3.242467  0  0  -0.356802  -0.445719  0  3.232231  0
N  N68  1  0.91211539  0.39110120  0.62775791  1  0  -0.397283  0  2.874359  0  0  -0.356093  0  3.168853  0  0  -0.366454  0  3.172151  0  0  -0.319342  -0.349623  0  3.166814  0
N  N69  1  0.93026503  0.10899286  0.87249341  1  0  -0.397282  0  2.873635  0  0  -0.356073  0  3.168126  0  0  -0.366395  0  3.171394  0  0  -0.319347  -0.349642  0  3.166119  0
N  N70  1  0.08788732  0.60889834  0.37224150  1  0  -0.397285  0  2.874443  0  0  -0.356081  0  3.168927  0  0  -0.366443  0  3.172225  0  0  -0.319348  -0.349611  0  3.166888  0
N  N71  1  0.06972421  0.89100608  0.12750443  1  0  -0.397262  0  2.873982  0  0  -0.356041  0  3.168462  0  0  -0.366365  0  3.171734  0  0  -0.319401  -0.349611  0  3.166454  0
N  N72  1  0.49657559  0.15306525  0.71631004  1  0  -0.410799  0  2.840162  0  0  -0.372827  0  3.135156  0  0  -0.382526  0  3.137458  0  0  -0.322616  -0.366825  0  3.133915  0
N  N73  1  0.36486580  0.34697823  0.78369964  1  0  -0.411091  0  2.841133  0  0  -0.37332  0  3.136039  0  0  -0.382939  0  3.138247  0  0  -0.322535  -0.367367  0  3.134856  0
N  N74  1  0.50343354  0.84693309  0.28368892  1  0  -0.410902  0  2.839896  0  0  -0.372935  0  3.134911  0  0  -0.382632  0  3.13721  0  0  -0.322682  -0.366932  0  3.133672  0
N  N75  1  0.63513813  0.65302553  0.21629822  1  0  -0.411344  0  2.841376  0  0  -0.373596  0  3.136292  0  0  -0.383214  0  3.138495  0  0  -0.322593  -0.367641  0  3.135111  0
N  N76  1  0.68227869  0.06666845  0.53830981  1  0  -0.361196  0  2.542054  0  0  -0.339817  0  2.757588  0  0  -0.349221  0  2.770621  0  0  -0.282208  -0.333525  0  2.748856  0
N  N77  1  0.28652511  0.43343845  0.96157179  1  0  -0.361805  0  2.541182  0  0  -0.340173  0  2.756751  0  0  -0.349575  0  2.769827  0  0  -0.282684  -0.333884  0  2.748011  0
N  N78  1  0.31771934  0.93332989  0.46168997  1  0  -0.361197  0  2.542163  0  0  -0.339809  0  2.757695  0  0  -0.349213  0  2.770728  0  0  -0.282195  -0.333516  0  2.748961  0
N  N79  1  0.71347320  0.56656230  0.03842863  1  0  -0.361768  0  2.541257  0  0  -0.340128  0  2.756821  0  0  -0.349533  0  2.7699  0  0  -0.282668  -0.333842  0  2.748083  0
N  N80  1  0.15301837  0.25249082  0.33519639  1  0  -0.355083  0  2.554219  0  0  -0.332671  0  2.767466  0  0  -0.3421  0  2.780359  0  0  -0.277065  -0.32636  0  2.758802  0
N  N81  1  0.74122474  0.24775153  0.16498214  1  0  -0.354514  0  2.556495  0  0  -0.332043  0  2.769821  0  0  -0.341467  0  2.782767  0  0  -0.276635  -0.325741  0  2.761157  0
N  N82  1  0.84697373  0.74750873  0.66480334  1  0  -0.355057  0  2.5543  0  0  -0.332641  0  2.767534  0  0  -0.34207  0  2.78043  0  0  -0.277092  -0.326331  0  2.758868  0
N  N83  1  0.25877357  0.75224922  0.83501828  1  0  -0.354416  0  2.556453  0  0  -0.331946  0  2.769776  0  0  -0.341368  0  2.782723  0  0  -0.276579  -0.325643  0  2.761111  0
N  N84  1  0.69034238  0.44953502  0.39363802  1  0  -0.416318  0  2.875951  0  0  -0.376299  0  3.180378  0  0  -0.386113  0  3.181607  0  0  -0.322773  -0.370248  0  3.179828  0
N  N85  1  0.53406495  0.05063650  0.10648223  1  0  -0.416649  0  2.876781  0  0  -0.376463  0  3.181386  0  0  -0.386317  0  3.182649  0  0  -0.323116  -0.370394  0  3.180846  0
N  N86  1  0.30965764  0.55046513  0.60636369  1  0  -0.4163  0  2.875871  0  0  -0.376287  0  3.180291  0  0  -0.386097  0  3.181518  0  0  -0.322784  -0.370238  0  3.179748  0
N  N87  1  0.46593626  0.94936304  0.89351870  1  0  -0.416638  0  2.876848  0  0  -0.376455  0  3.181456  0  0  -0.386307  0  3.182719  0  0  -0.32306  -0.370385  0  3.180917  0
