# generated using pymatgen
data_CdH16C22(NO2)2
_symmetry_space_group_name_H-M   'P 1'
_cell_length_a   10.16996067
_cell_length_b   10.04262783
_cell_length_c   11.58533125
_cell_angle_alpha   71.90626510
_cell_angle_beta   88.63278921
_cell_angle_gamma   64.81638865
_symmetry_Int_Tables_number   1
_chemical_formula_structural   CdH16C22(NO2)2
_chemical_formula_sum   'Cd2 H32 C44 N4 O8'
_cell_volume   1009.72863619
_cell_formula_units_Z   2
loop_
 _symmetry_equiv_pos_site_id
 _symmetry_equiv_pos_as_xyz
  1  'x, y, z'
loop_
 _atom_site_type_symbol
 _atom_site_label
 _atom_site_symmetry_multiplicity
 _atom_site_fract_x
 _atom_site_fract_y
 _atom_site_fract_z
 _atom_site_occupancy
 _atom_site_hle17_bader_spin_density
 _atom_site_hle17_ddec_charge
 _atom_site_hle17_ddec_spin_density
 _atom_site_hle17_ddec_sum_bond_order
 _atom_site_hle17_magmom
 _atom_site_hse06_10hf_bader_spin_density
 _atom_site_hse06_10hf_ddec_charge
 _atom_site_hse06_10hf_ddec_spin_density
 _atom_site_hse06_10hf_ddec_sum_bond_order
 _atom_site_hse06_10hf_magmom
 _atom_site_hse06_bader_spin_density
 _atom_site_hse06_ddec_charge
 _atom_site_hse06_ddec_spin_density
 _atom_site_hse06_ddec_sum_bond_order
 _atom_site_hse06_magmom
 _atom_site_pbe_bader_spin_density
 _atom_site_pbe_cm5_charge
 _atom_site_pbe_ddec_charge
 _atom_site_pbe_ddec_spin_density
 _atom_site_pbe_ddec_sum_bond_order
 _atom_site_pbe_magmom
Cd  Cd0  1  0.15178225  0.39114610  0.42728197  1  0  1.131218  0  1.66643  0  0  0.927614  0  2.118006  0  0  0.988601  0  2.065597  0  0  0.773625  0.885291  0  2.15278  0
Cd  Cd1  1  0.84819596  0.60886632  0.57274611  1  0  1.131314  0  1.666317  0  0  0.927697  0  2.117878  0  0  0.988678  0  2.065473  0  0  0.77371  0.885367  0  2.152651  0
H  H2  1  0.15813370  0.28138684  0.72640837  1  0  0.089889  0  0.948102  0  0  0.097456  0  1.011057  0  0  0.09991  0  1.008947  0  0  0.117895  0.095332  0  1.013329  0
H  H3  1  0.84185783  0.71862824  0.27360116  1  0  0.089971  0  0.947806  0  0  0.097456  0  1.010883  0  0  0.099909  0  1.008774  0  0  0.117902  0.095336  0  1.013156  0
H  H4  1  0.24675215  0.03694097  0.90780676  1  0  0.098325  0  0.974657  0  0  0.108695  0  1.034061  0  0  0.110877  0  1.034991  0  0  0.103146  0.107104  0  1.03364  0
H  H5  1  0.75325900  0.96306245  0.09221496  1  0  0.098484  0  0.974575  0  0  0.108849  0  1.033932  0  0  0.111057  0  1.034838  0  0  0.103214  0.107259  0  1.033513  0
H  H6  1  0.38806186  0.77895862  0.87625578  1  0  0.093245  0  0.929449  0  0  0.108634  0  0.982649  0  0  0.111077  0  0.9812  0  0  0.108947  0.107055  0  0.983058  0
H  H7  1  0.61194213  0.22104210  0.12375059  1  0  0.093273  0  0.92942  0  0  0.108756  0  0.982518  0  0  0.111203  0  0.981068  0  0  0.109006  0.107179  0  0.982927  0
H  H8  1  0.49420801  0.63068480  0.72887085  1  0  0.104033  0  0.941177  0  0  0.114518  0  1.000937  0  0  0.117868  0  0.998882  0  0  0.106609  0.112215  0  1.002204  0
H  H9  1  0.50579251  0.36931073  0.27115358  1  0  0.103963  0  0.941278  0  0  0.114592  0  1.00089  0  0  0.117943  0  0.998832  0  0  0.106626  0.112289  0  1.002157  0
H  H10  1  0.51947182  0.63286759  0.51642128  1  0  0.128686  0  0.944379  0  0  0.139735  0  1.000342  0  0  0.143413  0  0.99801  0  0  0.114579  0.136953  0  1.002174  0
H  H11  1  0.48053410  0.36712866  0.48359238  1  0  0.128689  0  0.944325  0  0  0.139789  0  1.000263  0  0  0.14347  0  0.997926  0  0  0.1146  0.137013  0  1.002089  0
H  H12  1  0.47407907  0.78004187  0.29470062  1  0  0.1242  0  0.93282  0  0  0.135788  0  0.989024  0  0  0.139432  0  0.985694  0  0  0.116936  0.133223  0  0.991269  0
H  H13  1  0.52594234  0.21995555  0.70532246  1  0  0.124093  0  0.932805  0  0  0.135731  0  0.988964  0  0  0.139375  0  0.985636  0  0  0.116931  0.133166  0  0.991208  0
H  H14  1  0.35717447  0.04073427  0.12405374  1  0  0.097842  0  0.942352  0  0  0.112835  0  0.992747  0  0  0.115531  0  0.992735  0  0  0.108144  0.110418  0  0.993592  0
H  H15  1  0.64284005  0.95926979  0.87595384  1  0  0.097809  0  0.942251  0  0  0.112745  0  0.992705  0  0  0.11544  0  0.992692  0  0  0.108134  0.110325  0  0.993552  0
H  H16  1  0.22210755  0.28324611  0.17912929  1  0  0.082551  0  0.939176  0  0  0.093532  0  0.99756  0  0  0.095895  0  0.995331  0  0  0.117339  0.091796  0  0.99916  0
H  H17  1  0.77788590  0.71676659  0.82088001  1  0  0.082605  0  0.93918  0  0  0.093599  0  0.997546  0  0  0.095958  0  0.995315  0  0  0.117383  0.09186  0  0.999148  0
H  H18  1  0.23329971  0.66286674  0.72652479  1  0  0.098817  0  0.94984  0  0  0.114152  0  1.010541  0  0  0.115792  0  1.010078  0  0  0.09338  0.113273  0  1.010753  0
H  H19  1  0.76670680  0.33720219  0.27342605  1  0  0.098833  0  0.949944  0  0  0.114162  0  1.010599  0  0  0.115797  0  1.010143  0  0  0.093357  0.113291  0  1.010801  0
H  H20  1  0.06131967  0.65755018  0.73168394  1  0  0.11423  0  0.938413  0  0  0.128869  0  1.000703  0  0  0.131052  0  0.999009  0  0  0.100045  0.127658  0  1.001706  0
H  H21  1  0.93870023  0.34250907  0.26830032  1  0  0.114282  0  0.938244  0  0  0.128842  0  1.000623  0  0  0.131018  0  0.998949  0  0  0.100043  0.127642  0  1.001615  0
H  H22  1  0.11127767  0.78482127  0.41339804  1  0  0.101239  0  0.956019  0  0  0.112987  0  1.015035  0  0  0.115852  0  1.013936  0  0  0.099474  0.111383  0  1.015402  0
H  H23  1  0.88868950  0.21522306  0.58656238  1  0  0.101137  0  0.955995  0  0  0.112917  0  1.014984  0  0  0.115789  0  1.013864  0  0  0.099469  0.111303  0  1.015367  0
H  H24  1  0.00807738  0.94409656  0.72350201  1  0  0.076088  0  0.996849  0  0  0.088488  0  1.062282  0  0  0.089974  0  1.063343  0  0  0.088859  0.087715  0  1.061058  0
H  H25  1  0.99189180  0.05594780  0.27646091  1  0  0.076184  0  0.996548  0  0  0.088538  0  1.062054  0  0  0.090037  0  1.063097  0  0  0.088848  0.087766  0  1.060832  0
H  H26  1  0.29642925  0.63693377  0.07163067  1  0  0.098398  0  0.926543  0  0  0.113393  0  0.985312  0  0  0.115832  0  0.983389  0  0  0.096603  0.112012  0  0.985959  0
H  H27  1  0.70360651  0.36298113  0.92837637  1  0  0.098235  0  0.926594  0  0  0.113267  0  0.985426  0  0  0.11571  0  0.983489  0  0  0.096522  0.111856  0  0.986095  0
H  H28  1  0.15450856  0.62168386  0.99594958  1  0  0.111033  0  0.921684  0  0  0.127572  0  0.975978  0  0  0.129998  0  0.974331  0  0  0.102009  0.125748  0  0.977295  0
H  H29  1  0.84552556  0.37822320  0.00406674  1  0  0.110795  0  0.92198  0  0  0.127439  0  0.976234  0  0  0.129857  0  0.974587  0  0  0.101885  0.12561  0  0.977546  0
H  H30  1  0.93891290  0.84911371  0.89491152  1  0  0.085669  0  0.969126  0  0  0.097418  0  1.031698  0  0  0.099998  0  1.030532  0  0  0.097985  0.095376  0  1.032909  0
H  H31  1  0.06111579  0.15080299  0.10507453  1  0  0.085665  0  0.969646  0  0  0.097584  0  1.031973  0  0  0.100158  0  1.030807  0  0  0.098035  0.095542  0  1.033186  0
H  H32  1  0.21133749  0.86423687  0.16367795  1  0  0.095472  0  0.957712  0  0  0.107782  0  1.01798  0  0  0.110516  0  1.017225  0  0  0.100158  0.105858  0  1.018362  0
H  H33  1  0.78868512  0.13569275  0.83630713  1  0  0.095439  0  0.957748  0  0  0.10775  0  1.018057  0  0  0.11048  0  1.017289  0  0  0.10018  0.10582  0  1.018438  0
C  C34  1  0.21817290  0.16740346  0.71548521  1  0  0.159251  0  3.669003  0  0  0.126979  0  3.922418  0  0  0.135559  0  3.93897  0  0  0.062633  0.121114  0  3.912295  0
C  C35  1  0.78181418  0.83260859  0.28453660  1  0  0.159106  0  3.669241  0  0  0.126813  0  3.922754  0  0  0.135395  0  3.939309  0  0  0.062606  0.120947  0  3.912634  0
C  C36  1  0.26961223  0.02972782  0.81712006  1  0  -0.117255  0  3.745685  0  0  -0.130134  0  3.998621  0  0  -0.137008  0  4.021393  0  0  -0.084031  -0.125796  0  3.982977  0
C  C37  1  0.73038705  0.97027594  0.18290546  1  0  -0.117389  0  3.745811  0  0  -0.130204  0  3.998695  0  0  -0.137099  0  4.02145  0  0  -0.08404  -0.125865  0  3.983056  0
C  C38  1  0.34622087  0.88800666  0.79913938  1  0  -0.050243  0  3.702592  0  0  -0.075188  0  3.952544  0  0  -0.073593  0  3.971901  0  0  -0.062606  -0.07552  0  3.938554  0
C  C39  1  0.65377553  0.11200168  0.20088144  1  0  -0.050337  0  3.702677  0  0  -0.075414  0  3.952605  0  0  -0.073827  0  3.971973  0  0  -0.06272  -0.075746  0  3.93862  0
C  C40  1  0.36928506  0.88313528  0.67949136  1  0  0.025596  0  3.792712  0  0  0.041625  0  4.024893  0  0  0.039169  0  4.050095  0  0  0.000801  0.042678  0  4.009431  0
C  C41  1  0.63070770  0.11686941  0.32052290  1  0  0.02582  0  3.792767  0  0  0.041911  0  4.024831  0  0  0.039471  0  4.05004  0  0  0.000944  0.042945  0  4.009352  0
C  C42  1  0.44605730  0.74108241  0.65355616  1  0  -0.087281  0  3.733718  0  0  -0.112056  0  3.994446  0  0  -0.115229  0  4.01679  0  0  -0.079576  -0.110446  0  3.980569  0
C  C43  1  0.55392972  0.25891194  0.34645963  1  0  -0.087446  0  3.733926  0  0  -0.112409  0  3.99469  0  0  -0.115585  0  4.017033  0  0  -0.079731  -0.110803  0  3.980825  0
C  C44  1  0.46101668  0.74129719  0.53606519  1  0  -0.083941  0  3.684779  0  0  -0.109367  0  3.943081  0  0  -0.1124  0  3.964074  0  0  -0.075098  -0.106913  0  3.929932  0
C  C45  1  0.53898826  0.25869917  0.46395106  1  0  -0.083704  0  3.684364  0  0  -0.109182  0  3.942692  0  0  -0.112218  0  3.963688  0  0  -0.074994  -0.106731  0  3.929537  0
C  C46  1  0.40048811  0.88458621  0.43550967  1  0  0.037517  0  3.763877  0  0  0.053114  0  3.998471  0  0  0.05095  0  4.02246  0  0  0.004444  0.053587  0  3.98383  0
C  C47  1  0.59952473  0.11540776  0.56450957  1  0  0.037424  0  3.763539  0  0  0.05304  0  3.998156  0  0  0.050876  0  4.022143  0  0  0.004409  0.05351  0  3.98352  0
C  C48  1  0.41310465  0.88945097  0.31268621  1  0  -0.036004  0  3.644054  0  0  -0.063428  0  3.894424  0  0  -0.060395  0  3.910911  0  0  -0.056323  -0.06486  0  3.882963  0
C  C49  1  0.58690378  0.11054432  0.68733540  1  0  -0.035942  0  3.644273  0  0  -0.063431  0  3.894665  0  0  -0.060397  0  3.91115  0  0  -0.056294  -0.064864  0  3.883202  0
C  C50  1  0.35040194  0.03211490  0.21993220  1  0  -0.126183  0  3.770172  0  0  -0.139313  0  4.031282  0  0  -0.146563  0  4.053443  0  0  -0.084948  -0.134294  0  4.015921  0
C  C51  1  0.64960204  0.96788365  0.78007912  1  0  -0.126031  0  3.77009  0  0  -0.13907  0  4.031142  0  0  -0.146315  0  4.053299  0  0  -0.084921  -0.134048  0  4.015778  0
C  C52  1  0.27563336  0.16876542  0.24974711  1  0  0.133247  0  3.719918  0  0  0.098517  0  3.980376  0  0  0.106578  0  3.99831  0  0  0.050362  0.093424  0  3.968285  0
C  C53  1  0.72435123  0.83123441  0.75025594  1  0  0.133187  0  3.720073  0  0  0.098424  0  3.980546  0  0  0.106493  0  3.99847  0  0  0.050384  0.093331  0  3.968455  0
C  C54  1  0.32489104  0.02883542  0.45730387  1  0  0.128872  0  3.752256  0  0  0.121897  0  3.987828  0  0  0.126099  0  4.0108  0  0  0.119349  0.118858  0  3.974426  0
C  C55  1  0.67511102  0.97116551  0.54270769  1  0  0.128976  0  3.752031  0  0  0.121926  0  3.987651  0  0  0.126139  0  4.010634  0  0  0.1193  0.118871  0  3.974234  0
C  C56  1  0.31012852  0.02818921  0.58193565  1  0  0.134614  0  3.753628  0  0  0.128988  0  3.986935  0  0  0.133365  0  4.009944  0  0  0.121842  0.125256  0  3.974004  0
C  C57  1  0.68986605  0.97181065  0.41807478  1  0  0.13448  0  3.753653  0  0  0.128924  0  3.986798  0  0  0.133252  0  4.009876  0  0  0.121964  0.125263  0  3.973769  0
C  C58  1  0.19392269  0.55144477  0.61063843  1  0  0.716805  0  3.841268  0  0  0.671048  0  4.13692  0  0  0.704829  0  4.129157  0  0  0.206725  0.64793  0  4.141597  0
C  C59  1  0.80607723  0.44859060  0.38935360  1  0  0.716949  0  3.84101  0  0  0.671128  0  4.136756  0  0  0.704925  0  4.128964  0  0  0.206672  0.647992  0  4.141466  0
C  C60  1  0.13975590  0.67802122  0.66967096  1  0  -0.316634  0  3.708979  0  0  -0.359558  0  3.948401  0  0  -0.364882  0  3.956154  0  0  -0.16573  -0.356096  0  3.942586  0
C  C61  1  0.86024679  0.32203292  0.33028954  1  0  -0.316746  0  3.708773  0  0  -0.359485  0  3.948181  0  0  -0.364815  0  3.955933  0  0  -0.165658  -0.356036  0  3.942369  0
C  C62  1  0.06779363  0.84287447  0.57994171  1  0  0.108954  0  3.742348  0  0  0.12826  0  3.983179  0  0  0.12845  0  4.007562  0  0  -0.018625  0.128777  0  3.966708  0
C  C63  1  0.93218625  0.15718014  0.42001953  1  0  0.108701  0  3.74222  0  0  0.12781  0  3.983348  0  0  0.127994  0  4.00774  0  0  -0.018825  0.128331  0  3.966874  0
C  C64  1  0.06310153  0.87805318  0.45277982  1  0  -0.124653  0  3.748371  0  0  -0.145639  0  3.999997  0  0  -0.148006  0  4.021274  0  0  -0.103273  -0.144227  0  3.985983  0
C  C65  1  0.93687905  0.12199199  0.54717898  1  0  -0.124178  0  3.748076  0  0  -0.145124  0  3.999756  0  0  -0.147486  0  4.021031  0  0  -0.103126  -0.143714  0  3.985735  0
C  C66  1  0.00418539  0.96765642  0.62499485  1  0  -0.123893  0  3.758886  0  0  -0.145729  0  4.012081  0  0  -0.148419  0  4.035008  0  0  -0.106443  -0.143469  0  3.996557  0
C  C67  1  0.99577504  0.03239503  0.37496546  1  0  -0.123635  0  3.758385  0  0  -0.145368  0  4.011582  0  0  -0.148063  0  4.034516  0  0  -0.106301  -0.143115  0  3.996064  0
C  C68  1  0.15145620  0.57412609  0.18996941  1  0  0.67346  0  3.899309  0  0  0.63358  0  4.192778  0  0  0.666052  0  4.18905  0  0  0.187877  0.611756  0  4.194548  0
C  C69  1  0.84853306  0.42586422  0.81003107  1  0  0.67326  0  3.899382  0  0  0.633389  0  4.192961  0  0  0.665848  0  4.189248  0  0  0.18796  0.611559  0  4.194719  0
C  C70  1  0.17970520  0.66318285  0.06579802  1  0  -0.295455  0  3.703332  0  0  -0.340562  0  3.947771  0  0  -0.345485  0  3.954574  0  0  -0.162175  -0.337258  0  3.94304  0
C  C71  1  0.82031197  0.33675920  0.93420694  1  0  -0.294639  0  3.702879  0  0  -0.340012  0  3.947616  0  0  -0.344903  0  3.954365  0  0  -0.16194  -0.336664  0  3.942862  0
C  C72  1  0.08692235  0.83682425  0.03208088  1  0  0.117169  0  3.751357  0  0  0.136897  0  3.989088  0  0  0.136931  0  4.014567  0  0  -0.010748  0.136828  0  3.972087  0
C  C73  1  0.91310067  0.16312360  0.96789020  1  0  0.116932  0  3.751538  0  0  0.136652  0  3.989438  0  0  0.136676  0  4.014912  0  0  -0.010828  0.136579  0  3.972424  0
C  C74  1  0.96625770  0.91542631  0.94102499  1  0  -0.132247  0  3.77499  0  0  -0.151504  0  4.02584  0  0  -0.153578  0  4.046475  0  0  -0.096217  -0.150348  0  4.012148  0
C  C75  1  0.03375300  0.08451889  0.05896547  1  0  -0.132175  0  3.775245  0  0  -0.151539  0  4.026063  0  0  -0.153608  0  4.046704  0  0  -0.096157  -0.150383  0  4.012379  0
C  C76  1  0.11895324  0.92375960  0.09127441  1  0  -0.128316  0  3.749624  0  0  -0.148333  0  3.998013  0  0  -0.150851  0  4.019019  0  0  -0.096354  -0.146746  0  3.983733  0
C  C77  1  0.88107235  0.07618955  0.90870224  1  0  -0.128144  0  3.750152  0  0  -0.148142  0  3.998439  0  0  -0.150649  0  4.019443  0  0  -0.096292  -0.146546  0  3.984147  0
N  N78  1  0.23870014  0.16581845  0.60200486  1  0  -0.353952  0  3.273577  0  0  -0.284959  0  3.54218  0  0  -0.304916  0  3.561271  0  0  -0.319996  -0.271691  0  3.530875  0
N  N79  1  0.76128809  0.83418295  0.39801314  1  0  -0.353943  0  3.273794  0  0  -0.284918  0  3.542322  0  0  -0.304855  0  3.561418  0  0  -0.320222  -0.27168  0  3.531017  0
N  N80  1  0.26414888  0.16704420  0.36477479  1  0  -0.3592  0  3.27494  0  0  -0.289242  0  3.54257  0  0  -0.309506  0  3.563774  0  0  -0.319934  -0.275932  0  3.528924  0
N  N81  1  0.73584350  0.83294867  0.63523433  1  0  -0.359276  0  3.275169  0  0  -0.289273  0  3.542784  0  0  -0.309545  0  3.563999  0  0  -0.319986  -0.275954  0  3.529118  0
O  O82  1  0.32626555  0.46276285  0.61999191  1  0  -0.610612  0  1.884749  0  0  -0.569229  0  2.101381  0  0  -0.591358  0  2.092632  0  0  -0.320935  -0.552928  0  2.10709  0
O  O83  1  0.67373595  0.53730181  0.37996815  1  0  -0.610794  0  1.884982  0  0  -0.569353  0  2.101616  0  0  -0.591478  0  2.092846  0  0  -0.320924  -0.553043  0  2.107344  0
O  O84  1  0.09155275  0.54473186  0.54950685  1  0  -0.717264  0  2.115164  0  0  -0.622149  0  2.393026  0  0  -0.65724  0  2.378648  0  0  -0.351407  -0.596796  0  2.40095  0
O  O85  1  0.90844087  0.45526607  0.45051541  1  0  -0.717169  0  2.114878  0  0  -0.62206  0  2.392748  0  0  -0.65716  0  2.378381  0  0  -0.351367  -0.596699  0  2.400675  0
O  O86  1  0.04820507  0.53474829  0.19440043  1  0  -0.65577  0  1.889808  0  0  -0.604335  0  2.111571  0  0  -0.630423  0  2.102296  0  0  -0.346684  -0.586254  0  2.11703  0
O  O87  1  0.95177472  0.46525430  0.80561321  1  0  -0.655845  0  1.889911  0  0  -0.604392  0  2.111678  0  0  -0.630479  0  2.102413  0  0  -0.346791  -0.58631  0  2.117137  0
O  O88  1  0.23635312  0.54360588  0.28431816  1  0  -0.647877  0  1.930929  0  0  -0.580036  0  2.166996  0  0  -0.610143  0  2.158071  0  0  -0.338809  -0.559432  0  2.172154  0
O  O89  1  0.76363017  0.45638240  0.71568833  1  0  -0.647851  0  1.931069  0  0  -0.579966  0  2.167098  0  0  -0.610074  0  2.158181  0  0  -0.338817  -0.559365  0  2.172254  0
