# generated using pymatgen
data_MnH24C54(Br2N5)2
_symmetry_space_group_name_H-M   'P 1'
_cell_length_a   10.66332209
_cell_length_b   10.69720494
_cell_length_c   14.67642185
_cell_angle_alpha   79.48642645
_cell_angle_beta   77.89906685
_cell_angle_gamma   61.81742366
_symmetry_Int_Tables_number   1
_chemical_formula_structural   MnH24C54(Br2N5)2
_chemical_formula_sum   'Mn1 H24 C54 Br4 N10'
_cell_volume   1436.06598213
_cell_formula_units_Z   1
loop_
 _symmetry_equiv_pos_site_id
 _symmetry_equiv_pos_as_xyz
  1  'x, y, z'
loop_
 _atom_site_type_symbol
 _atom_site_label
 _atom_site_symmetry_multiplicity
 _atom_site_fract_x
 _atom_site_fract_y
 _atom_site_fract_z
 _atom_site_occupancy
 _atom_site_hle17_ddec_charge
 _atom_site_hle17_ddec_spin_density
 _atom_site_hle17_ddec_sum_bond_order
 _atom_site_hle17_magmom
 _atom_site_hse06_10hf_ddec_charge
 _atom_site_hse06_10hf_ddec_spin_density
 _atom_site_hse06_10hf_ddec_sum_bond_order
 _atom_site_hse06_10hf_magmom
 _atom_site_hse06_ddec_charge
 _atom_site_hse06_ddec_spin_density
 _atom_site_hse06_ddec_sum_bond_order
 _atom_site_hse06_magmom
 _atom_site_pbe_cm5_charge
 _atom_site_pbe_ddec_charge
 _atom_site_pbe_ddec_spin_density
 _atom_site_pbe_ddec_sum_bond_order
 _atom_site_pbe_magmom
Mn  Mn0  1  0.00000341  0.99999974  0.99999933  1  1.087395  -4.172563  2.427405  -3.995  0.980654  -3.915422  2.938765  -3.745  1.076302  -4.021411  2.868221  -3.849  0.852427  0.909744  -3.816016  2.991726  -3.641
H  H1  1  0.08081743  0.61247653  0.28828383  1  0.121485  0.000635  0.939754  0.001  0.134078  9.6e-05  0.990571  0.0  0.137053  0.000146  0.989629  0.0  0.113092  0.131953  4.9e-05  0.991156  0.0
H  H2  1  0.91918689  0.38752321  0.71171661  1  0.121486  0.000634  0.939799  0.001  0.134101  9.5e-05  0.990582  0.0  0.137078  0.000146  0.989638  0.0  0.1131  0.131983  4.9e-05  0.991166  0.0
H  H3  1  0.92674293  0.86499130  0.36309625  1  0.116102  0.000641  0.953921  0.001  0.128703  7.6e-05  1.006969  0.0  0.131652  0.000137  1.005885  0.0  0.108286  0.126547  1.5e-05  1.007948  0.0
H  H4  1  0.07325853  0.13500630  0.63690558  1  0.116119  0.000643  0.953912  0.001  0.128719  7.6e-05  1.00696  0.0  0.131666  0.000137  1.005878  0.0  0.108296  0.126579  1.5e-05  1.007922  0.0
H  H5  1  0.71845367  0.40634940  0.22543068  1  0.123567  0.000626  0.949017  0.001  0.134599  6.3e-05  1.002863  0.0  0.13782  0.000122  1.001797  0.0  0.111142  0.132406  -8e-06  1.003559  0.0
H  H6  1  0.28155023  0.59364712  0.77456821  1  0.123554  0.000626  0.949017  0.001  0.134588  6.3e-05  1.002863  0.0  0.137809  0.000122  1.001796  0.0  0.111165  0.132396  -8e-06  1.003559  0.0
H  H7  1  0.71957226  0.54152139  0.05055704  1  0.104647  0.001287  0.994069  0.001  0.112303  0.001386  1.059026  0.0  0.114234  0.001376  1.059759  0.0  0.101593  0.110743  0.00143  1.058882  0.0
H  H8  1  0.28043205  0.45847837  0.94944477  1  0.104641  0.001287  0.994128  0.001  0.112282  0.001388  1.059108  0.0  0.11421  0.001377  1.059849  0.0  0.101577  0.11073  0.001431  1.058955  0.0
H  H9  1  0.39367781  0.45910263  0.15489060  1  0.108707  0.000418  0.970034  0.0  0.11556  0.000495  1.036794  0.0  0.118871  0.000525  1.034793  0.0  0.099909  0.113079  0.000494  1.038466  0.0
H  H10  1  0.60631927  0.54089607  0.84511651  1  0.108694  0.000418  0.96996  0.0  0.11555  0.000495  1.03673  0.0  0.118862  0.000525  1.034727  0.0  0.099912  0.113049  0.000493  1.03842  0.0
H  H11  1  0.46484085  0.20709824  0.22320743  1  0.099743  -1.4e-05  0.957678  0.0  0.111171  -1e-06  1.016388  0.0  0.114445  2e-06  1.014529  0.0  0.09884  0.108402  -1e-06  1.018557  0.0
H  H12  1  0.53515486  0.79289935  0.77679661  1  0.099739  -1.4e-05  0.957749  0.0  0.111173  -1e-06  1.016439  0.0  0.114449  2e-06  1.01458  0.0  0.098841  0.108403  -1e-06  1.018612  0.0
H  H13  1  0.06168367  0.24459495  0.17669853  1  0.105894  3e-06  0.964424  0.0  0.114162  6e-05  1.028649  0.0  0.116505  6.6e-05  1.028979  0.0  0.099463  0.113126  3.7e-05  1.027545  0.0
H  H14  1  0.93831404  0.75540682  0.82329512  1  0.105817  4e-06  0.964267  0.0  0.114101  6.1e-05  1.028494  0.0  0.116457  6.6e-05  1.028787  0.0  0.099462  0.113067  3.7e-05  1.02739  0.0
H  H15  1  0.99251532  0.49414209  0.10803409  1  0.102613  0.000627  0.965031  0.0  0.110141  0.000628  1.031805  0.0  0.112752  0.000689  1.031159  0.0  0.100306  0.10797  0.000582  1.032983  0.0
H  H16  1  0.00748575  0.50585863  0.89195920  1  0.102589  0.000628  0.96511  0.0  0.110107  0.000628  1.031898  0.0  0.11272  0.000691  1.031244  0.0  0.100323  0.107937  0.000583  1.033076  0.0
H  H17  1  0.02509957  0.07335920  0.35583305  1  0.089862  -8e-06  0.981394  0.0  0.093321  1e-06  1.057542  0.0  0.0965  3e-06  1.05597  0.0  0.090517  0.091168  1.7e-05  1.058458  0.0
H  H18  1  0.97489961  0.92663302  0.64416644  1  0.089881  -7e-06  0.981335  0.0  0.09334  1e-06  1.057481  0.0  0.096519  3e-06  1.055907  0.0  0.090546  0.091189  1.7e-05  1.058398  0.0
H  H19  1  0.93862008  0.15943621  0.51370305  1  0.101153  -2e-06  0.953308  0.0  0.113447  -2e-05  1.011194  0.0  0.116185  -1.6e-05  1.010262  0.0  0.101078  0.111445  -8e-06  1.012055  0.0
H  H20  1  0.06138295  0.84055389  0.48629615  1  0.101136  -3e-06  0.953239  0.0  0.113443  -2.1e-05  1.01112  0.0  0.116181  -1.6e-05  1.010184  0.0  0.101081  0.111442  -8e-06  1.01198  0.0
H  H21  1  0.49983900  0.32436672  0.46606861  1  0.107036  8e-06  0.940898  0.0  0.117561  6e-06  0.997924  0.0  0.121185  3e-06  0.995864  0.0  0.103446  0.115005  1e-06  0.999386  0.0
H  H22  1  0.50016241  0.67563303  0.53393499  1  0.106999  8e-06  0.940854  0.0  0.117502  6e-06  0.997921  0.0  0.121127  3e-06  0.99586  0.0  0.10342  0.114946  1e-06  0.999383  0.0
H  H23  1  0.58689063  0.23825068  0.30836845  1  0.09253  -7e-06  0.958831  0.0  0.10543  2e-06  1.016385  0.0  0.107712  5e-06  1.015699  0.0  0.101715  0.103603  5e-06  1.017428  0.0
H  H24  1  0.41310599  0.76175118  0.69163489  1  0.09255  -6e-06  0.958777  0.0  0.105403  2e-06  1.01638  0.0  0.107683  6e-06  1.015697  0.0  0.10171  0.103576  5e-06  1.017423  0.0
C  C25  1  0.67106956  0.01509745  0.98638857  1  0.303444  0.002605  3.727969  -0.001  0.294003  -0.004437  3.992191  -0.009  0.308661  -0.002757  4.008069  -0.006  0.214715  0.283142  -0.005575  3.981845  -0.01
C  C26  1  0.32892563  0.98490970  0.01361017  1  0.303472  0.00262  3.727911  -0.001  0.294058  -0.004439  3.992138  -0.009  0.308717  -0.00276  4.008014  -0.006  0.214753  0.283199  -0.005578  3.981794  -0.01
C  C27  1  0.52923048  0.04671846  0.97668401  1  -0.01913  0.02571  3.838841  0.005  -0.018361  0.049339  4.084471  0.021  -0.021365  0.036062  4.104971  0.011  0.016669  -0.015979  0.054399  4.069783  0.025
C  C28  1  0.47077138  0.95329298  0.02331181  1  -0.018825  0.025686  3.838358  0.005  -0.018117  0.049327  4.084143  0.021  -0.02112  0.036046  4.104644  0.011  0.016832  -0.015743  0.054383  4.069456  0.025
C  C29  1  0.46177220  0.17159167  0.91594399  1  -0.070075  0.284913  3.880431  0.195  -0.062062  0.22937  4.126782  0.145  -0.06171  0.254836  4.138047  0.164  0.005322  -0.061811  0.211595  4.11812  0.132
C  C30  1  0.53822419  0.82842731  0.08406047  1  -0.070074  0.284913  3.880101  0.195  -0.062208  0.229365  4.126742  0.145  -0.061859  0.254835  4.138016  0.164  0.005322  -0.061946  0.211599  4.118069  0.132
C  C31  1  0.32782891  0.21901004  0.88595403  1  0.236301  -0.066497  3.812574  -0.072  0.223375  -0.016756  4.091695  -0.029  0.231176  -0.030679  4.107934  -0.042  0.171832  0.218264  -0.008567  4.079772  -0.022
C  C32  1  0.67217561  0.78100580  0.11405239  1  0.236628  -0.066395  3.812976  -0.072  0.223747  -0.01673  4.092113  -0.029  0.231546  -0.030631  4.108354  -0.042  0.171892  0.218628  -0.008552  4.080189  -0.022
C  C33  1  0.53209535  0.25624796  0.87554677  1  0.244026  -0.064483  3.813142  -0.07  0.227832  -0.016135  4.095713  -0.029  0.235629  -0.030071  4.112987  -0.042  0.172966  0.222795  -0.007855  4.083103  -0.021
C  C34  1  0.46790929  0.74376992  0.12444981  1  0.243766  -0.06455  3.813145  -0.07  0.227617  -0.016159  4.095799  -0.029  0.235412  -0.030099  4.113083  -0.042  0.172792  0.222576  -0.007867  4.083179  -0.022
C  C35  1  0.06746245  0.75027202  0.15285607  1  0.226859  -0.007599  3.777386  -0.007  0.211652  -0.009647  4.039403  -0.009  0.2215  -0.008767  4.060848  -0.008  0.107416  0.204049  -0.010445  4.024919  -0.009
C  C36  1  0.93254002  0.24972344  0.84714454  1  0.226901  -0.007619  3.777274  -0.007  0.211624  -0.009649  4.03933  -0.009  0.221473  -0.008778  4.060775  -0.008  0.107416  0.204021  -0.010449  4.024848  -0.009
C  C37  1  0.04384060  0.71907253  0.25244505  1  -0.124055  -0.005645  3.707377  -0.003  -0.14852  -0.008579  3.964448  -0.005  -0.150278  -0.005835  3.980796  -0.004  -0.083832  -0.14624  -0.012251  3.952362  -0.008
C  C38  1  0.95616331  0.28092399  0.74755385  1  -0.124069  -0.005609  3.7074  -0.003  -0.148546  -0.00858  3.964485  -0.005  -0.150305  -0.005826  3.980834  -0.004  -0.083817  -0.14627  -0.01225  3.95241  -0.008
C  C39  1  0.96676076  0.84638619  0.29009580  1  -0.149501  -0.006873  3.722407  -0.004  -0.170907  -0.009472  3.976744  -0.006  -0.17389  -0.006668  3.994606  -0.004  -0.091554  -0.168833  -0.011665  3.964206  -0.007
C  C40  1  0.03324073  0.15360927  0.70990564  1  -0.149539  -0.006908  3.722519  -0.004  -0.170948  -0.009471  3.976883  -0.006  -0.17393  -0.006675  3.994746  -0.004  -0.091589  -0.168888  -0.011665  3.964346  -0.007
C  C41  1  0.94307650  0.95692006  0.21384436  1  0.215861  -0.006951  3.790982  -0.007  0.202066  -0.008909  4.050356  -0.008  0.211477  -0.008115  4.073705  -0.008  0.100858  0.195991  -0.010383  4.033614  -0.01
C  C42  1  0.05692211  0.04307751  0.78615653  1  0.215902  -0.006925  3.791099  -0.007  0.202079  -0.008916  4.050463  -0.008  0.211487  -0.008108  4.073812  -0.008  0.100865  0.196014  -0.010382  4.033734  -0.01
C  C43  1  0.86509509  0.10266202  0.22465259  1  -0.089541  0.008616  3.740366  0.006  -0.081519  0.006333  3.985492  0.004  -0.086464  0.006701  4.00859  0.005  0.002366  -0.078506  0.005946  3.969581  0.004
C  C44  1  0.13490063  0.89733980  0.77534680  1  -0.089612  0.008575  3.740402  0.006  -0.081565  0.006345  3.985545  0.004  -0.086505  0.006692  4.008641  0.004  0.00234  -0.078586  0.005946  3.969677  0.004
C  C45  1  0.83769458  0.20901166  0.14944948  1  0.199376  -0.006804  3.803973  -0.007  0.186576  -0.008969  4.06367  -0.009  0.195808  -0.008088  4.086457  -0.008  0.096705  0.180136  -0.010146  4.047893  -0.009
C  C46  1  0.16230693  0.79098591  0.85054894  1  0.199456  -0.006782  3.804004  -0.007  0.186617  -0.008974  4.063703  -0.009  0.195846  -0.008078  4.086494  -0.008  0.096735  0.180188  -0.010146  4.047935  -0.009
C  C47  1  0.76368667  0.35935529  0.15947318  1  -0.145739  -0.006719  3.704877  -0.004  -0.164504  -0.009489  3.953227  -0.006  -0.167651  -0.006758  3.971202  -0.004  -0.09138  -0.162602  -0.011827  3.941457  -0.008
C  C48  1  0.23631482  0.64064442  0.84052564  1  -0.145712  -0.006729  3.704763  -0.004  -0.164475  -0.009489  3.953124  -0.006  -0.167621  -0.00676  3.971099  -0.004  -0.091446  -0.162573  -0.011827  3.941356  -0.008
C  C49  1  0.76415060  0.42819812  0.07138455  1  -0.138246  -0.005746  3.722443  -0.003  -0.157043  -0.008643  3.969823  -0.005  -0.159765  -0.006013  3.989305  -0.004  -0.091991  -0.155141  -0.010701  3.957494  -0.007
C  C50  1  0.23585468  0.57180162  0.92861575  1  -0.138247  -0.005735  3.722385  -0.003  -0.157029  -0.008647  3.969785  -0.005  -0.159756  -0.006008  3.989271  -0.004  -0.091907  -0.155134  -0.010703  3.957452  -0.007
C  C51  1  0.16171740  0.67828764  0.99319200  1  0.208677  -0.0073  3.795079  -0.007  0.196525  -0.009447  4.048041  -0.009  0.205265  -0.008545  4.071355  -0.008  0.100753  0.190412  -0.010339  4.031866  -0.01
C  C52  1  0.83828408  0.32170994  0.00680847  1  0.208695  -0.007311  3.795008  -0.007  0.196583  -0.009449  4.047937  -0.009  0.205327  -0.008543  4.071245  -0.008  0.100778  0.190467  -0.010341  4.031763  -0.01
C  C53  1  0.13922574  0.64656326  0.08990788  1  -0.064645  0.009527  3.70859  0.007  -0.056668  0.006688  3.949528  0.004  -0.060773  0.007209  3.970994  0.005  0.014625  -0.0534  0.00619  3.934903  0.004
C  C54  1  0.86077958  0.35343222  0.91009298  1  -0.064692  0.009551  3.708593  0.007  -0.056665  0.006691  3.949483  0.004  -0.060776  0.007215  3.970951  0.005  0.014601  -0.053395  0.006193  3.934856  0.004
C  C55  1  0.18793606  0.49361572  0.12747791  1  0.059157  0.000989  3.777651  0.0  0.076343  0.001463  4.007009  0.001  0.075664  0.001377  4.032616  0.001  -0.00446  0.076635  0.001677  3.989458  0.001
C  C56  1  0.81206308  0.50638076  0.87252033  1  0.05911  0.00098  3.777578  0.0  0.076259  0.001474  4.006971  0.001  0.075579  0.001384  4.032584  0.001  -0.004455  0.076551  0.001677  3.989415  0.001
C  C57  1  0.32174110  0.41157205  0.15906512  1  -0.097332  -0.00024  3.718727  0.0  -0.116157  0.000149  3.96201  0.0  -0.117976  -1.8e-05  3.982504  0.0  -0.087084  -0.11499  0.000409  3.948281  0.0
C  C58  1  0.67825941  0.58842766  0.84093453  1  -0.097247  -0.000233  3.718719  0.0  -0.116065  0.000143  3.962005  0.0  -0.117884  -2.1e-05  3.982501  0.0  -0.087045  -0.114882  0.000409  3.948284  0.0
C  C59  1  0.36132700  0.27103799  0.19806786  1  -0.130968  0.000666  3.792237  0.0  -0.15121  0.000549  4.04109  0.0  -0.154703  0.000571  4.063223  0.0  -0.106311  -0.148898  0.000874  4.026419  0.0
C  C60  1  0.63866726  0.72896065  0.80193625  1  -0.130965  0.000659  3.792314  0.0  -0.151213  0.000543  4.041136  0.0  -0.154708  0.00057  4.063269  0.0  -0.106338  -0.148902  0.000874  4.026464  0.0
C  C61  1  0.26588816  0.21340751  0.20594665  1  0.087024  -0.000274  3.746011  -0.001  0.101545  0.000173  4.013365  0.0  0.104024  -7.5e-05  4.037292  0.0  -0.025167  0.099945  0.000484  3.997245  0.0
C  C62  1  0.73411344  0.78658787  0.79404728  1  0.086987  -0.00027  3.746022  -0.001  0.101524  0.000181  4.013362  0.0  0.104001  -7.4e-05  4.037292  0.0  -0.02516  0.099926  0.000485  3.997241  0.0
C  C63  1  0.13462533  0.29110818  0.17173958  1  -0.118637  0.0017  3.763683  0.001  -0.136646  0.001767  4.008796  0.001  -0.139683  0.00172  4.03086  0.001  -0.102574  -0.135106  0.0014  3.993807  0.001
C  C64  1  0.86537435  0.70888721  0.82825532  1  -0.118436  0.001693  3.763566  0.001  -0.136446  0.001761  4.00865  0.001  -0.139481  0.001717  4.030723  0.001  -0.102513  -0.134909  0.001398  3.993663  0.001
C  C65  1  0.09652596  0.43116369  0.13260389  1  -0.088614  -0.000171  3.709216  0.0  -0.107417  0.000254  3.951515  0.0  -0.109203  0.000145  3.971973  0.0  -0.083241  -0.106212  0.000533  3.938314  0.0
C  C66  1  0.90347802  0.56883490  0.86738790  1  -0.088659  -0.000163  3.70934  0.0  -0.107466  0.000251  3.951678  0.0  -0.109254  0.000144  3.972144  0.0  -0.083306  -0.106261  0.000534  3.938479  0.0
C  C67  1  0.81210052  0.14900173  0.32095168  1  0.058578  -0.000822  3.794248  -0.001  0.073633  -0.000288  4.025976  -0.001  0.073254  -0.000359  4.051858  -0.001  -0.008351  0.073922  -0.000307  4.008127  -0.001
C  C68  1  0.18789477  0.85099475  0.67904849  1  0.058484  -0.000807  3.79432  -0.001  0.073492  -0.000291  4.026113  -0.001  0.073107  -0.000361  4.052016  -0.001  -0.008435  0.073792  -0.000307  4.008269  -0.001
C  C69  1  0.90989612  0.12699830  0.38009410  1  -0.100613  0.000757  3.734248  0.001  -0.11768  0.000426  3.97963  0.0  -0.120226  0.000465  4.000952  0.0  -0.088549  -0.115821  0.000444  3.965033  0.0
C  C70  1  0.09010160  0.87299711  0.61990449  1  -0.100711  0.000739  3.734156  0.001  -0.117766  0.000427  3.979588  0.0  -0.120312  0.000466  4.000909  0.0  -0.088609  -0.115906  0.000444  3.96499  0.0
C  C71  1  0.86177566  0.17598601  0.46874717  1  -0.115485  -0.000248  3.773774  0.0  -0.134441  6.4e-05  4.016302  0.0  -0.137326  -2.4e-05  4.038261  0.0  -0.099857  -0.132625  7.9e-05  4.001946  0.0
C  C72  1  0.13822780  0.82400730  0.53125222  1  -0.115364  -0.000236  3.773489  0.0  -0.134338  6.8e-05  4.01606  0.0  -0.137219  -2.3e-05  4.038013  0.0  -0.099815  -0.132523  7.9e-05  4.001705  0.0
C  C73  1  0.71437100  0.24686776  0.49894595  1  0.087097  0.001227  3.7459  0.001  0.102675  0.001009  4.011559  0.001  0.105637  0.000985  4.03447  0.001  -0.022478  0.100371  0.001059  3.996259  0.001
C  C74  1  0.28563337  0.75312772  0.50105506  1  0.087067  0.001212  3.745792  0.001  0.102628  0.001004  4.011471  0.001  0.105591  0.000984  4.034382  0.001  -0.022482  0.100324  0.001059  3.996171  0.001
C  C75  1  0.61472855  0.26894128  0.44199211  1  -0.120157  -0.000258  3.789705  0.0  -0.143418  3.7e-05  4.041154  0.0  -0.145788  -3e-05  4.061565  0.0  -0.099523  -0.141849  5.9e-05  4.027313  0.0
C  C76  1  0.38527096  0.73106058  0.55800943  1  -0.120085  -0.000245  3.789601  0.0  -0.14331  4.1e-05  4.041025  0.0  -0.14568  -2.8e-05  4.061435  0.0  -0.099484  -0.141742  5.9e-05  4.027184  0.0
C  C77  1  0.66450687  0.22011307  0.35328014  1  -0.095407  0.000774  3.736165  0.001  -0.113767  0.000479  3.980864  0.0  -0.115931  0.000502  4.002109  0.0  -0.085888  -0.112092  0.000455  3.966552  0.0
C  C78  1  0.33548978  0.77988877  0.64672115  1  -0.095386  0.000756  3.736099  0.001  -0.113691  0.000479  3.980805  0.0  -0.115855  0.000502  4.002052  0.0  -0.085843  -0.112016  0.000456  3.966489  0.0
Br  Br79  1  0.31258697  0.02679516  0.26822779  1  -0.100206  0.002804  1.312589  0.002  -0.096188  0.004161  1.559622  0.002  -0.100437  0.00317  1.553556  0.002  0.022643  -0.093006  0.004776  1.563565  0.003
Br  Br80  1  0.68740924  0.97320559  0.73177167  1  -0.100228  0.002801  1.312588  0.002  -0.096227  0.004158  1.559622  0.002  -0.100477  0.003168  1.553554  0.002  0.022628  -0.093043  0.004771  1.563566  0.003
Br  Br81  1  0.64951172  0.31337754  0.62018669  1  -0.065666  0.001694  1.292129  0.0  -0.057313  0.002225  1.533542  0.001  -0.063233  0.002061  1.526812  0.001  0.033566  -0.053297  0.001948  1.538026  0.0
Br  Br82  1  0.35049458  0.68661581  0.37981501  1  -0.06565  0.001695  1.292042  0.0  -0.057289  0.002228  1.533458  0.001  -0.063209  0.002061  1.526724  0.001  0.033577  -0.053273  0.001951  1.53794  0.0
N  N83  1  0.78783067  0.99477288  0.98876518  1  -0.356429  -0.031048  2.749049  -0.023  -0.33003  -0.029196  3.007247  -0.02  -0.347475  -0.03191  3.015753  -0.023  -0.258858  -0.3177  -0.029017  3.0022  -0.019
N  N84  1  0.21216799  0.00522467  0.01123299  1  -0.356459  -0.03108  2.749265  -0.023  -0.330076  -0.029214  3.007496  -0.02  -0.347521  -0.031924  3.016  -0.023  -0.258897  -0.317748  -0.029035  3.002453  -0.019
N  N85  1  0.21880915  0.26671313  0.85620008  1  -0.332997  0.173234  2.541977  0.137  -0.31758  0.118587  2.761197  0.088  -0.325094  0.13656  2.77491  0.102  -0.275296  -0.311894  0.107574  2.751566  0.079
N  N86  1  0.78118108  0.73330261  0.14380437  1  -0.333353  0.173003  2.542734  0.137  -0.317925  0.118468  2.761932  0.088  -0.325439  0.136411  2.775644  0.102  -0.27545  -0.312241  0.107476  2.752304  0.079
N  N87  1  0.58477909  0.33084342  0.84005522  1  -0.350045  0.167594  2.580688  0.133  -0.331211  0.118108  2.814808  0.088  -0.339371  0.134768  2.827551  0.102  -0.283763  -0.324912  0.108116  2.805408  0.08
N  N88  1  0.41521555  0.66916907  0.15994357  1  -0.349836  0.167769  2.580449  0.133  -0.331002  0.118217  2.814566  0.088  -0.339156  0.134887  2.827307  0.102  -0.283551  -0.324706  0.108209  2.805169  0.08
N  N89  1  0.00560999  0.89642860  0.12991819  1  -0.433028  0.059492  3.124538  0.066  -0.381432  0.027465  3.418469  0.038  -0.415527  0.038247  3.439535  0.048  -0.359582  -0.357016  0.018492  3.403903  0.031
N  N90  1  0.99439056  0.10356685  0.87008271  1  -0.433036  0.059479  3.124622  0.066  -0.381348  0.027465  3.418487  0.038  -0.415437  0.038238  3.439544  0.048  -0.359589  -0.356937  0.018487  3.403927  0.031
N  N91  1  0.88249856  0.18745327  0.05540918  1  -0.437025  0.057489  3.148016  0.064  -0.383072  0.02626  3.438876  0.038  -0.41741  0.037002  3.460956  0.047  -0.366371  -0.358157  0.017984  3.42312  0.031
N  N92  1  0.11750485  0.81254432  0.94459032  1  -0.437085  0.057482  3.148153  0.064  -0.383031  0.02627  3.438935  0.038  -0.417375  0.037  3.461026  0.047  -0.366376  -0.358122  0.017985  3.423181  0.031
