# generated using pymatgen
data_CdH8C9O8
_symmetry_space_group_name_H-M   'P 1'
_cell_length_a   9.14744249
_cell_length_b   10.81912747
_cell_length_c   13.23167953
_cell_angle_alpha   95.64050062
_cell_angle_beta   110.66563686
_cell_angle_gamma   114.87871926
_symmetry_Int_Tables_number   1
_chemical_formula_structural   CdH8C9O8
_chemical_formula_sum   'Cd4 H32 C36 O32'
_cell_volume   1063.53904449
_cell_formula_units_Z   4
loop_
 _symmetry_equiv_pos_site_id
 _symmetry_equiv_pos_as_xyz
  1  'x, y, z'
loop_
 _atom_site_type_symbol
 _atom_site_label
 _atom_site_symmetry_multiplicity
 _atom_site_fract_x
 _atom_site_fract_y
 _atom_site_fract_z
 _atom_site_occupancy
 _atom_site_hle17_bader_spin_density
 _atom_site_hle17_ddec_charge
 _atom_site_hle17_ddec_spin_density
 _atom_site_hle17_ddec_sum_bond_order
 _atom_site_hle17_magmom
 _atom_site_hse06_10hf_bader_spin_density
 _atom_site_hse06_10hf_ddec_charge
 _atom_site_hse06_10hf_ddec_spin_density
 _atom_site_hse06_10hf_ddec_sum_bond_order
 _atom_site_hse06_10hf_magmom
 _atom_site_hse06_bader_spin_density
 _atom_site_hse06_ddec_charge
 _atom_site_hse06_ddec_spin_density
 _atom_site_hse06_ddec_sum_bond_order
 _atom_site_hse06_magmom
 _atom_site_pbe_bader_charge
 _atom_site_pbe_bader_spin_density
 _atom_site_pbe_cm5_charge
 _atom_site_pbe_ddec_charge
 _atom_site_pbe_ddec_spin_density
 _atom_site_pbe_ddec_sum_bond_order
 _atom_site_pbe_magmom
Cd  Cd0  1  0.52101278  0.43090932  0.80543982  1  0  1.256737  0  1.561724  0  0  1.083158  0  2.000522  0  0  1.14244  0  1.939633  0  1.339771  0  0.776601  1.040478  0  2.042689  0
Cd  Cd1  1  0.78199463  0.06953506  0.69398398  1  0  1.258556  0  1.55688  0  0  1.084506  0  1.995355  0  0  1.143901  0  1.934359  0  1.340116  0  0.777872  1.041801  0  2.037551  0
Cd  Cd2  1  0.47898864  0.56909032  0.19456168  1  0  1.256727  0  1.561771  0  0  1.083125  0  2.000569  0  0  1.142409  0  1.939682  0  1.339763  0  0.776576  1.040444  0  2.042737  0
Cd  Cd3  1  0.21800373  0.93046351  0.30601602  1  0  1.258531  0  1.556894  0  0  1.084486  0  1.99537  0  0  1.143882  0  1.934371  0  1.340103  0  0.777861  1.041782  0  2.037565  0
H  H4  1  0.83836924  0.73304748  0.51965534  1  0  0.117252  0  0.943415  0  0  0.12587  0  1.007061  0  0  0.129454  0  1.003739  0  0.136509  0  0.115475  0.123226  0  1.009549  0
H  H5  1  0.08806347  0.76772983  0.97913522  1  0  0.118049  0  0.941383  0  0  0.126772  0  1.004808  0  0  0.130397  0  1.001464  0  0.120171  0  0.116349  0.124142  0  1.00721  0
H  H6  1  0.16163129  0.26695215  0.48034643  1  0  0.117244  0  0.943403  0  0  0.125861  0  1.007039  0  0  0.129445  0  1.003718  0  0.136514  0  0.115473  0.123217  0  1.009527  0
H  H7  1  0.91193555  0.23226981  0.02086503  1  0  0.118077  0  0.94136  0  0  0.126801  0  1.004783  0  0  0.130426  0  1.001438  0  0.120196  0  0.116366  0.124171  0  1.007186  0
H  H8  1  0.29904278  0.68163570  0.57109091  1  0  0.11284  0  0.945929  0  0  0.12033  0  1.011338  0  0  0.124492  0  1.007306  0  0.120049  0  0.112421  0.11727  0  1.014326  0
H  H9  1  0.54774219  0.81790534  0.92884888  1  0  0.113265  0  0.945731  0  0  0.120287  0  1.012043  0  0  0.124399  0  1.007977  0  0.12598  0  0.112279  0.117237  0  1.015128  0
H  H10  1  0.70095725  0.31836393  0.42890803  1  0  0.112877  0  0.945939  0  0  0.120334  0  1.011399  0  0  0.124499  0  1.007365  0  0.120086  0  0.112418  0.117273  0  1.014386  0
H  H11  1  0.45225716  0.18209216  0.07115137  1  0  0.113282  0  0.945695  0  0  0.1203  0  1.012022  0  0  0.124413  0  1.007955  0  0.126015  0  0.112286  0.117236  0  1.015142  0
H  H12  1  0.97433262  0.49397026  0.74064334  1  0  0.104401  0  0.959123  0  0  0.111834  0  1.026106  0  0  0.115991  0  1.021679  0  0.11974  0  0.111927  0.108802  0  1.029278  0
H  H13  1  0.23834382  0.00665940  0.75856339  1  0  0.107327  0  0.957186  0  0  0.114071  0  1.02425  0  0  0.118255  0  1.019778  0  0.126338  0  0.112878  0.111039  0  1.027417  0
H  H14  1  0.02566982  0.50602938  0.25935685  1  0  0.104421  0  0.959103  0  0  0.111826  0  1.026104  0  0  0.116  0  1.021656  0  0.119736  0  0.111942  0.108794  0  1.029274  0
H  H15  1  0.76165467  0.99333917  0.24143558  1  0  0.107307  0  0.957228  0  0  0.114049  0  1.024287  0  0  0.11823  0  1.019818  0  0.126309  0  0.112864  0.111017  0  1.027454  0
H  H16  1  0.53531858  0.60301877  0.63698382  1  0  0.425602  0  0.854167  0  0  0.393962  0  0.933291  0  0  0.40662  0  0.916702  0  0.668513  0  0.316968  0.385014  0  0.943461  0
H  H17  1  0.79607141  0.89726446  0.86278546  1  0  0.425169  0  0.858274  0  0  0.393475  0  0.936166  0  0  0.406138  0  0.918075  0  0.659148  0  0.31674  0.384539  0  0.946901  0
H  H18  1  0.46468340  0.39698300  0.36301741  1  0  0.425619  0  0.854141  0  0  0.393987  0  0.933249  0  0  0.406645  0  0.916663  0  0.668512  0  0.316988  0.385039  0  0.943417  0
H  H19  1  0.20393093  0.10273624  0.13721421  1  0  0.425185  0  0.858295  0  0  0.393484  0  0.936169  0  0  0.406148  0  0.918076  0  0.659149  0  0.316744  0.384548  0  0.946932  0
H  H20  1  0.61077095  0.65521745  0.99790966  1  0  0.432151  0  0.866382  0  0  0.401251  0  0.929598  0  0  0.412363  0  0.913404  0  0.653541  0  0.290964  0.39334  0  0.941124  0
H  H21  1  0.45543243  0.84344831  0.50137343  1  0  0.432633  0  0.865978  0  0  0.400907  0  0.930809  0  0  0.412102  0  0.914469  0  0.666917  0  0.290798  0.392946  0  0.942404  0
H  H22  1  0.38922731  0.34478219  0.00208983  1  0  0.432255  0  0.866237  0  0  0.401333  0  0.929498  0  0  0.412445  0  0.913305  0  0.653524  0  0.290996  0.393423  0  0.941023  0
H  H23  1  0.54456813  0.15655239  0.49862679  1  0  0.43266  0  0.865942  0  0  0.400907  0  0.930792  0  0  0.412118  0  0.914439  0  0.666923  0  0.290801  0.392946  0  0.942386  0
H  H24  1  0.37496122  0.13768160  0.67415254  1  0  0.431145  0  0.865579  0  0  0.399833  0  0.92989  0  0  0.411038  0  0.913545  0  0.643171  0  0.293724  0.391822  0  0.941574  0
H  H25  1  0.06246373  0.36252640  0.82547180  1  0  0.432177  0  0.863063  0  0  0.399929  0  0.928708  0  0  0.411155  0  0.912357  0  0.63527  0  0.294124  0.391904  0  0.940384  0
H  H26  1  0.62503782  0.86231910  0.32584616  1  0  0.431111  0  0.865624  0  0  0.399802  0  0.929929  0  0  0.411008  0  0.913582  0  0.643162  0  0.293703  0.391791  0  0.941613  0
H  H27  1  0.93753541  0.63747324  0.17452742  1  0  0.432184  0  0.863049  0  0  0.399925  0  0.928714  0  0  0.411151  0  0.912363  0  0.635226  0  0.294119  0.391901  0  0.940389  0
H  H28  1  0.21193960  0.17354376  0.62690003  1  0  0.439837  0  0.847593  0  0  0.408138  0  0.911975  0  0  0.41923  0  0.895733  0  0.682265  0  0.296551  0.400248  0  0.923509  0
H  H29  1  0.91180705  0.32750224  0.87246841  1  0  0.441682  0  0.843393  0  0  0.40984  0  0.907766  0  0  0.420863  0  0.891602  0  0.651425  0  0.297995  0.401994  0  0.919243  0
H  H30  1  0.78806085  0.82645800  0.37309968  1  0  0.439845  0  0.847575  0  0  0.408148  0  0.911955  0  0  0.419241  0  0.895713  0  0.682266  0  0.29656  0.400258  0  0.923489  0
H  H31  1  0.08819417  0.67249952  0.12753206  1  0  0.441643  0  0.843435  0  0  0.409805  0  0.907803  0  0  0.420828  0  0.89164  0  0.651424  0  0.297955  0.401959  0  0.91928  0
H  H32  1  0.79749767  0.66721374  0.01651216  1  0  0.427696  0  0.858139  0  0  0.402044  0  0.913378  0  0  0.412185  0  0.898501  0  0.607242  0  0.294971  0.394753  0  0.924087  0
H  H33  1  0.61331802  0.83396394  0.48344463  1  0  0.428703  0  0.855238  0  0  0.402974  0  0.911553  0  0  0.413137  0  0.896657  0  0.622143  0  0.295924  0.395689  0  0.922223  0
H  H34  1  0.20250124  0.33278696  0.98348757  1  0  0.427689  0  0.858132  0  0  0.402046  0  0.913365  0  0  0.412186  0  0.898491  0  0.607261  0  0.29498  0.394756  0  0.924072  0
H  H35  1  0.38668026  0.16603676  0.51655331  1  0  0.428676  0  0.855286  0  0  0.402928  0  0.911619  0  0  0.413097  0  0.896716  0  0.622149  0  0.295891  0.395643  0  0.922289  0
C  C36  1  0.89129867  0.60956104  0.63247153  1  0  -0.097007  0  3.778037  0  0  -0.07088  0  4.018857  0  0  -0.084105  0  4.043235  0  -0.000481  0  -0.019373  -0.062505  0  4.002474  0
C  C37  1  0.14986863  0.89114492  0.86656454  1  0  -0.093137  0  3.778258  0  0  -0.066752  0  4.018639  0  0  -0.080013  0  4.043076  0  0.02364  0  -0.016879  -0.058321  0  4.002287  0
C  C38  1  0.10870416  0.39043966  0.36753097  1  0  -0.097135  0  3.778013  0  0  -0.071023  0  4.018873  0  0  -0.084247  0  4.043255  0  -0.000442  0  -0.019454  -0.06265  0  4.002491  0
C  C39  1  0.85012986  0.10885365  0.13343443  1  0  -0.093035  0  3.778262  0  0  -0.066667  0  4.018657  0  0  -0.079928  0  4.043094  0  0.02359  0  -0.016844  -0.058236  0  4.002308  0
C  C40  1  0.92587293  0.69099443  0.55958046  1  0  -0.021086  0  3.633459  0  0  -0.06387  0  3.885723  0  0  -0.057006  0  3.901734  0  -0.027269  0  -0.058592  -0.067928  0  3.874798  0
C  C41  1  0.17693098  0.80954009  0.93935683  1  0  -0.024064  0  3.641671  0  0  -0.068149  0  3.894973  0  0  -0.061337  0  3.911081  0  -0.057242  0  -0.060992  -0.072166  0  3.883867  0
C  C42  1  0.07412892  0.30900733  0.44042180  1  0  -0.021013  0  3.633468  0  0  -0.063782  0  3.885726  0  0  -0.056918  0  3.901736  0  -0.027274  0  -0.058547  -0.067839  0  3.8748  0
C  C43  1  0.82306607  0.19045635  0.06064269  1  0  -0.024128  0  3.641804  0  0  -0.068215  0  3.895123  0  0  -0.061399  0  3.91123  0  -0.057264  0  -0.061054  -0.072232  0  3.884018  0
C  C44  1  0.07303499  0.71655337  0.53734259  1  0  -0.077138  0  3.747771  0  0  -0.050509  0  3.989034  0  0  -0.062676  0  4.012423  0  0.001916  0  -0.016885  -0.042944  0  3.973555  0
C  C45  1  0.32088911  0.78349772  0.96183315  1  0  -0.077724  0  3.75224  0  0  -0.049439  0  3.991675  0  0  -0.061702  0  4.01521  0  0.023247  0  -0.016098  -0.041787  0  3.976014  0
C  C46  1  0.92696610  0.28344839  0.46265891  1  0  -0.077098  0  3.747847  0  0  -0.050453  0  3.989091  0  0  -0.06262  0  4.012479  0  0.001955  0  -0.016874  -0.042889  0  3.973611  0
C  C47  1  0.67910717  0.21649872  0.03816561  1  0  -0.077862  0  3.752434  0  0  -0.049548  0  3.991873  0  0  -0.061817  0  4.01541  0  0.023236  0  -0.01611  -0.041895  0  3.976209  0
C  C48  1  0.18527107  0.66224847  0.58895567  1  0  -0.027414  0  3.65287  0  0  -0.070547  0  3.906793  0  0  -0.06438  0  3.923563  0  -0.048319  0  -0.063378  -0.07412  0  3.895362  0
C  C49  1  0.43521896  0.83763225  0.91062712  1  0  -0.027084  0  3.650539  0  0  -0.070774  0  3.90378  0  0  -0.064478  0  3.920573  0  -0.074795  0  -0.063154  -0.074371  0  3.892224  0
C  C50  1  0.81473001  0.33775329  0.41104583  1  0  -0.027464  0  3.652822  0  0  -0.070625  0  3.906825  0  0  -0.064461  0  3.923591  0  -0.048353  0  -0.063385  -0.074195  0  3.895387  0
C  C51  1  0.56478151  0.16236419  0.08937233  1  0  -0.027001  0  3.65069  0  0  -0.07073  0  3.903991  0  0  -0.064436  0  3.920791  0  -0.074839  0  -0.063164  -0.074342  0  3.892462  0
C  C52  1  0.15166529  0.58271047  0.66301014  1  0  -0.090874  0  3.793918  0  0  -0.062282  0  4.031171  0  0  -0.07488  0  4.055943  0  0.058701  0  -0.01872  -0.054404  0  4.014703  0
C  C53  1  0.40597509  0.91737471  0.83649079  1  0  -0.08993  0  3.789321  0  0  -0.059849  0  4.024473  0  0  -0.072409  0  4.049105  0  -0.017974  0  -0.017484  -0.052013  0  4.008037  0
C  C54  1  0.84833888  0.41729343  0.33699131  1  0  -0.090796  0  3.793735  0  0  -0.062195  0  4.030994  0  0  -0.074791  0  4.05577  0  0.058708  0  -0.018687  -0.054318  0  4.014523  0
C  C55  1  0.59402251  0.08262386  0.16350845  1  0  -0.08995  0  3.789287  0  0  -0.059847  0  4.024423  0  0  -0.072407  0  4.049054  0  -0.017986  0  -0.017492  -0.05201  0  4.007983  0
C  C56  1  0.00438347  0.55646152  0.68418852  1  0  -0.022409  0  3.684003  0  0  -0.065161  0  3.935397  0  0  -0.058939  0  3.952671  0  -0.064869  0  -0.0593  -0.068618  0  3.923328  0
C  C57  1  0.26337500  0.94402722  0.81502268  1  0  -0.025862  0  3.680535  0  0  -0.068382  0  3.931922  0  0  -0.06212  0  3.949091  0  0.031952  0  -0.060845  -0.071912  0  3.920028  0
C  C58  1  0.99562081  0.44354131  0.31581344  1  0  -0.022475  0  3.68396  0  0  -0.065185  0  3.935357  0  0  -0.058967  0  3.952595  0  -0.064925  0  -0.059326  -0.068642  0  3.923288  0
C  C59  1  0.73662599  0.05597028  0.18497805  1  0  -0.025876  0  3.680453  0  0  -0.068366  0  3.931807  0  0  -0.062104  0  3.948977  0  0.032011  0  -0.060793  -0.071898  0  3.919915  0
C  C60  1  0.73882468  0.57624806  0.66087339  1  0  0.675862  0  3.794611  0  0  0.62247  0  4.086519  0  0  0.657736  0  4.078231  0  1.529183  0  0.241841  0.598482  0  4.091687  0
C  C61  1  0.00179978  0.92453351  0.83853551  1  0  0.676813  0  3.797836  0  0  0.623749  0  4.088923  0  0  0.659032  0  4.080607  0  1.514364  0  0.242202  0.599678  0  4.09426  0
C  C62  1  0.26117729  0.42375371  0.33912784  1  0  0.675986  0  3.794548  0  0  0.622561  0  4.086508  0  0  0.657825  0  4.07822  0  1.529113  0  0.241923  0.598574  0  4.091675  0
C  C63  1  0.99820023  0.07546506  0.16146498  1  0  0.676799  0  3.797811  0  0  0.623724  0  4.088926  0  0  0.659008  0  4.080611  0  1.514384  0  0.242184  0.599653  0  4.094266  0
C  C64  1  0.10713267  0.79661953  0.45515442  1  0  0.649099  0  3.910208  0  0  0.595157  0  4.20304  0  0  0.629847  0  4.198349  0  1.5486  0  0.203458  0.571651  0  4.205451  0
C  C65  1  0.35753124  0.70337939  0.04419677  1  0  0.648985  0  3.906701  0  0  0.594325  0  4.200336  0  0  0.628993  0  4.195725  0  1.553461  0  0.203909  0.570852  0  4.202675  0
C  C66  1  0.89286677  0.20338223  0.54484659  1  0  0.649047  0  3.910146  0  0  0.595092  0  4.202983  0  0  0.629782  0  4.198292  0  1.548604  0  0.203451  0.571586  0  4.205393  0
C  C67  1  0.64246581  0.29661705  0.95580275  1  0  0.649077  0  3.906553  0  0  0.594415  0  4.200192  0  0  0.629085  0  4.195579  0  1.553161  0  0.203963  0.570946  0  4.202525  0
C  C68  1  0.26882310  0.52332104  0.71809977  1  0  0.663789  0  3.894919  0  0  0.610058  0  4.186601  0  0  0.644186  0  4.182243  0  1.540145  0  0.210925  0.586959  0  4.18874  0
C  C69  1  0.52662393  0.97642020  0.78162547  1  0  0.66279  0  3.896184  0  0  0.608728  0  4.187717  0  0  0.642885  0  4.183309  0  1.537234  0  0.211035  0.585592  0  4.18988  0
C  C70  1  0.73117923  0.47667966  0.28189990  1  0  0.663925  0  3.894669  0  0  0.610159  0  4.186402  0  0  0.644285  0  4.182042  0  1.540136  0  0.210969  0.587061  0  4.188537  0
C  C71  1  0.47337367  0.02357837  0.21837378  1  0  0.662891  0  3.895982  0  0  0.60882  0  4.187531  0  0  0.642977  0  4.18312  0  1.537259  0  0.211073  0.585686  0  4.18969  0
O  O72  1  0.71929867  0.50484742  0.72802167  1  0  -0.582331  0  2.04595  0  0  -0.519108  0  2.289812  0  0  -0.545867  0  2.277723  0  -1.149772  0  -0.289384  -0.500599  0  2.297616  0
O  O73  1  0.98514403  0.99647507  0.77183231  1  0  -0.581776  0  2.053147  0  0  -0.519125  0  2.298421  0  0  -0.546021  0  2.286296  0  -1.153775  0  -0.289633  -0.50058  0  2.306463  0
O  O74  1  0.28070134  0.49515115  0.27197882  1  0  -0.582332  0  2.04603  0  0  -0.519075  0  2.28989  0  0  -0.545836  0  2.277806  0  -1.149758  0  -0.289379  -0.500564  0  2.297686  0
O  O75  1  0.01485587  0.00352456  0.22816766  1  0  -0.581769  0  2.053152  0  0  -0.519129  0  2.298449  0  0  -0.546025  0  2.286325  0  -1.153809  0  -0.289643  -0.500584  0  2.306493  0
O  O76  1  0.63427616  0.62843076  0.61195302  1  0  -0.525344  0  2.108472  0  0  -0.473801  0  2.326218  0  0  -0.495968  0  2.309189  0  -1.16419  0  -0.314989  -0.458461  0  2.336407  0
O  O77  1  0.89531273  0.87180561  0.88738582  1  0  -0.526019  0  2.110374  0  0  -0.474057  0  2.327412  0  0  -0.496225  0  2.309146  0  -1.149154  0  -0.314902  -0.458694  0  2.338138  0
O  O78  1  0.36572841  0.37157419  0.38805073  1  0  -0.525417  0  2.108466  0  0  -0.473886  0  2.326245  0  0  -0.496051  0  2.309216  0  -1.164199  0  -0.315059  -0.458545  0  2.33643  0
O  O79  1  0.10468859  0.12819509  0.11261516  1  0  -0.526044  0  2.110348  0  0  -0.474068  0  2.327362  0  0  -0.496237  0  2.309097  0  -1.149086  0  -0.314896  -0.458704  0  2.338112  0
O  O80  1  0.01328154  0.85234065  0.41070490  1  0  -0.626804  0  1.947468  0  0  -0.567291  0  2.170516  0  0  -0.594315  0  2.160612  0  -1.170755  0  -0.3115  -0.548395  0  2.17686  0
O  O81  1  0.25265191  0.64894990  0.08854169  1  0  -0.632319  0  1.94171  0  0  -0.572206  0  2.16657  0  0  -0.599543  0  2.156554  0  -1.170938  0  -0.315026  -0.553048  0  2.17282  0
O  O82  1  0.98671965  0.14766005  0.58929711  1  0  -0.626821  0  1.947357  0  0  -0.567303  0  2.170411  0  0  -0.594329  0  2.160509  0  -1.170749  0  -0.311505  -0.548407  0  2.176754  0
O  O83  1  0.74734491  0.35104760  0.91145835  1  0  -0.6323  0  1.941595  0  0  -0.572177  0  2.166451  0  0  -0.599512  0  2.156432  0  -1.170874  0  -0.31502  -0.553023  0  2.172706  0
O  O84  1  0.23364423  0.80268796  0.42963468  1  0  -0.67689  0  2.055461  0  0  -0.599607  0  2.299138  0  0  -0.632323  0  2.288534  0  -1.155123  0  -0.325292  -0.576613  0  2.305599  0
O  O85  1  0.50292731  0.69577016  0.07027686  1  0  -0.672932  0  2.052209  0  0  -0.596619  0  2.295395  0  0  -0.629028  0  2.284859  0  -1.157267  0  -0.324606  -0.573764  0  2.30183  0
O  O86  1  0.76635350  0.19731061  0.57036353  1  0  -0.676908  0  2.05548  0  0  -0.599594  0  2.299122  0  0  -0.632312  0  2.288526  0  -1.155154  0  -0.325301  -0.576602  0  2.305582  0
O  O87  1  0.49707103  0.30422734  0.92972470  1  0  -0.672988  0  2.052145  0  0  -0.596684  0  2.295342  0  0  -0.629088  0  2.284799  0  -1.15702  0  -0.324652  -0.573827  0  2.301777  0
O  O88  1  0.39797289  0.54210025  0.69190515  1  0  -0.673075  0  2.066963  0  0  -0.599442  0  2.311906  0  0  -0.631456  0  2.302163  0  -1.177845  0  -0.32262  -0.576945  0  2.317598  0
O  O89  1  0.66420887  0.95820534  0.80845423  1  0  -0.671272  0  2.066415  0  0  -0.597781  0  2.310243  0  0  -0.629642  0  2.300149  0  -1.16871  0  -0.322246  -0.575343  0  2.316033  0
O  O90  1  0.60202703  0.45790045  0.30809328  1  0  -0.673139  0  2.066875  0  0  -0.599502  0  2.311843  0  0  -0.631517  0  2.302098  0  -1.177807  0  -0.322642  -0.577005  0  2.317533  0
O  O91  1  0.33578798  0.04179323  0.19154426  1  0  -0.671319  0  2.06626  0  0  -0.59783  0  2.310103  0  0  -0.629691  0  2.300005  0  -1.168747  0  -0.322262  -0.575389  0  2.315897  0
O  O92  1  0.24101887  0.45555890  0.78812964  1  0  -0.635847  0  1.949  0  0  -0.57388  0  2.177159  0  0  -0.601482  0  2.168186  0  -1.170154  0  -0.311764  -0.55453  0  2.182777  0
O  O93  1  0.49492404  0.04351292  0.71093612  1  0  -0.636514  0  1.955309  0  0  -0.574453  0  2.18409  0  0  -0.602311  0  2.175114  0  -1.167344  0  -0.311207  -0.554951  0  2.189759  0
O  O94  1  0.75898422  0.54444180  0.21187079  1  0  -0.635933  0  1.948946  0  0  -0.573909  0  2.17708  0  0  -0.601515  0  2.168118  0  -1.170179  0  -0.311779  -0.554558  0  2.182696  0
O  O95  1  0.50507244  0.95648671  0.28906392  1  0  -0.636559  0  1.955296  0  0  -0.57449  0  2.184069  0  0  -0.602349  0  2.175092  0  -1.167347  0  -0.311214  -0.554989  0  2.189738  0
O  O96  1  0.34123800  0.20909181  0.64769609  1  0  -0.845334  0  1.831034  0  0  -0.779996  0  2.007438  0  0  -0.802995  0  1.971658  0  -1.292722  0  -0.567664  -0.763543  0  2.032476  0
O  O97  1  0.98401083  0.29151123  0.85176575  1  0  -0.84276  0  1.831882  0  0  -0.776235  0  2.008729  0  0  -0.799173  0  1.972729  0  -1.251634  0  -0.564464  -0.7599  0  2.033971  0
O  O98  1  0.65876167  0.79090889  0.35230441  1  0  -0.845311  0  1.831063  0  0  -0.779979  0  2.007461  0  0  -0.802977  0  1.971676  0  -1.29271  0  -0.567658  -0.763526  0  2.0325  0
O  O99  1  0.01598745  0.70848947  0.14823219  1  0  -0.842728  0  1.831907  0  0  -0.776199  0  2.008751  0  0  -0.799139  0  1.972752  0  -1.251594  0  -0.56443  -0.759865  0  2.033994  0
O  O100  1  0.67816209  0.64044303  0.95780930  1  0  -0.83941  0  1.84844  0  0  -0.781681  0  2.035334  0  0  -0.803149  0  2.000521  0  -1.232075  0  -0.590454  -0.766479  0  2.05982  0
O  O101  1  0.57951069  0.86048654  0.54162863  1  0  -0.840185  0  1.848179  0  0  -0.781786  0  2.03681  0  0  -0.803292  0  2.001652  0  -1.258309  0  -0.590468  -0.766507  0  2.061485  0
O  O102  1  0.32183695  0.35955767  0.04218940  1  0  -0.839491  0  1.848294  0  0  -0.781756  0  2.035191  0  0  -0.803226  0  2.000387  0  -1.23208  0  -0.590494  -0.766554  0  2.059676  0
O  O103  1  0.42048900  0.13951522  0.45837032  1  0  -0.840181  0  1.848194  0  0  -0.78171  0  2.036895  0  0  -0.803246  0  2.001674  0  -1.258313  0  -0.590429  -0.766431  0  2.061569  0
