# generated using pymatgen
data_ZnH16C22N3O4
_symmetry_space_group_name_H-M   'P 1'
_cell_length_a   10.18680007
_cell_length_b   14.13205550
_cell_length_c   14.50078415
_cell_angle_alpha   93.81331011
_cell_angle_beta   110.57185732
_cell_angle_gamma   89.95313028
_symmetry_Int_Tables_number   1
_chemical_formula_structural   ZnH16C22N3O4
_chemical_formula_sum   'Zn4 H64 C88 N12 O16'
_cell_volume   1949.52605458
_cell_formula_units_Z   4
loop_
 _symmetry_equiv_pos_site_id
 _symmetry_equiv_pos_as_xyz
  1  'x, y, z'
loop_
 _atom_site_type_symbol
 _atom_site_label
 _atom_site_symmetry_multiplicity
 _atom_site_fract_x
 _atom_site_fract_y
 _atom_site_fract_z
 _atom_site_occupancy
 _atom_site_pbe_bader_charge
 _atom_site_pbe_bader_spin_density
 _atom_site_pbe_cm5_charge
 _atom_site_pbe_ddec_charge
 _atom_site_pbe_ddec_spin_density
 _atom_site_pbe_ddec_sum_bond_order
 _atom_site_pbe_magmom
Zn  Zn0  1  0.21821302  0.39519359  0.81548851  1  1.245169  0  0.690795  0.757121  0  2.383306  0
Zn  Zn1  1  0.40317378  0.10468284  0.18451037  1  1.242275  0  0.690725  0.75738  0  2.382195  0
Zn  Zn2  1  0.78178268  0.60480485  0.18451052  1  1.245085  0  0.690764  0.757101  0  2.383278  0
Zn  Zn3  1  0.59682621  0.89531421  0.81549083  1  1.242324  0  0.690702  0.757342  0  2.382183  0
H  H4  1  0.82782388  0.32742445  0.58175676  1  0.078757  0  0.103534  0.11381  0  1.021565  0
H  H5  1  0.24621552  0.17234353  0.41837111  1  0.073665  0  0.103263  0.113204  0  1.021298  0
H  H6  1  0.17217514  0.67257404  0.41824668  1  0.078988  0  0.103535  0.11381  0  1.021561  0
H  H7  1  0.75378695  0.82765705  0.58162954  1  0.073667  0  0.103247  0.113183  0  1.02133  0
H  H8  1  0.50884225  0.10855989  0.53419818  1  0.098253  0  0.104899  0.118384  0  1.019143  0
H  H9  1  0.97386801  0.39102401  0.46565306  1  0.093488  0  0.104438  0.117187  0  1.019946  0
H  H10  1  0.49115632  0.89143928  0.46580272  1  0.098267  0  0.104895  0.118377  0  1.019155  0
H  H11  1  0.02613516  0.60897729  0.53434832  1  0.09345  0  0.104427  0.117177  0  1.019915  0
H  H12  1  0.84272252  0.15065121  0.81575857  1  0.09574  0  0.09931  0.113031  0  1.019901  0
H  H13  1  0.02729530  0.34940752  0.18442963  1  0.097001  0  0.099198  0.112606  0  1.02033  0
H  H14  1  0.15727431  0.84934656  0.18424369  1  0.095772  0  0.099262  0.112962  0  1.020015  0
H  H15  1  0.97270479  0.65059307  0.81557179  1  0.096991  0  0.099216  0.112623  0  1.020329  0
H  H16  1  0.34490585  0.36067783  0.41924448  1  0.061113  0  0.09305  0.095715  0  1.066791  0
H  H17  1  0.92586921  0.13925182  0.58120221  1  0.087917  0  0.09288  0.096077  0  1.066642  0
H  H18  1  0.65509932  0.63932138  0.58075885  1  0.061027  0  0.093064  0.095739  0  1.066793  0
H  H19  1  0.07413790  0.86074804  0.41879782  1  0.088195  0  0.09287  0.096092  0  1.066661  0
H  H20  1  0.55026281  0.33024552  0.33459650  1  0.04452  0  0.106334  0.082176  0  1.01942  0
H  H21  1  0.21571554  0.16963329  0.66545095  1  0.037054  0  0.10609  0.081989  0  1.019287  0
H  H22  1  0.44974101  0.66975437  0.66540549  1  0.044459  0  0.106325  0.082162  0  1.019383  0
H  H23  1  0.78428558  0.83036798  0.33454836  1  0.037042  0  0.106091  0.08202  0  1.019262  0
H  H24  1  0.71913888  0.35088599  0.42424243  1  0.038287  0  0.102228  0.079514  0  1.005047  0
H  H25  1  0.29487534  0.14884209  0.57578079  1  0.057544  0  0.102514  0.079935  0  1.004833  0
H  H26  1  0.28086412  0.64911320  0.57575978  1  0.038084  0  0.102224  0.079503  0  1.005071  0
H  H27  1  0.70512946  0.85116062  0.42422017  1  0.057579  0  0.102504  0.079967  0  1.004787  0
H  H28  1  0.34662135  0.39375036  0.65226555  1  0.150588  0  0.121741  0.100399  0  1.017995  0
H  H29  1  0.69483117  0.10598638  0.34768111  1  0.154714  0  0.121335  0.099456  0  1.018855  0
H  H30  1  0.65337384  0.60624662  0.34773081  1  0.150694  0  0.121742  0.100342  0  1.018001  0
H  H31  1  0.30516910  0.89401277  0.65231832  1  0.154813  0  0.121322  0.099444  0  1.018837  0
H  H32  1  0.74431432  0.37533615  0.96446882  1  0.109304  0  0.118487  0.132371  0  0.980541  0
H  H33  1  0.78035925  0.12482370  0.03558505  1  0.071499  0  0.118147  0.13201  0  0.979533  0
H  H34  1  0.25567800  0.62466366  0.03552684  1  0.109195  0  0.118458  0.132357  0  0.980487  0
H  H35  1  0.21963953  0.87517900  0.96441511  1  0.071544  0  0.11812  0.132003  0  0.979502  0
H  H36  1  0.74848882  0.50343040  0.50913825  1  0.069872  0  0.099988  0.107403  0  1.016511  0
H  H37  1  0.23919964  0.99648406  0.49061789  1  0.090255  0  0.099992  0.108017  0  1.015774  0
H  H38  1  0.25151577  0.49656878  0.49086345  1  0.06994  0  0.099947  0.10739  0  1.016466  0
H  H39  1  0.76080817  0.00351652  0.50938287  1  0.09039  0  0.099914  0.107854  0  1.015824  0
H  H40  1  0.68763936  0.37894956  0.08871985  1  0.098195  0  0.111207  0.125627  0  1.026087  0
H  H41  1  0.59914799  0.12109853  0.91124598  1  0.122067  0  0.111014  0.125239  0  1.026902  0
H  H42  1  0.31235830  0.62105025  0.91127591  1  0.098185  0  0.11123  0.125641  0  1.02598  0
H  H43  1  0.40085000  0.87890062  0.08875328  1  0.122071  0  0.111008  0.125232  0  1.02689  0
H  H44  1  0.34122721  0.37224449  0.19358085  1  0.106793  0  0.114475  0.122861  0  0.995236  0
H  H45  1  0.14777773  0.12764173  0.80643235  1  0.110803  0  0.114642  0.123066  0  0.994636  0
H  H46  1  0.65877467  0.62775536  0.80641812  1  0.106856  0  0.114479  0.122864  0  0.995265  0
H  H47  1  0.85222144  0.87235817  0.19357022  1  0.110772  0  0.114654  0.123041  0  0.99468  0
H  H48  1  0.59218090  0.39727287  0.64927352  1  0.117903  0  0.105456  0.108191  0  1.053181  0
H  H49  1  0.94342321  0.10282925  0.35078232  1  0.132633  0  0.105159  0.107532  0  1.05407  0
H  H50  1  0.40781311  0.60272692  0.35072068  1  0.117929  0  0.105447  0.108183  0  1.053202  0
H  H51  1  0.05657863  0.89717346  0.64921776  1  0.1323  0  0.105143  0.107553  0  1.054081  0
H  H52  1  0.17752274  0.36921585  0.01600653  1  0.138779  0  0.12925  0.11425  0  0.974681  0
H  H53  1  0.16182414  0.13083103  0.98400828  1  0.167019  0  0.129379  0.11435  0  0.973489  0
H  H54  1  0.82247511  0.63078189  0.98399359  1  0.138393  0  0.129186  0.11421  0  0.974667  0
H  H55  1  0.83817883  0.86916673  0.01599384  1  0.167155  0  0.12938  0.114358  0  0.973469  0
H  H56  1  0.60256327  0.37912653  0.22767984  1  0.109109  0  0.114332  0.113447  0  1.004419  0
H  H57  1  0.37501529  0.12077282  0.77227266  1  0.098847  0  0.114239  0.112673  0  1.00513  0
H  H58  1  0.39743573  0.62087259  0.77231727  1  0.109115  0  0.114313  0.113381  0  1.004468  0
H  H59  1  0.62498261  0.87922705  0.22772758  1  0.098808  0  0.114224  0.112641  0  1.005136  0
H  H60  1  0.79451470  0.38802333  0.81148650  1  0.14783  0  0.11262  0.118363  0  1.012232  0
H  H61  1  0.98359701  0.11215416  0.18863473  1  0.123283  0  0.112486  0.118712  0  1.011704  0
H  H62  1  0.20547905  0.61197507  0.18850951  1  0.147732  0  0.112633  0.118368  0  1.012303  0
H  H63  1  0.01640280  0.88784923  0.81136332  1  0.123284  0  0.112534  0.118757  0  1.011674  0
H  H64  1  0.49644019  0.21240521  0.40933777  1  0.496326  0  0.298289  0.261793  0  1.001865  0
H  H65  1  0.08674085  0.28736368  0.59058523  1  0.483337  0  0.298476  0.261786  0  1.001541  0
H  H66  1  0.50355990  0.78759538  0.59066365  1  0.496312  0  0.298297  0.261805  0  1.001898  0
H  H67  1  0.91326014  0.71263690  0.40941498  1  0.483352  0  0.298481  0.261787  0  1.001522  0
C  C68  1  0.78094388  0.27038726  0.60763651  1  -0.088619  0  -0.100584  -0.219887  0  3.924412  0
C  C69  1  0.17336847  0.22940543  0.39241505  1  -0.059529  0  -0.10125  -0.219931  0  3.923363  0
C  C70  1  0.21905518  0.72961266  0.39236701  1  -0.088646  0  -0.100574  -0.219954  0  3.924399  0
C  C71  1  0.82663402  0.77059587  0.60758564  1  -0.05952  0  -0.10123  -0.219918  0  3.923348  0
C  C72  1  0.84794279  0.24293168  0.70373629  1  -0.064221  0  -0.026048  -0.024524  0  4.056163  0
C  C73  1  0.14440846  0.25693906  0.29635703  1  -0.057148  0  -0.024619  -0.023191  0  4.055811  0
C  C74  1  0.15205552  0.75706610  0.29626641  1  -0.064536  0  -0.026044  -0.02447  0  4.056142  0
C  C75  1  0.85559251  0.74306081  0.70364314  1  -0.057132  0  -0.024605  -0.023142  0  4.055753  0
C  C76  1  0.60224391  0.14863455  0.58182688  1  -0.031949  0  -0.093595  -0.205666  0  3.920428  0
C  C77  1  0.01994610  0.35106203  0.41809887  1  0.017764  0  -0.092741  -0.203282  0  3.921171  0
C  C78  1  0.39775455  0.85136463  0.41817496  1  -0.032078  0  -0.093508  -0.205575  0  3.920475  0
C  C79  1  0.98005708  0.64893927  0.58190252  1  0.017815  0  -0.092763  -0.203353  0  3.921046  0
C  C80  1  0.65563563  0.22391847  0.54500529  1  0.46813  0  0.100724  0.246081  0  4.088738  0
C  C81  1  0.11041018  0.27582318  0.45496470  1  0.399189  0  0.100806  0.245113  0  4.090017  0
C  C82  1  0.34436274  0.77608143  0.45499754  1  0.468166  0  0.100652  0.246028  0  4.088782  0
C  C83  1  0.88959379  0.72417812  0.54503643  1  0.399211  0  0.100811  0.245155  0  4.090058  0
C  C84  1  0.66855809  0.12280001  0.67812853  1  -0.023015  0  -0.025963  -0.0182  0  4.0317  0
C  C85  1  0.99023653  0.37703034  0.32189251  1  -0.063092  0  -0.026264  -0.018341  0  4.032868  0
C  C86  1  0.33144112  0.87719775  0.32187298  1  -0.023189  0  -0.026014  -0.018339  0  4.031888  0
C  C87  1  0.00976436  0.62297025  0.67810864  1  -0.063117  0  -0.026243  -0.018277  0  4.032859  0
C  C88  1  0.98324303  0.29052378  0.76787078  1  1.537435  0  0.19725  0.55397  0  4.220564  0
C  C89  1  0.21568670  0.20943033  0.23220939  1  1.547036  0  0.197539  0.554362  0  4.219178  0
C  C90  1  0.01675622  0.70947539  0.23213081  1  1.537358  0  0.197273  0.553923  0  4.220551  0
C  C91  1  0.78431282  0.79057024  0.76779038  1  1.547147  0  0.197517  0.554324  0  4.219252  0
C  C92  1  0.79132033  0.17068248  0.74058155  1  -0.026124  0  -0.105971  -0.171016  0  3.993863  0
C  C93  1  0.05088293  0.32924516  0.25953316  1  -0.02438  0  -0.106036  -0.170916  0  3.99492  0
C  C94  1  0.20867809  0.82931529  0.25942021  1  -0.026069  0  -0.105931  -0.170859  0  3.993991  0
C  C95  1  0.94911873  0.67075472  0.74046770  1  -0.024399  0  -0.106025  -0.170933  0  3.99498  0
C  C96  1  0.55335181  0.42200289  0.45917739  1  -0.084076  0  -0.019779  0.069157  0  3.976683  0
C  C97  1  0.09421263  0.07787354  0.54091458  1  -0.11515  0  -0.020019  0.070556  0  3.976411  0
C  C98  1  0.44665212  0.57799699  0.54082366  1  -0.084165  0  -0.019805  0.069098  0  3.976362  0
C  C99  1  0.90579458  0.92212631  0.45908450  1  -0.11482  0  -0.020021  0.070513  0  3.976465  0
C  C100  1  0.47789593  0.37592424  0.97813333  1  0.476425  0  0.115281  0.158914  0  4.001642  0
C  C101  1  0.50009131  0.12406960  0.02184486  1  0.42779  0  0.115586  0.159597  0  4.002065  0
C  C102  1  0.52210013  0.62407557  0.02186295  1  0.47633  0  0.115299  0.158976  0  4.001566  0
C  C103  1  0.49991052  0.87593239  0.97815519  1  0.427534  0  0.115653  0.159622  0  4.00219  0
C  C104  1  0.51893399  0.37892046  0.89010682  1  0.498673  0  0.113559  0.153586  0  4.016969  0
C  C105  1  0.62924208  0.12102146  0.10986386  1  0.500975  0  0.113103  0.153444  0  4.017451  0
C  C106  1  0.48106184  0.62107867  0.10989130  1  0.498914  0  0.113572  0.153646  0  4.016728  0
C  C107  1  0.37075895  0.87898053  0.89013644  1  0.500996  0  0.113063  0.153384  0  4.017541  0
C  C108  1  0.41349383  0.42185063  0.45439180  1  -0.069414  0  -0.099367  -0.132577  0  3.976593  0
C  C109  1  0.95922733  0.07810900  0.54586387  1  -0.048223  0  -0.099138  -0.133517  0  3.975828  0
C  C110  1  0.58651229  0.57814997  0.54561042  1  -0.069023  0  -0.099357  -0.132572  0  3.976483  0
C  C111  1  0.04077913  0.92189227  0.45413555  1  -0.048526  0  -0.099062  -0.133462  0  3.975896  0
C  C112  1  0.60836057  0.33771317  0.41437571  1  0.349257  0  -0.059098  -0.061607  0  3.970169  0
C  C113  1  0.19397851  0.16206652  0.58567849  1  0.336346  0  -0.059043  -0.062019  0  3.969459  0
C  C114  1  0.39164179  0.66228743  0.58562588  1  0.349507  0  -0.059069  -0.061507  0  3.970072  0
C  C115  1  0.80602627  0.83793548  0.41432242  1  0.336091  0  -0.059008  -0.062044  0  3.969504  0
C  C116  1  0.43833708  0.38927860  0.71900812  1  0.46064  0  0.059508  0.115224  0  3.897946  0
C  C117  1  0.71978669  0.11057175  0.28095771  1  0.480281  0  0.059003  0.115756  0  3.899854  0
C  C118  1  0.56165515  0.61071837  0.28098737  1  0.460994  0  0.059452  0.115277  0  3.89786  0
C  C119  1  0.28021426  0.88942741  0.71904242  1  0.480324  0  0.059017  0.11585  0  3.899777  0
C  C120  1  0.65808732  0.37936108  0.89450772  1  -0.060179  0  -0.073792  -0.149574  0  3.92253  0
C  C121  1  0.76404029  0.12070630  0.10550899  1  -0.022709  0  -0.073827  -0.150508  0  3.922014  0
C  C122  1  0.34190720  0.62063660  0.10548800  1  -0.060317  0  -0.073747  -0.149455  0  3.92235  0
C  C123  1  0.23596008  0.87929640  0.89449066  1  -0.022843  0  -0.073805  -0.150499  0  3.922035  0
C  C124  1  0.63949867  0.50122667  0.50539943  1  0.004616  0  -0.094689  -0.13855  0  3.994034  0
C  C125  1  0.13402251  0.99869787  0.49445906  1  -0.029797  0  -0.094896  -0.139833  0  3.992989  0
C  C126  1  0.36050600  0.49877535  0.49460243  1  0.004548  0  -0.094669  -0.138566  0  3.993817  0
C  C127  1  0.86598470  0.00130198  0.50554002  1  -0.029863  0  -0.094877  -0.139693  0  3.992942  0
C  C128  1  0.57530214  0.37589291  0.07407059  1  0.052461  0  -0.07962  -0.155648  0  3.930132  0
C  C129  1  0.50147083  0.12416837  0.92589925  1  -0.000659  0  -0.08012  -0.157074  0  3.929927  0
C  C130  1  0.42469697  0.62410620  0.92592557  1  0.052858  0  -0.079659  -0.155691  0  3.930114  0
C  C131  1  0.49853033  0.87583432  0.07410014  1  -0.000616  0  -0.080115  -0.157052  0  3.929834  0
C  C132  1  0.38288874  0.37317918  0.13405277  1  0.039206  0  -0.075277  -0.120204  0  3.950126  0
C  C133  1  0.24902714  0.12681970  0.86595159  1  -0.027352  0  -0.075605  -0.120403  0  3.949833  0
C  C134  1  0.61710930  0.62681783  0.86594541  1  0.03852  0  -0.075351  -0.120316  0  3.950183  0
C  C135  1  0.75097432  0.87318091  0.13405121  1  -0.027161  0  -0.075517  -0.120231  0  3.949632  0
C  C136  1  0.57472291  0.39161294  0.71853099  1  0.011112  0  -0.073558  -0.111275  0  3.929183  0
C  C137  1  0.85668641  0.10841922  0.28149245  1  -0.023898  0  -0.072956  -0.111009  0  3.929319  0
C  C138  1  0.42527080  0.60838404  0.28146494  1  0.010143  0  -0.073457  -0.111107  0  3.929213  0
C  C139  1  0.14331462  0.89158277  0.71850785  1  -0.023719  0  -0.072949  -0.111106  0  3.929318  0
C  C140  1  0.29126035  0.37264800  0.03647252  1  0.439223  0  0.062748  0.113342  0  3.907681  0
C  C141  1  0.25509038  0.12736823  0.96354433  1  0.490407  0  0.062102  0.111933  0  3.907538  0
C  C142  1  0.70873694  0.62735043  0.96352600  1  0.43969  0  0.062822  0.113457  0  3.907574  0
C  C143  1  0.74491036  0.87263095  0.03645769  1  0.490093  0  0.06199  0.111721  0  3.907399  0
C  C144  1  0.52682172  0.37592210  0.15265482  1  -0.117195  0  -0.063306  -0.01915  0  3.941587  0
C  C145  1  0.37433963  0.12408415  0.84731549  1  -0.050159  0  -0.062776  -0.016483  0  3.938407  0
C  C146  1  0.47317649  0.62407702  0.84734254  1  -0.117117  0  -0.063247  -0.019035  0  3.941601  0
C  C147  1  0.62565977  0.87591643  0.15268524  1  -0.050162  0  -0.062785  -0.01648  0  3.938354  0
C  C148  1  0.60724506  0.04201386  0.71295464  1  1.526792  0  0.193499  0.558061  0  4.205239  0
C  C149  1  0.89421358  0.45796363  0.28705459  1  1.535371  0  0.193513  0.558708  0  4.205494  0
C  C150  1  0.39275201  0.95798460  0.28704577  1  1.527093  0  0.193468  0.558023  0  4.205146  0
C  C151  1  0.10578591  0.54203623  0.71294514  1  1.535375  0  0.193514  0.558694  0  4.20546  0
C  C152  1  0.68598552  0.38661754  0.80774997  1  -0.045877  0  -0.056749  -0.008929  0  3.930637  0
C  C153  1  0.87873027  0.11349990  0.19228609  1  -0.03486  0  -0.056344  -0.008083  0  3.928253  0
C  C154  1  0.31400965  0.61337873  0.19224635  1  -0.044719  0  -0.056866  -0.009188  0  3.931084  0
C  C155  1  0.12126928  0.88650209  0.80771377  1  -0.034805  0  -0.056376  -0.008089  0  3.928254  0
N  N156  1  0.41196683  0.38359814  0.80288091  1  -1.265184  0  -0.331632  -0.275038  0  3.579634  0
N  N157  1  0.60950695  0.11618261  0.19705898  1  -1.269529  0  -0.330538  -0.274544  0  3.581104  0
N  N158  1  0.58802763  0.61640097  0.19711583  1  -1.265667  0  -0.331586  -0.275117  0  3.579692  0
N  N159  1  0.39049393  0.88381798  0.80294218  1  -1.26951  0  -0.330517  -0.274556  0  3.581175  0
N  N160  1  0.33817495  0.37541783  0.96099583  1  -1.249697  0  -0.324159  -0.270902  0  3.5588  0
N  N161  1  0.37752463  0.12457926  0.03900824  1  -1.231968  0  -0.323634  -0.270221  0  3.557689  0
N  N162  1  0.66182068  0.62458204  0.03900423  1  -1.249626  0  -0.32414  -0.270983  0  3.558889  0
N  N163  1  0.62247400  0.87542204  0.96099278  1  -1.231974  0  -0.323667  -0.270175  0  3.55784  0
N  N164  1  0.58861916  0.24711317  0.44974252  1  -1.245591  0  -0.445507  -0.339798  0  3.567923  0
N  N165  1  0.13866033  0.25266110  0.55022981  1  -1.228787  0  -0.445239  -0.339235  0  3.567846  0
N  N166  1  0.41138149  0.75288674  0.55026049  1  -1.245641  0  -0.445541  -0.339861  0  3.568047  0
N  N167  1  0.86134137  0.74734020  0.44977113  1  -1.22878  0  -0.445283  -0.339285  0  3.567987  0
O  O168  1  0.67441352  0.02041565  0.80364166  1  -1.16783  0  -0.344763  -0.560275  0  2.274185  0
O  O169  1  0.87092641  0.47954605  0.19640837  1  -1.16217  0  -0.344991  -0.560778  0  2.273867  0
O  O170  1  0.32558061  0.97958351  0.19635793  1  -1.167836  0  -0.344806  -0.560321  0  2.27412  0
O  O171  1  0.12907225  0.52045240  0.80359154  1  -1.162175  0  -0.344987  -0.560765  0  2.273834  0
O  O172  1  0.07017606  0.31008675  0.72319295  1  -1.168585  0  -0.328442  -0.549748  0  2.35052  0
O  O173  1  0.34735244  0.18978222  0.27688280  1  -1.174559  0  -0.328713  -0.550476  0  2.349624  0
O  O174  1  0.92982045  0.68991240  0.27680587  1  -1.168542  0  -0.328448  -0.549679  0  2.350476  0
O  O175  1  0.65264851  0.81021694  0.72311733  1  -1.174676  0  -0.328697  -0.550448  0  2.349616  0
O  O176  1  0.00968609  0.30971760  0.85819797  1  -1.179123  0  -0.32214  -0.547763  0  2.107876  0
O  O177  1  0.15189650  0.19038225  0.14184191  1  -1.181306  0  -0.322773  -0.548361  0  2.107954  0
O  O178  1  0.99031466  0.69028229  0.14180409  1  -1.179107  0  -0.32214  -0.547757  0  2.107809  0
O  O179  1  0.84810299  0.80961761  0.85815782  1  -1.181299  0  -0.322765  -0.548348  0  2.107973  0
O  O180  1  0.49834558  0.99860673  0.65665303  1  -1.184576  0  -0.324388  -0.552389  0  2.136715  0
O  O181  1  0.84157669  0.50150591  0.34329694  1  -1.172563  0  -0.324185  -0.552493  0  2.13731  0
O  O182  1  0.50165398  0.00139170  0.34334568  1  -1.184507  0  -0.324348  -0.552315  0  2.13666  0
O  O183  1  0.15842346  0.49849325  0.65670345  1  -1.172571  0  -0.324193  -0.5525  0  2.137313  0
