# generated using pymatgen
data_CuH12C13S2Br
_symmetry_space_group_name_H-M   'P 1'
_cell_length_a   6.44202492
_cell_length_b   12.51845213
_cell_length_c   16.77460000
_cell_angle_alpha   93.11857740
_cell_angle_beta   90.00000000
_cell_angle_gamma   90.00000000
_symmetry_Int_Tables_number   1
_chemical_formula_structural   CuH12C13S2Br
_chemical_formula_sum   'Cu4 H48 C52 S8 Br4'
_cell_volume   1350.77052689
_cell_formula_units_Z   4
loop_
 _symmetry_equiv_pos_site_id
 _symmetry_equiv_pos_as_xyz
  1  'x, y, z'
loop_
 _atom_site_type_symbol
 _atom_site_label
 _atom_site_symmetry_multiplicity
 _atom_site_fract_x
 _atom_site_fract_y
 _atom_site_fract_z
 _atom_site_occupancy
 _atom_site_hle17_bader_spin_density
 _atom_site_hle17_ddec_charge
 _atom_site_hle17_ddec_spin_density
 _atom_site_hle17_ddec_sum_bond_order
 _atom_site_hle17_magmom
 _atom_site_hse06_10hf_bader_spin_density
 _atom_site_hse06_10hf_ddec_charge
 _atom_site_hse06_10hf_ddec_spin_density
 _atom_site_hse06_10hf_ddec_sum_bond_order
 _atom_site_hse06_10hf_magmom
 _atom_site_hse06_bader_spin_density
 _atom_site_hse06_ddec_charge
 _atom_site_hse06_ddec_spin_density
 _atom_site_hse06_ddec_sum_bond_order
 _atom_site_hse06_magmom
 _atom_site_pbe_bader_charge
 _atom_site_pbe_bader_spin_density
 _atom_site_pbe_cm5_charge
 _atom_site_pbe_ddec_charge
 _atom_site_pbe_ddec_spin_density
 _atom_site_pbe_ddec_sum_bond_order
 _atom_site_pbe_magmom
Cu  Cu0  1  0.55820958  0.51420756  0.44557866  1  0  0.199809  0  2.312868  0  0  0.122615  0  2.824069  0  0  0.127457  0  2.774317  0  0.453923  0  0.271758  0.119678  0  2.858592  0
Cu  Cu1  1  0.44177879  0.01420490  0.94557629  1  0  0.199758  0  2.313019  0  0  0.122571  0  2.824198  0  0  0.127402  0  2.774432  0  0.453829  0  0.271717  0.119634  0  2.858705  0
Cu  Cu2  1  0.57252029  0.29056521  0.43446493  1  0  0.198259  0  2.198743  0  0  0.114977  0  2.699975  0  0  0.121801  0  2.65111  0  0.453636  0  0.268364  0.11161  0  2.733018  0
Cu  Cu3  1  0.42749291  0.79056068  0.93446641  1  0  0.198309  0  2.198799  0  0  0.11504  0  2.700011  0  0  0.121835  0  2.65114  0  0.453749  0  0.268379  0.111675  0  2.733041  0
H  H4  1  0.00974383  0.54800620  0.29777413  1  0  0.089478  0  0.991372  0  0  0.098835  0  1.057799  0  0  0.101464  0  1.057047  0  0.068754  0  0.087591  0.096925  0  1.058423  0
H  H5  1  0.99024454  0.04800433  0.79777119  1  0  0.089384  0  0.991363  0  0  0.098721  0  1.057807  0  0  0.101346  0  1.057061  0  0.068861  0  0.087555  0.096813  0  1.058428  0
H  H6  1  0.98772359  0.61066903  0.16153575  1  0  0.084221  0  0.977871  0  0  0.09332  0  1.042704  0  0  0.095784  0  1.042165  0  0.073976  0  0.095156  0.091613  0  1.043134  0
H  H7  1  0.01226322  0.11067597  0.66153496  1  0  0.084288  0  0.977786  0  0  0.093406  0  1.042599  0  0  0.095877  0  1.042047  0  0.073659  0  0.095175  0.091693  0  1.043031  0
H  H8  1  0.20798429  0.76248049  0.12061013  1  0  0.078486  0  0.986204  0  0  0.085559  0  1.057532  0  0  0.088419  0  1.055883  0  0.077162  0  0.08435  0.083522  0  1.058642  0
H  H9  1  0.79200718  0.26249222  0.62061549  1  0  0.078648  0  0.986296  0  0  0.085732  0  1.057573  0  0  0.088592  0  1.055923  0  0.07746  0  0.084407  0.083698  0  1.058677  0
H  H10  1  0.45581010  0.84856508  0.21696633  1  0  0.088774  0  0.9776  0  0  0.098115  0  1.039847  0  0  0.100633  0  1.039482  0  0.08275  0  0.090583  0.09629  0  1.040225  0
H  H11  1  0.54419535  0.34857922  0.71697537  1  0  0.088778  0  0.977457  0  0  0.098056  0  1.039801  0  0  0.100574  0  1.039436  0  0.08311  0  0.090543  0.096228  0  1.04018  0
H  H12  1  0.48747095  0.78421664  0.35354284  1  0  0.091279  0  0.969666  0  0  0.102404  0  1.033927  0  0  0.104904  0  1.033273  0  0.073664  0  0.096459  0.100595  0  1.03456  0
H  H13  1  0.51254536  0.28422837  0.85355238  1  0  0.091246  0  0.969495  0  0  0.102404  0  1.033751  0  0  0.104888  0  1.033117  0  0.074117  0  0.096451  0.100636  0  1.034336  0
H  H14  1  0.07178488  0.80932161  0.53248824  1  0  0.088269  0  0.990313  0  0  0.095887  0  1.059132  0  0  0.098229  0  1.059112  0  0.070276  0  0.092999  0.094298  0  1.058985  0
H  H15  1  0.92821280  0.30931974  0.03247457  1  0  0.088228  0  0.990287  0  0  0.095876  0  1.05906  0  0  0.098219  0  1.059039  0  0.070237  0  0.093041  0.094287  0  1.058914  0
H  H16  1  0.07077899  0.90219585  0.66684021  1  0  0.088556  0  0.973471  0  0  0.098808  0  1.035082  0  0  0.100965  0  1.035397  0  0.097296  0  0.09439  0.09729  0  1.034951  0
H  H17  1  0.92921870  0.40220199  0.16682389  1  0  0.088619  0  0.97343  0  0  0.09886  0  1.035065  0  0  0.101017  0  1.03538  0  0.097471  0  0.094449  0.097342  0  1.034933  0
H  H18  1  0.82100893  0.84740107  0.77031408  1  0  0.080502  0  0.96452  0  0  0.089272  0  1.033046  0  0  0.092015  0  1.031256  0  0.047779  0  0.090476  0.087297  0  1.03434  0
H  H19  1  0.17897944  0.34741361  0.27030100  1  0  0.080523  0  0.964546  0  0  0.089239  0  1.033146  0  0  0.091992  0  1.031326  0  0.047666  0  0.090543  0.087262  0  1.034449  0
H  H20  1  0.58922777  0.69082959  0.74203020  1  0  0.083784  0  0.981814  0  0  0.090352  0  1.051275  0  0  0.092787  0  1.050849  0  0.068362  0  0.091136  0.088598  0  1.051701  0
H  H21  1  0.41076525  0.19084372  0.24202314  1  0  0.083823  0  0.981717  0  0  0.090329  0  1.05121  0  0  0.092795  0  1.050754  0  0.068407  0  0.091164  0.088575  0  1.051635  0
H  H22  1  0.59806350  0.59332491  0.60868907  1  0  0.090094  0  1.010128  0  0  0.09586  0  1.082993  0  0  0.099533  0  1.080321  0  0.099481  0  0.080742  0.093122  0  1.085  0
H  H23  1  0.40192642  0.09332625  0.10868626  1  0  0.090058  0  1.010164  0  0  0.095827  0  1.083029  0  0  0.0995  0  1.080356  0  0.099363  0  0.08071  0.09309  0  1.085039  0
H  H24  1  0.32407667  0.20300781  0.58541340  1  0  0.095493  0  0.978115  0  0  0.106531  0  1.040653  0  0  0.109041  0  1.039891  0  0.092073  0  0.09007  0.10462  0  1.041387  0
H  H25  1  0.67591791  0.70300647  0.08541919  1  0  0.095504  0  0.978156  0  0  0.106543  0  1.040692  0  0  0.109051  0  1.039926  0  0.092102  0  0.090076  0.104632  0  1.041424  0
H  H26  1  0.41599342  0.07052369  0.68489557  1  0  0.094268  0  0.952418  0  0  0.104706  0  1.011665  0  0  0.106952  0  1.012118  0  0.056737  0  0.097071  0.103017  0  1.011554  0
H  H27  1  0.58399805  0.57051915  0.18490003  1  0  0.094256  0  0.952366  0  0  0.104699  0  1.011614  0  0  0.106953  0  1.012055  0  0.05663  0  0.097052  0.103009  0  1.011507  0
H  H28  1  0.49241349  0.88237332  0.64035494  1  0  0.087454  0  0.982128  0  0  0.096981  0  1.045382  0  0  0.098934  0  1.046157  0  0.096501  0  0.0926  0.095481  0  1.045064  0
H  H29  1  0.50759350  0.38237065  0.14035495  1  0  0.087388  0  0.982181  0  0  0.096914  0  1.045454  0  0  0.098861  0  1.046235  0  0.096495  0  0.092597  0.095414  0  1.045135  0
H  H30  1  0.46714815  0.82447452  0.49658870  1  0  0.072553  0  0.992421  0  0  0.077919  0  1.06628  0  0  0.079795  0  1.066487  0  0.086875  0  0.086814  0.076431  0  1.06649  0
H  H31  1  0.53285885  0.32447345  0.99658878  1  0  0.072578  0  0.992397  0  0  0.07797  0  1.06623  0  0  0.079848  0  1.066438  0  0.086756  0  0.086849  0.076479  0  1.066444  0
H  H32  1  0.36502187  0.95589863  0.39667601  1  0  0.099253  0  0.954227  0  0  0.11019  0  1.015468  0  0  0.112766  0  1.01515  0  0.086641  0  0.100099  0.108308  0  1.015662  0
H  H33  1  0.63500531  0.45590156  0.89667982  1  0  0.099248  0  0.95424  0  0  0.110252  0  1.015418  0  0  0.112827  0  1.015101  0  0.086716  0  0.100172  0.108356  0  1.015627  0
H  H34  1  0.88956191  0.94848017  0.44818888  1  0  0.09821  0  0.95138  0  0  0.107945  0  1.014662  0  0  0.110597  0  1.014087  0  0.076403  0  0.099039  0.10607  0  1.015009  0
H  H35  1  0.11044664  0.44848231  0.94819624  1  0  0.098206  0  0.951281  0  0  0.107957  0  1.014544  0  0  0.110609  0  1.013967  0  0.076237  0  0.099036  0.106072  0  1.014902  0
H  H36  1  0.89742745  0.81453605  0.33240366  1  0  0.083232  0  0.978458  0  0  0.088019  0  1.050038  0  0  0.089816  0  1.051352  0  0.107369  0  0.09269  0.08673  0  1.049187  0
H  H37  1  0.10256558  0.31453338  0.83241321  1  0  0.083273  0  0.978441  0  0  0.08803  0  1.050026  0  0  0.089826  0  1.051345  0  0.107141  0  0.092739  0.086745  0  1.049178  0
H  H38  1  0.85362290  0.87460286  0.19430067  1  0  0.084364  0  0.963672  0  0  0.093524  0  1.027421  0  0  0.096098  0  1.026407  0  0.062503  0  0.092649  0.091615  0  1.028276  0
H  H39  1  0.14636081  0.37459860  0.69430956  1  0  0.084347  0  0.963735  0  0  0.093514  0  1.027451  0  0  0.096091  0  1.026434  0  0.062661  0  0.092639  0.091606  0  1.028306  0
H  H40  1  0.80309531  0.06765727  0.17173983  1  0  0.088465  0  0.948511  0  0  0.100986  0  1.004794  0  0  0.103216  0  1.005043  0  0.073453  0  0.095224  0.099346  0  1.004791  0
H  H41  1  0.19689616  0.56765033  0.67174361  1  0  0.088363  0  0.948664  0  0  0.100916  0  1.004928  0  0  0.103139  0  1.005173  0  0.073311  0  0.095193  0.09927  0  1.004919  0
H  H42  1  0.79464610  0.20100379  0.28715503  1  0  0.093228  0  0.990218  0  0  0.101475  0  1.058893  0  0  0.104371  0  1.05753  0  0.070249  0  0.087445  0.099258  0  1.060068  0
H  H43  1  0.20535934  0.70100006  0.78715595  1  0  0.093186  0  0.990204  0  0  0.101425  0  1.058907  0  0  0.104326  0  1.057543  0  0.070314  0  0.087403  0.09923  0  1.060062  0
H  H44  1  0.08239335  0.51620998  0.51301000  1  0  0.129714  0  0.934109  0  0  0.144665  0  0.990629  0  0  0.146774  0  0.989987  0  0.135771  0  0.105029  0.143313  0  0.991158  0
H  H45  1  0.91759968  0.01620411  0.01300750  1  0  0.129707  0  0.934114  0  0  0.144671  0  0.990622  0  0  0.146775  0  0.989987  0  0.135872  0  0.105016  0.143323  0  0.991136  0
H  H46  1  0.01960719  0.49092100  0.41006491  1  0  0.112321  0  0.970056  0  0  0.124298  0  1.037104  0  0  0.126483  0  1.035593  0  0.120437  0  0.09623  0.122835  0  1.038357  0
H  H47  1  0.98037497  0.99091327  0.91006150  1  0  0.112435  0  0.969932  0  0  0.124427  0  1.036936  0  0  0.126631  0  1.035368  0  0.120308  0  0.096302  0.122951  0  1.038218  0
H  H48  1  0.04137208  0.30630932  0.39079249  1  0  0.109365  0  0.962246  0  0  0.12217  0  1.030169  0  0  0.124127  0  1.028836  0  0.108568  0  0.095452  0.120923  0  1.031073  0
H  H49  1  0.95864733  0.80630559  0.89078924  1  0  0.109396  0  0.962216  0  0  0.122183  0  1.030162  0  0  0.124133  0  1.028832  0  0.10852  0  0.095462  0.120937  0  1.031065  0
H  H50  1  0.10256247  0.30284290  0.49480446  1  0  0.11672  0  0.953759  0  0  0.130283  0  1.015931  0  0  0.132265  0  1.014916  0  0.099618  0  0.094796  0.129089  0  1.016537  0
H  H51  1  0.89745694  0.80284877  0.99480339  1  0  0.116685  0  0.953781  0  0  0.13025  0  1.015951  0  0  0.132254  0  1.014907  0  0.099612  0  0.09478  0.129052  0  1.01656  0
C  C52  1  0.24979413  0.66278059  0.33525792  1  0  0.030875  0  3.787542  0  0  0.053643  0  4.039887  0  0  0.053318  0  4.063965  0  -0.193901  0  -0.01696  0.053756  0  4.02347  0
C  C53  1  0.75021287  0.16278593  0.83525885  1  0  0.030715  0  3.787427  0  0  0.053484  0  4.039763  0  0  0.053159  0  4.063842  0  -0.193697  0  -0.017002  0.053595  0  4.023356  0
C  C54  1  0.10943919  0.61357465  0.28114747  1  0  -0.119148  0  3.749778  0  0  -0.136246  0  3.988778  0  0  -0.13935  0  4.011083  0  -0.056804  0  -0.099527  -0.133852  0  3.973406  0
C  C55  1  0.89055539  0.11357679  0.78114470  1  0  -0.118951  0  3.749813  0  0  -0.136018  0  3.988807  0  0  -0.139121  0  4.011118  0  -0.056778  0  -0.099483  -0.133627  0  3.973434  0
C  C56  1  0.09542341  0.64968770  0.20392383  1  0  -0.05846  0  3.758313  0  0  -0.066804  0  3.999475  0  0  -0.067998  0  4.019996  0  0.007415  0  -0.09024  -0.065964  0  3.985332  0
C  C57  1  0.90456651  0.14969464  0.70392483  1  0  -0.058617  0  3.758409  0  0  -0.066983  0  3.999576  0  0  -0.068175  0  4.020095  0  0.007978  0  -0.090338  -0.066136  0  3.985429  0
C  C58  1  0.21852756  0.73421069  0.18075506  1  0  -0.073379  0  3.775694  0  0  -0.089299  0  4.024499  0  0  -0.09096  0  4.045341  0  -0.068623  0  -0.096215  -0.087901  0  4.010039  0
C  C59  1  0.78146857  0.23422162  0.68075801  1  0  -0.073638  0  3.775698  0  0  -0.089573  0  4.024512  0  0  -0.091244  0  4.045369  0  -0.068934  0  -0.096236  -0.088169  0  4.010034  0
C  C60  1  0.35927523  0.78250782  0.23483576  1  0  -0.054095  0  3.762961  0  0  -0.063252  0  4.003236  0  0  -0.064306  0  4.023668  0  -0.098361  0  -0.091622  -0.062508  0  3.989213  0
C  C61  1  0.64073177  0.28251876  0.73484348  1  0  -0.054005  0  3.762685  0  0  -0.063106  0  4.002961  0  0  -0.064157  0  4.023389  0  -0.098839  0  -0.091579  -0.062361  0  3.98895  0
C  C62  1  0.37612708  0.74685318  0.31171854  1  0  -0.123675  0  3.756521  0  0  -0.141825  0  3.999511  0  0  -0.144586  0  4.020448  0  0.015457  0  -0.097982  -0.139673  0  3.985146  0
C  C63  1  0.62387682  0.24685851  0.81172305  1  0  -0.123556  0  3.756289  0  0  -0.141752  0  3.999289  0  0  -0.144486  0  4.020202  0  0.01472  0  -0.097949  -0.139636  0  3.984914  0
C  C64  1  0.83360125  0.69592722  0.56251365  1  0  0.025389  0  3.763345  0  0  0.053453  0  4.00642  0  0  0.050626  0  4.033257  0  -0.143022  0  -0.018108  0.055307  0  3.988073  0
C  C65  1  0.16639489  0.19592776  0.06250366  1  0  0.025581  0  3.763103  0  0  0.053659  0  4.00617  0  0  0.050829  0  4.033009  0  -0.142998  0  -0.017991  0.055512  0  3.987822  0
C  C66  1  0.96777490  0.78263903  0.57861859  1  0  -0.110357  0  3.751187  0  0  -0.128911  0  3.989607  0  0  -0.131059  0  4.012472  0  -0.061038  0  -0.094528  -0.127114  0  3.973642  0
C  C67  1  0.03220882  0.28263636  0.07860608  1  0  -0.110225  0  3.750909  0  0  -0.128801  0  3.989313  0  0  -0.130948  0  4.012176  0  -0.061436  0  -0.09452  -0.127006  0  3.97335  0
C  C68  1  0.96599906  0.83511059  0.65419804  1  0  -0.059294  0  3.750251  0  0  -0.068059  0  3.990865  0  0  -0.070618  0  4.012645  0  -0.011477  0  -0.089885  -0.06635  0  3.976118  0
C  C69  1  0.03399397  0.33511432  0.15418638  1  0  -0.059425  0  3.750185  0  0  -0.068203  0  3.990844  0  0  -0.070764  0  4.012622  0  -0.011456  0  -0.089989  -0.066494  0  3.976098  0
C  C70  1  0.82841499  0.80307437  0.71261387  1  0  -0.057977  0  3.757558  0  0  -0.074794  0  4.008494  0  0  -0.075664  0  4.028995  0  -0.09424  0  -0.089308  -0.074127  0  3.994649  0
C  C71  1  0.17158425  0.30308770  0.21260141  1  0  -0.058189  0  3.757776  0  0  -0.075008  0  4.008703  0  0  -0.075877  0  4.029219  0  -0.094071  0  -0.089526  -0.074342  0  3.994857  0
C  C72  1  0.69623140  0.71623696  0.69648952  1  0  -0.062383  0  3.763264  0  0  -0.071197  0  4.00546  0  0  -0.073661  0  4.027044  0  0.008109  0  -0.091299  -0.069522  0  3.990792  0
C  C73  1  0.30375542  0.21624550  0.19648284  1  0  -0.062228  0  3.763201  0  0  -0.070885  0  4.005262  0  0  -0.073378  0  4.026836  0  0.008699  0  -0.091225  -0.069212  0  3.990595  0
C  C74  1  0.69926926  0.66189979  0.62163733  1  0  -0.106386  0  3.744987  0  0  -0.122658  0  3.978438  0  0  -0.124791  0  3.999921  0  -0.056656  0  -0.095724  -0.120963  0  3.963739  0
C  C75  1  0.30071756  0.16189952  0.12163267  1  0  -0.106493  0  3.744991  0  0  -0.122806  0  3.978412  0  0  -0.124942  0  3.999911  0  -0.056975  0  -0.095728  -0.121114  0  3.963717  0
C  C76  1  0.33801949  0.08675020  0.48520621  1  0  0.017118  0  3.780347  0  0  0.040986  0  4.030407  0  0  0.039127  0  4.055313  0  -0.189669  0  -0.022749  0.041383  0  4.015846  0
C  C77  1  0.66198750  0.58675367  0.98521159  1  0  0.017151  0  3.780586  0  0  0.041042  0  4.030615  0  0  0.03918  0  4.055519  0  -0.189586  0  -0.02275  0.041437  0  4.016053  0
C  C78  1  0.35005453  0.11948003  0.56629250  1  0  -0.112553  0  3.762169  0  0  -0.133602  0  4.008531  0  0  -0.135296  0  4.030011  0  -0.085609  0  -0.096821  -0.132535  0  3.994863  0
C  C79  1  0.64995092  0.61948029  0.06629776  1  0  -0.1126  0  3.762279  0  0  -0.133663  0  4.008627  0  0  -0.135352  0  4.030106  0  -0.085685  0  -0.096865  -0.132595  0  3.99496  0
C  C80  1  0.40416950  0.04537711  0.62178374  1  0  -0.062565  0  3.756831  0  0  -0.071657  0  4.001178  0  0  -0.074333  0  4.022249  0  -0.002104  0  -0.089607  -0.069898  0  3.987026  0
C  C81  1  0.59583439  0.54537578  0.12178833  1  0  -0.06263  0  3.756587  0  0  -0.07171  0  4.000903  0  0  -0.074389  0  4.021975  0  -0.002147  0  -0.089575  -0.069952  0  3.98675  0
C  C82  1  0.44824105  0.93947291  0.59670662  1  0  -0.058077  0  3.740464  0  0  -0.071778  0  3.980794  0  0  -0.072028  0  4.00109  0  -0.038925  0  -0.089931  -0.071553  0  3.967066  0
C  C83  1  0.55176440  0.43947185  0.09670670  1  0  -0.057877  0  3.740362  0  0  -0.071586  0  3.980674  0  0  -0.071832  0  4.000974  0  -0.038972  0  -0.089917  -0.071359  0  3.966943  0
C  C84  1  0.43486327  0.90732069  0.51591144  1  0  -0.070329  0  3.778488  0  0  -0.078429  0  4.024259  0  0  -0.081308  0  4.04605  0  -0.126276  0  -0.095061  -0.076391  0  4.009204  0
C  C85  1  0.56514839  0.40732042  0.01591334  1  0  -0.070475  0  3.778416  0  0  -0.07861  0  4.024255  0  0  -0.081493  0  4.046043  0  -0.126099  0  -0.095141  -0.07657  0  4.009196  0
C  C86  1  0.37782530  0.98036440  0.45984783  1  0  -0.111267  0  3.760133  0  0  -0.131994  0  4.004293  0  0  -0.133892  0  4.026488  0  0.029971  0  -0.095526  -0.130389  0  3.989353  0
C  C87  1  0.62219412  0.48036573  0.95984979  1  0  -0.111248  0  3.760074  0  0  -0.132041  0  4.004226  0  0  -0.133946  0  4.026439  0  0.029898  0  -0.095572  -0.130426  0  3.989293  0
C  C88  1  0.84165461  0.08218697  0.37419803  1  0  0.015225  0  3.78755  0  0  0.040268  0  4.033759  0  0  0.037619  0  4.059968  0  -0.256356  0  -0.021978  0.041504  0  4.017603  0
C  C89  1  0.15835704  0.58218564  0.87420263  1  0  0.015274  0  3.787388  0  0  0.040291  0  4.033635  0  0  0.037641  0  4.059846  0  -0.255809  0  -0.021953  0.041528  0  4.017481  0
C  C90  1  0.86982278  0.97370275  0.38747193  1  0  -0.102228  0  3.756301  0  0  -0.123003  0  4.000499  0  0  -0.124764  0  4.022985  0  0.007681  0  -0.090925  -0.121447  0  3.985046  0
C  C91  1  0.13017801  0.47370168  0.88747797  1  0  -0.102179  0  3.756128  0  0  -0.122945  0  4.000327  0  0  -0.124706  0  4.02281  0  0.007402  0  -0.090882  -0.121382  0  3.984877  0
C  C92  1  0.87357625  0.89904463  0.32247337  1  0  -0.066318  0  3.756675  0  0  -0.073385  0  3.998714  0  0  -0.076887  0  4.021893  0  -0.069344  0  -0.091635  -0.07103  0  3.982778  0
C  C93  1  0.12642764  0.39904277  0.82248176  1  0  -0.06639  0  3.756583  0  0  -0.073431  0  3.998647  0  0  -0.076936  0  4.021832  0  -0.069444  0  -0.091706  -0.071084  0  3.98272  0
C  C94  1  0.84973127  0.93281207  0.24497804  1  0  -0.058947  0  3.756667  0  0  -0.071869  0  3.998176  0  0  -0.072517  0  4.019066  0  -0.040492  0  -0.088872  -0.071361  0  3.984077  0
C  C95  1  0.15026331  0.43280780  0.74498275  1  0  -0.058811  0  3.756496  0  0  -0.071713  0  3.997937  0  0  -0.07236  0  4.018824  0  -0.040494  0  -0.088785  -0.071206  0  3.983838  0
C  C96  1  0.82171989  0.04125389  0.23220198  1  0  -0.055705  0  3.753923  0  0  -0.065229  0  3.995166  0  0  -0.068224  0  4.017503  0  -0.037029  0  -0.091108  -0.063259  0  3.980075  0
C  C97  1  0.17826227  0.54125015  0.73220708  1  0  -0.055781  0  3.754181  0  0  -0.06536  0  3.995471  0  0  -0.068344  0  4.017798  0  -0.03651  0  -0.091177  -0.063378  0  3.980374  0
C  C98  1  0.81674319  0.11628481  0.29669048  1  0  -0.111426  0  3.765502  0  0  -0.131255  0  4.008916  0  0  -0.133027  0  4.031073  0  0.026401  0  -0.09674  -0.129997  0  3.994578  0
C  C99  1  0.18326536  0.61628107  0.79669438  1  0  -0.111326  0  3.765359  0  0  -0.131149  0  4.008802  0  0  -0.132927  0  4.030948  0  0.026148  0  -0.096698  -0.129911  0  3.994451  0
C  C100  1  0.05244779  0.55374864  0.45653922  1  0  -0.196675  0  3.612113  0  0  -0.225537  0  3.874143  0  0  -0.226195  0  3.881443  0  -0.246125  0  -0.144032  -0.226293  0  3.87133  0
C  C101  1  0.94753902  0.05374117  0.95653844  1  0  -0.19674  0  3.612038  0  0  -0.22574  0  3.874348  0  0  -0.226384  0  3.881646  0  -0.246137  0  -0.144099  -0.226491  0  3.871528  0
C  C102  1  0.07128659  0.25365776  0.43984477  1  0  -0.200688  0  3.593504  0  0  -0.232483  0  3.861276  0  0  -0.232534  0  3.868596  0  -0.220542  0  -0.147383  -0.233263  0  3.857853  0
C  C103  1  0.92872351  0.75365882  0.93984529  1  0  -0.200741  0  3.593524  0  0  -0.232525  0  3.861275  0  0  -0.232575  0  3.868555  0  -0.219987  0  -0.147397  -0.2333  0  3.857849  0
S  S104  1  0.28474121  0.62626194  0.43493716  1  0  0.059619  0  2.904856  0  0  0.065654  0  3.329858  0  0  0.069005  0  3.316466  0  0.057251  0  -0.016334  0.063053  0  3.341408  0
S  S105  1  0.71525336  0.12625928  0.93493777  1  0  0.059762  0  2.904694  0  0  0.065833  0  3.329699  0  0  0.06918  0  3.316302  0  0.057073  0  -0.016213  0.063236  0  3.341234  0
S  S106  1  0.81921136  0.63566841  0.46371020  1  0  0.035972  0  2.820163  0  0  0.044631  0  3.233069  0  0  0.047755  0  3.221874  0  0.027008  0  -0.024103  0.042479  0  3.242951  0
S  S107  1  0.18077856  0.13565774  0.96370333  1  0  0.035772  0  2.820465  0  0  0.044426  0  3.233456  0  0  0.047549  0  3.222252  0  0.027087  0  -0.024223  0.042274  0  3.24333  0
S  S108  1  0.83970802  0.17533642  0.45858562  1  0  0.062723  0  2.773585  0  0  0.076951  0  3.174489  0  0  0.079067  0  3.165424  0  0.046176  0  -0.008548  0.07542  0  3.183328  0
S  S109  1  0.16030208  0.67533988  0.95858922  1  0  0.062649  0  2.773804  0  0  0.07688  0  3.174736  0  0  0.078999  0  3.165661  0  0.04584  0  -0.008585  0.075348  0  3.183572  0
S  S110  1  0.29895103  0.17755243  0.40865950  1  0  0.069279  0  2.830625  0  0  0.081942  0  3.239039  0  0  0.083568  0  3.230304  0  0.061921  0  -0.005472  0.080824  0  3.247825  0
S  S111  1  0.70106373  0.67755030  0.90866346  1  0  0.069365  0  2.830687  0  0  0.082019  0  3.23909  0  0  0.083649  0  3.23034  0  0.061579  0  -0.005404  0.080902  0  3.24787  0
Br  Br112  1  0.65799963  0.40822283  0.32432573  1  0  -0.45071  0  1.310427  0  0  -0.385692  0  1.677968  0  0  -0.401495  0  1.64587  0  -0.564647  0  -0.245497  -0.37384  0  1.698987  0
Br  Br113  1  0.34200271  0.90821910  0.82432844  1  0  -0.450666  0  1.310536  0  0  -0.38563  0  1.678054  0  0  -0.40143  0  1.645959  0  -0.564622  0  -0.245454  -0.373775  0  1.699073  0
Br  Br114  1  0.46549339  0.40263959  0.55538445  1  0  -0.459704  0  1.374367  0  0  -0.394235  0  1.740883  0  0  -0.409803  0  1.707143  0  -0.566418  0  -0.235487  -0.38234  0  1.762785  0
Br  Br115  1  0.53452758  0.90263826  0.05537892  1  0  -0.459718  0  1.374422  0  0  -0.394241  0  1.740915  0  0  -0.409799  0  1.70717  0  -0.566337  0  -0.235491  -0.382345  0  1.762811  0
