# generated using pymatgen
data_CdH12C14(SeN4)2
_symmetry_space_group_name_H-M   'P 1'
_cell_length_a   12.36168885
_cell_length_b   12.72642132
_cell_length_c   13.02707147
_cell_angle_alpha   63.25769849
_cell_angle_beta   87.58406247
_cell_angle_gamma   86.04535030
_symmetry_Int_Tables_number   1
_chemical_formula_structural   CdH12C14(SeN4)2
_chemical_formula_sum   'Cd4 H48 C56 Se8 N32'
_cell_volume   1825.71248391
_cell_formula_units_Z   4
loop_
 _symmetry_equiv_pos_site_id
 _symmetry_equiv_pos_as_xyz
  1  'x, y, z'
loop_
 _atom_site_type_symbol
 _atom_site_label
 _atom_site_symmetry_multiplicity
 _atom_site_fract_x
 _atom_site_fract_y
 _atom_site_fract_z
 _atom_site_occupancy
 _atom_site_hle17_bader_spin_density
 _atom_site_hle17_ddec_charge
 _atom_site_hle17_ddec_spin_density
 _atom_site_hle17_ddec_sum_bond_order
 _atom_site_hle17_magmom
 _atom_site_hse06_10hf_bader_spin_density
 _atom_site_hse06_10hf_ddec_charge
 _atom_site_hse06_10hf_ddec_spin_density
 _atom_site_hse06_10hf_ddec_sum_bond_order
 _atom_site_hse06_10hf_magmom
 _atom_site_hse06_bader_spin_density
 _atom_site_hse06_ddec_charge
 _atom_site_hse06_ddec_spin_density
 _atom_site_hse06_ddec_sum_bond_order
 _atom_site_hse06_magmom
 _atom_site_pbe_bader_spin_density
 _atom_site_pbe_cm5_charge
 _atom_site_pbe_ddec_charge
 _atom_site_pbe_ddec_spin_density
 _atom_site_pbe_ddec_sum_bond_order
 _atom_site_pbe_magmom
Cd  Cd0  1  0.99999759  0.49999661  0.49999782  1  0  1.095421  0  1.923197  0  0  0.892  0  2.420881  0  0  0.942253  0  2.370928  0  0  0.830177  0.85686  0  2.45471  0
Cd  Cd1  1  0.25248900  0.25423040  0.25453290  1  0  0.778441  0  2.000036  0  0  0.562812  0  2.465654  0  0  0.613136  0  2.431388  0  0  0.662102  0.527847  0  2.488414  0
Cd  Cd2  1  0.74751127  0.74576713  0.74546912  1  0  0.778433  0  2.000036  0  0  0.562816  0  2.465592  0  0  0.613115  0  2.431381  0  0  0.662108  0.527854  0  2.488344  0
Cd  Cd3  1  0.49999977  0.00000053  0.99999925  1  0  1.096463  0  1.906024  0  0  0.89074  0  2.404702  0  0  0.941668  0  2.354462  0  0  0.824836  0.855074  0  2.438782  0
H  H4  1  0.90202758  0.90626412  0.13864564  1  0  0.076434  0  0.954343  0  0  0.080414  0  1.026755  0  0  0.083542  0  1.02432  0  0  0.10809  0.078102  0  1.028638  0
H  H5  1  0.09797350  0.09373342  0.86135710  1  0  0.076501  0  0.954195  0  0  0.080467  0  1.026615  0  0  0.083596  0  1.024177  0  0  0.108113  0.078156  0  1.028496  0
H  H6  1  0.09077812  0.96815721  0.06712133  1  0  0.100935  0  0.961516  0  0  0.109324  0  1.025474  0  0  0.112223  0  1.023468  0  0  0.10301  0.107142  0  1.027091  0
H  H7  1  0.90922206  0.03184210  0.93288143  1  0  0.101069  0  0.961481  0  0  0.109452  0  1.025433  0  0  0.112357  0  1.023431  0  0  0.103053  0.107269  0  1.027051  0
H  H8  1  0.24885376  0.82957303  0.17861492  1  0  0.1226  0  0.948737  0  0  0.123461  0  1.020556  0  0  0.12709  0  1.018285  0  0  0.112385  0.120838  0  1.022263  0
H  H9  1  0.75114638  0.17042716  0.82138745  1  0  0.122573  0  0.948731  0  0  0.123461  0  1.020527  0  0  0.127092  0  1.01825  0  0  0.112396  0.120837  0  1.022236  0
H  H10  1  0.19984157  0.64135107  0.35198287  1  0  0.088888  0  0.948508  0  0  0.096838  0  1.011947  0  0  0.098744  0  1.011137  0  0  0.118632  0.095442  0  1.012615  0
H  H11  1  0.80016023  0.35864822  0.64801829  1  0  0.088882  0  0.948456  0  0  0.096843  0  1.011893  0  0  0.098751  0  1.011083  0  0  0.118629  0.095451  0  1.012552  0
H  H12  1  0.16737024  0.87284468  0.62793922  1  0  0.07473  0  0.966615  0  0  0.077125  0  1.04195  0  0  0.08054  0  1.039093  0  0  0.10506  0.0746  0  1.044118  0
H  H13  1  0.83263254  0.12715108  0.37206272  1  0  0.074781  0  0.966567  0  0  0.07714  0  1.042002  0  0  0.080554  0  1.039141  0  0  0.105055  0.074614  0  1.044171  0
H  H14  1  0.00495483  0.94569674  0.70776750  1  0  0.102146  0  0.981348  0  0  0.10872  0  1.051246  0  0  0.112659  0  1.047967  0  0  0.092861  0.105727  0  1.053933  0
H  H15  1  0.99504791  0.05429989  0.29223404  1  0  0.102155  0  0.981368  0  0  0.108709  0  1.051274  0  0  0.112648  0  1.047996  0  0  0.092851  0.105715  0  1.053962  0
H  H16  1  0.93433864  0.15752840  0.58824013  1  0  0.108147  0  0.94274  0  0  0.116465  0  1.003728  0  0  0.118604  0  1.004305  0  0  0.110379  0.114903  0  1.003441  0
H  H17  1  0.06567033  0.84247360  0.41176487  1  0  0.1082  0  0.94273  0  0  0.116549  0  1.003687  0  0  0.118686  0  1.004268  0  0  0.110393  0.114988  0  1.003402  0
H  H18  1  0.03713981  0.27878909  0.40742509  1  0  0.094711  0  0.969024  0  0  0.097477  0  1.040268  0  0  0.099371  0  1.039684  0  0  0.117874  0.096032  0  1.04084  0
H  H19  1  0.96286604  0.72121022  0.59257742  1  0  0.094846  0  0.969026  0  0  0.097578  0  1.040282  0  0  0.099473  0  1.039696  0  0  0.117925  0.09613  0  1.040853  0
H  H20  1  0.32730613  0.64257579  0.88125097  1  0  0.079541  0  0.954777  0  0  0.08303  0  1.027647  0  0  0.08603  0  1.025436  0  0  0.109068  0.080823  0  1.029328  0
H  H21  1  0.67269414  0.35742172  0.11874952  1  0  0.07951  0  0.954838  0  0  0.082995  0  1.027711  0  0  0.085996  0  1.025498  0  0  0.109045  0.080787  0  1.029394  0
H  H22  1  0.46984366  0.56718265  0.78264746  1  0  0.104236  0  0.980157  0  0  0.110976  0  1.051075  0  0  0.114948  0  1.047316  0  0  0.094666  0.107934  0  1.054133  0
H  H23  1  0.53015579  0.43281484  0.21735154  1  0  0.104199  0  0.980316  0  0  0.110943  0  1.051249  0  0  0.114917  0  1.047485  0  0  0.094662  0.1079  0  1.054308  0
H  H24  1  0.53807512  0.35147586  0.89256625  1  0  0.115398  0  0.940042  0  0  0.124148  0  0.998495  0  0  0.126688  0  0.998141  0  0  0.11415  0.122299  0  0.998869  0
H  H25  1  0.46192520  0.64852080  0.10743692  1  0  0.11534  0  0.940063  0  0  0.124082  0  0.998531  0  0  0.126629  0  0.998159  0  0  0.114146  0.122231  0  0.998909  0
H  H26  1  0.44943730  0.23128023  0.08264988  1  0  0.097515  0  0.962548  0  0  0.100498  0  1.033697  0  0  0.102517  0  1.032798  0  0  0.117809  0.098988  0  1.034451  0
H  H27  1  0.55056207  0.76871908  0.91735291  1  0  0.097531  0  0.962506  0  0  0.100484  0  1.033673  0  0  0.102502  0  1.032775  0  0  0.117801  0.098972  0  1.034428  0
H  H28  1  0.31617406  0.96526140  0.35121145  1  0  0.087186  0  0.947143  0  0  0.087906  0  1.023554  0  0  0.091269  0  1.020104  0  0  0.116364  0.085464  0  1.026063  0
H  H29  1  0.68383084  0.03473949  0.64877504  1  0  0.08715  0  0.947127  0  0  0.08783  0  1.023645  0  0  0.091207  0  1.02016  0  0  0.116355  0.085381  0  1.026173  0
H  H30  1  0.48191451  0.82499020  0.41983175  1  0  0.102991  0  0.963916  0  0  0.111067  0  1.029056  0  0  0.11382  0  1.028605  0  0  0.099316  0.108978  0  1.029685  0
H  H31  1  0.51809057  0.17500820  0.58016889  1  0  0.10298  0  0.964003  0  0  0.111055  0  1.029135  0  0  0.113807  0  1.02868  0  0  0.099338  0.108968  0  1.029761  0
H  H32  1  0.66153908  0.91417389  0.40925017  1  0  0.108342  0  0.943411  0  0  0.115562  0  1.005549  0  0  0.118426  0  1.004614  0  0  0.10944  0.113495  0  1.006304  0
H  H33  1  0.33846426  0.08582720  0.59075319  1  0  0.108295  0  0.943537  0  0  0.11557  0  1.005623  0  0  0.118433  0  1.004689  0  0  0.109414  0.113501  0  1.006383  0
H  H34  1  0.65912197  0.13639398  0.33084610  1  0  0.07404  0  0.975232  0  0  0.077715  0  1.050517  0  0  0.080679  0  1.048181  0  0  0.106142  0.075469  0  1.052445  0
H  H35  1  0.34087899  0.86360626  0.66916081  1  0  0.074085  0  0.975132  0  0  0.077769  0  1.05038  0  0  0.08073  0  1.048045  0  0  0.106155  0.075521  0  1.052312  0
H  H36  1  0.85026120  0.36758571  0.14656584  1  0  0.073673  0  0.977001  0  0  0.076098  0  1.054198  0  0  0.078989  0  1.052154  0  0  0.106516  0.073903  0  1.055917  0
H  H37  1  0.14973821  0.63241270  0.85343582  1  0  0.073682  0  0.97698  0  0  0.076133  0  1.054167  0  0  0.079022  0  1.052125  0  0  0.106535  0.073939  0  1.055887  0
H  H38  1  0.84116446  0.58926519  0.07897536  1  0  0.104469  0  0.949218  0  0  0.111721  0  1.011949  0  0  0.114564  0  1.011211  0  0  0.105936  0.109631  0  1.012635  0
H  H39  1  0.15883576  0.41073322  0.92102627  1  0  0.104472  0  0.94924  0  0  0.111728  0  1.011964  0  0  0.114572  0  1.011225  0  0  0.105927  0.109641  0  1.012643  0
H  H40  1  0.01515923  0.68028362  0.08422517  1  0  0.10076  0  0.965718  0  0  0.106794  0  1.033663  0  0  0.109546  0  1.033452  0  0  0.100255  0.104776  0  1.033986  0
H  H41  1  0.98484180  0.31971478  0.91577565  1  0  0.100717  0  0.965727  0  0  0.106765  0  1.033671  0  0  0.109514  0  1.03346  0  0  0.10024  0.104747  0  1.033995  0
H  H42  1  0.18109943  0.54162521  0.16328693  1  0  0.085219  0  0.944417  0  0  0.087641  0  1.018731  0  0  0.090667  0  1.015734  0  0  0.117367  0.085462  0  1.02088  0
H  H43  1  0.81890083  0.45837231  0.83671432  1  0  0.085192  0  0.944424  0  0  0.087632  0  1.018722  0  0  0.090659  0  1.015724  0  0  0.117356  0.085453  0  1.020872  0
H  H44  1  0.41895644  0.60463902  0.36930939  1  0  0.075665  0  0.953453  0  0  0.080678  0  1.024341  0  0  0.083481  0  1.022037  0  0  0.108871  0.078581  0  1.026162  0
H  H45  1  0.58104339  0.39536738  0.63069327  1  0  0.075663  0  0.953419  0  0  0.080684  0  1.024276  0  0  0.083491  0  1.021965  0  0  0.10885  0.078585  0  1.026094  0
H  H46  1  0.61117044  0.53009546  0.43358914  1  0  0.09912  0  0.965591  0  0  0.106589  0  1.031531  0  0  0.109796  0  1.029512  0  0  0.101037  0.104203  0  1.033156  0
H  H47  1  0.38882934  0.46991181  0.56641236  1  0  0.099103  0  0.965454  0  0  0.106573  0  1.031395  0  0  0.109778  0  1.02938  0  0  0.101055  0.104186  0  1.03302  0
H  H48  1  0.76236014  0.66469771  0.32121383  1  0  0.120708  0  0.960654  0  0  0.119819  0  1.034861  0  0  0.123593  0  1.032451  0  0  0.110834  0.117054  0  1.036705  0
H  H49  1  0.23763985  0.33530508  0.67878430  1  0  0.120709  0  0.960681  0  0  0.119811  0  1.034892  0  0  0.123586  0  1.032483  0  0  0.110819  0.117046  0  1.036738  0
H  H50  1  0.70490780  0.85604594  0.15075248  1  0  0.090945  0  0.93669  0  0  0.10051  0  0.997059  0  0  0.102428  0  0.996027  0  0  0.121494  0.099068  0  0.997891  0
H  H51  1  0.29509227  0.14395507  0.84924415  1  0  0.090923  0  0.936769  0  0  0.100497  0  0.997129  0  0  0.102415  0  0.996099  0  0  0.121498  0.099056  0  0.99796  0
C  C52  1  0.81507440  0.37963814  0.41149827  1  0  0.228345  0  3.89746  0  0  0.221005  0  4.198836  0  0  0.243948  0  4.211618  0  0  0.088774  0.205349  0  4.189136  0
C  C53  1  0.18490105  0.62036894  0.58848978  1  0  0.227858  0  3.89698  0  0  0.220501  0  4.198401  0  0  0.243438  0  4.211201  0  0  0.088475  0.204846  0  4.188698  0
C  C54  1  0.24253220  0.39391125  0.42499245  1  0  0.216571  0  3.84742  0  0  0.206782  0  4.153953  0  0  0.227817  0  4.166711  0  0  0.100328  0.192432  0  4.144865  0
C  C55  1  0.75746725  0.60608625  0.57500731  1  0  0.216509  0  3.847376  0  0  0.206718  0  4.153916  0  0  0.227755  0  4.166669  0  0  0.100295  0.192367  0  4.14483  0
C  C56  1  0.26099086  0.09165522  0.09649394  1  0  0.214253  0  3.839806  0  0  0.204397  0  4.147679  0  0  0.225335  0  4.160576  0  0  0.099083  0.190095  0  4.138474  0
C  C57  1  0.73900927  0.90834494  0.90350614  1  0  0.214227  0  3.839819  0  0  0.204372  0  4.147693  0  0  0.225307  0  4.160594  0  0  0.099069  0.190069  0  4.138487  0
C  C58  1  0.68920871  0.12935793  0.07771613  1  0  0.233165  0  3.890783  0  0  0.225884  0  4.19288  0  0  0.249159  0  4.205476  0  0  0.088666  0.209969  0  4.183268  0
C  C59  1  0.31079223  0.87064224  0.92228467  1  0  0.233183  0  3.890839  0  0  0.225904  0  4.192928  0  0  0.249176  0  4.205523  0  0  0.088703  0.209988  0  4.18331  0
C  C60  1  0.97322155  0.84945998  0.18048659  1  0  0.067687  0  3.718428  0  0  0.044009  0  3.984081  0  0  0.045805  0  3.999689  0  0  0.04713  0.042589  0  3.973972  0
C  C61  1  0.02677863  0.15053932  0.81951540  1  0  0.067639  0  3.718287  0  0  0.043985  0  3.98394  0  0  0.045779  0  3.999551  0  0  0.047132  0.042565  0  3.973828  0
C  C62  1  0.07814246  0.88442210  0.14166220  1  0  -0.0553  0  3.720194  0  0  -0.073384  0  3.968565  0  0  -0.073089  0  3.986565  0  0  -0.062697  -0.073644  0  3.956699  0
C  C63  1  0.92185773  0.11557721  0.85834056  1  0  -0.055486  0  3.720323  0  0  -0.073569  0  3.968705  0  0  -0.073284  0  3.986714  0  0  -0.062791  -0.073828  0  3.956839  0
C  C64  1  0.16435564  0.80940813  0.20241127  1  0  -0.058655  0  3.674267  0  0  -0.070917  0  3.917428  0  0  -0.073927  0  3.935883  0  0  -0.059683  -0.068972  0  3.905215  0
C  C65  1  0.83564535  0.19059118  0.79759145  1  0  -0.058588  0  3.674234  0  0  -0.070869  0  3.917398  0  0  -0.073876  0  3.935848  0  0  -0.059657  -0.068925  0  3.905186  0
C  C66  1  0.13812662  0.70526334  0.29762860  1  0  0.084641  0  3.69201  0  0  0.056602  0  3.938742  0  0  0.060399  0  3.957855  0  0  0.051127  0.053673  0  3.92654  0
C  C67  1  0.86187523  0.29473508  0.70237372  1  0  0.084735  0  3.691965  0  0  0.056682  0  3.93867  0  0  0.060462  0  3.957811  0  0  0.051193  0.053754  0  3.926467  0
C  C68  1  0.13455844  0.96389834  0.58411485  1  0  0.073906  0  3.73088  0  0  0.052558  0  3.989525  0  0  0.054203  0  4.006234  0  0  0.047005  0.051359  0  3.978515  0
C  C69  1  0.86544341  0.03610007  0.41588747  1  0  0.07384  0  3.730887  0  0  0.052464  0  3.989529  0  0  0.054117  0  4.006226  0  0  0.04699  0.051265  0  3.978523  0
C  C70  1  0.04441330  0.00420547  0.62775986  1  0  -0.054808  0  3.702004  0  0  -0.071087  0  3.943451  0  0  -0.071737  0  3.961839  0  0  -0.066596  -0.070668  0  3.93137  0
C  C71  1  0.95558778  0.99579206  0.37224288  1  0  -0.054884  0  3.701917  0  0  -0.071111  0  3.943365  0  0  -0.071766  0  3.961755  0  0  -0.066661  -0.070692  0  3.931289  0
C  C72  1  0.00626987  0.11957127  0.56343934  1  0  -0.055352  0  3.678844  0  0  -0.068477  0  3.924269  0  0  -0.07209  0  3.945236  0  0  -0.063573  -0.066159  0  3.910246  0
C  C73  1  0.99373837  0.88042894  0.43656420  1  0  -0.055364  0  3.678853  0  0  -0.068543  0  3.924288  0  0  -0.072156  0  3.945261  0  0  -0.063542  -0.066219  0  3.910249  0
C  C74  1  0.06247228  0.18727000  0.46191053  1  0  0.103149  0  3.66124  0  0  0.070178  0  3.915176  0  0  0.074447  0  3.933902  0  0  0.053011  0.067337  0  3.902633  0
C  C75  1  0.93753524  0.81272844  0.53809307  1  0  0.102974  0  3.66144  0  0  0.070056  0  3.915354  0  0  0.074326  0  3.934074  0  0  0.052985  0.067221  0  3.90281  0
C  C76  1  0.35786732  0.55043764  0.92058801  1  0  0.076027  0  3.714525  0  0  0.055433  0  3.972992  0  0  0.056789  0  3.990324  0  0  0.049059  0.054485  0  3.961386  0
C  C77  1  0.64213295  0.44955988  0.07941325  1  0  0.075961  0  3.714706  0  0  0.05537  0  3.9732  0  0  0.056728  0  3.990526  0  0  0.049058  0.05442  0  3.961596  0
C  C78  1  0.43763545  0.50845942  0.86670645  1  0  -0.054134  0  3.698514  0  0  -0.072375  0  3.943591  0  0  -0.073097  0  3.96248  0  0  -0.06373  -0.071851  0  3.931102  0
C  C79  1  0.56236239  0.49153809  0.13329415  1  0  -0.053995  0  3.698493  0  0  -0.072252  0  3.943549  0  0  -0.072971  0  3.962433  0  0  -0.063697  -0.071729  0  3.931063  0
C  C80  1  0.47384164  0.39141597  0.92555642  1  0  -0.057109  0  3.676033  0  0  -0.070486  0  3.919881  0  0  -0.074359  0  3.941505  0  0  -0.063394  -0.06794  0  3.905357  0
C  C81  1  0.52615782  0.60858155  0.07444486  1  0  -0.057095  0  3.676027  0  0  -0.070468  0  3.919874  0  0  -0.07434  0  3.9415  0  0  -0.063423  -0.067924  0  3.905349  0
C  C82  1  0.42523121  0.32404114  0.03210254  1  0  0.094518  0  3.667822  0  0  0.061666  0  3.9232  0  0  0.065464  0  3.942444  0  0  0.051288  0.059124  0  3.910303  0
C  C83  1  0.57476983  0.67595728  0.96789981  1  0  0.094508  0  3.667928  0  0  0.061718  0  3.923263  0  0  0.065517  0  3.942508  0  0  0.051317  0.059185  0  3.910345  0
C  C84  1  0.39656567  0.99644858  0.34845709  1  0  0.110259  0  3.675667  0  0  0.076264  0  3.931621  0  0  0.081171  0  3.949256  0  0  0.0599  0.07298  0  3.919798  0
C  C85  1  0.60343853  0.00355058  0.65153328  1  0  0.110363  0  3.675714  0  0  0.076302  0  3.931696  0  0  0.081216  0  3.949325  0  0  0.059812  0.073016  0  3.919868  0
C  C86  1  0.48866817  0.91964077  0.38626029  1  0  -0.056053  0  3.682829  0  0  -0.07007  0  3.926971  0  0  -0.073729  0  3.947717  0  0  -0.0643  -0.067676  0  3.91312  0
C  C87  1  0.51133585  0.08036196  0.61373232  1  0  -0.056095  0  3.682821  0  0  -0.070075  0  3.926977  0  0  -0.07373  0  3.947717  0  0  -0.064299  -0.067683  0  3.913122  0
C  C88  1  0.58650790  0.96840928  0.38056932  1  0  -0.043155  0  3.674876  0  0  -0.061123  0  3.923304  0  0  -0.062199  0  3.942759  0  0  -0.05808  -0.060306  0  3.910183  0
C  C89  1  0.41349542  0.03159175  0.61942946  1  0  -0.043047  0  3.674968  0  0  -0.061092  0  3.923397  0  0  -0.062169  0  3.942851  0  0  -0.058042  -0.060275  0  3.910272  0
C  C90  1  0.58551487  0.09098279  0.33810869  1  0  0.09139  0  3.697902  0  0  0.06707  0  3.957724  0  0  0.068599  0  3.975238  0  0  0.0521  0.065899  0  3.946146  0
C  C91  1  0.41448750  0.90902088  0.66188894  1  0  0.091339  0  3.697876  0  0  0.067035  0  3.957741  0  0  0.068563  0  3.975261  0  0  0.052097  0.065865  0  3.946158  0
C  C92  1  0.92047114  0.41387461  0.14866186  1  0  0.088965  0  3.696072  0  0  0.06462  0  3.956022  0  0  0.066235  0  3.973522  0  0  0.052307  0.063429  0  3.9444  0
C  C93  1  0.07952899  0.58612556  0.85133897  1  0  0.088981  0  3.695999  0  0  0.064597  0  3.955939  0  0  0.066211  0  3.973442  0  0  0.052296  0.063409  0  3.944311  0
C  C94  1  0.91599118  0.53572770  0.11160080  1  0  -0.036117  0  3.666102  0  0  -0.052964  0  3.910689  0  0  -0.053843  0  3.92953  0  0  -0.057912  -0.052325  0  3.898041  0
C  C95  1  0.08400900  0.46427160  0.88840119  1  0  -0.036289  0  3.666067  0  0  -0.053136  0  3.910675  0  0  -0.054015  0  3.929514  0  0  -0.057977  -0.052497  0  3.898031  0
C  C96  1  0.01072332  0.58568892  0.11516211  1  0  -0.054765  0  3.6865  0  0  -0.069816  0  3.935039  0  0  -0.073372  0  3.955414  0  0  -0.062751  -0.067485  0  3.921412  0
C  C97  1  0.98927610  0.41430949  0.88483955  1  0  -0.054623  0  3.686385  0  0  -0.06968  0  3.93491  0  0  -0.073238  0  3.955296  0  0  -0.062678  -0.067352  0  3.921289  0
C  C98  1  0.10275834  0.51008797  0.15829905  1  0  0.104005  0  3.682158  0  0  0.067536  0  3.943815  0  0  0.072106  0  3.962179  0  0  0.058228  0.06449  0  3.931454  0
C  C99  1  0.89724193  0.48990955  0.84170220  1  0  0.104069  0  3.682176  0  0  0.067563  0  3.943881  0  0  0.072135  0  3.962238  0  0  0.058238  0.064516  0  3.931523  0
C  C100  1  0.48796042  0.65626310  0.32451578  1  0  0.064676  0  3.728386  0  0  0.040485  0  3.99622  0  0  0.042767  0  4.011809  0  0  0.047124  0.038878  0  3.985915  0
C  C101  1  0.51203868  0.34374149  0.67548465  1  0  0.064607  0  3.728451  0  0  0.040451  0  3.996247  0  0  0.042735  0  4.011828  0  0  0.047119  0.038841  0  3.985954  0
C  C102  1  0.59436764  0.61590212  0.36096797  1  0  -0.049094  0  3.700139  0  0  -0.066323  0  3.944618  0  0  -0.067073  0  3.963475  0  0  -0.061478  -0.065894  0  3.932173  0
C  C103  1  0.40563223  0.38410337  0.63903279  1  0  -0.048992  0  3.699995  0  0  -0.066239  0  3.944485  0  0  -0.066991  0  3.963349  0  0  -0.061523  -0.065806  0  3.932036  0
C  C104  1  0.67696183  0.68767556  0.29911402  1  0  -0.054218  0  3.663148  0  0  -0.065056  0  3.903889  0  0  -0.068155  0  3.922815  0  0  -0.058665  -0.063018  0  3.891344  0
C  C105  1  0.32303807  0.31232902  0.70088485  1  0  -0.054245  0  3.663231  0  0  -0.065059  0  3.90397  0  0  -0.068158  0  3.9229  0  0  -0.058625  -0.063021  0  3.891426  0
C  C106  1  0.64610528  0.79373995  0.20495576  1  0  0.093644  0  3.677744  0  0  0.065995  0  3.920525  0  0  0.069832  0  3.940128  0  0  0.055797  0.063427  0  3.907323  0
C  C107  1  0.35389471  0.20626284  0.79504236  1  0  0.093639  0  3.677872  0  0  0.065964  0  3.920663  0  0  0.0698  0  3.940266  0  0  0.055769  0.063397  0  3.907462  0
Se  Se108  1  0.69369960  0.30637944  0.42352951  1  0  -0.359368  0  1.828239  0  0  -0.345698  0  2.147328  0  0  -0.366198  0  2.140345  0  0  -0.135691  -0.330094  0  2.151266  0
Se  Se109  1  0.30625239  0.69367334  0.57642907  1  0  -0.359316  0  1.828108  0  0  -0.345663  0  2.147191  0  0  -0.366111  0  2.140122  0  0  -0.135693  -0.330066  0  2.151136  0
Se  Se110  1  0.36621530  0.35116667  0.37241436  1  0  -0.281306  0  2.050383  0  0  -0.264342  0  2.421467  0  0  -0.282884  0  2.410875  0  0  -0.083005  -0.251067  0  2.42831  0
Se  Se111  1  0.63378492  0.64883171  0.62758498  1  0  -0.281296  0  2.0504  0  0  -0.264345  0  2.421471  0  0  -0.282887  0  2.41088  0  0  -0.082994  -0.25107  0  2.428314  0
Se  Se112  1  0.14253565  0.16561471  0.12531542  1  0  -0.284164  0  2.073121  0  0  -0.267278  0  2.447149  0  0  -0.285841  0  2.436175  0  0  -0.079943  -0.253801  0  2.454136  0
Se  Se113  1  0.85746449  0.83438546  0.87468541  1  0  -0.284159  0  2.07312  0  0  -0.267281  0  2.447142  0  0  -0.285842  0  2.436176  0  0  -0.079952  -0.253804  0  2.454127  0
Se  Se114  1  0.82068492  0.16131754  0.10439174  1  0  -0.357239  0  1.842728  0  0  -0.341426  0  2.160715  0  0  -0.362637  0  2.15437  0  0  -0.13405  -0.325136  0  2.164087  0
Se  Se115  1  0.17931356  0.83868354  0.89561107  1  0  -0.357274  0  1.842699  0  0  -0.341465  0  2.160675  0  0  -0.362679  0  2.154331  0  0  -0.134083  -0.325189  0  2.164069  0
N  N116  1  0.89624332  0.42765613  0.40312512  1  0  -0.544153  0  2.887675  0  0  -0.486291  0  3.159576  0  0  -0.506905  0  3.165741  0  0  -0.401872  -0.471761  0  3.154909  0
N  N117  1  0.10374693  0.57231584  0.59688881  1  0  -0.543741  0  2.887294  0  0  -0.485848  0  3.159157  0  0  -0.506466  0  3.165341  0  0  -0.401594  -0.471315  0  3.154477  0
N  N118  1  0.16143351  0.41921649  0.46148309  1  0  -0.490089  0  2.906822  0  0  -0.435935  0  3.18781  0  0  -0.45533  0  3.193814  0  0  -0.372041  -0.422632  0  3.183573  0
N  N119  1  0.83856685  0.58077927  0.53851895  1  0  -0.490044  0  2.906722  0  0  -0.435896  0  3.18772  0  0  -0.45529  0  3.193721  0  0  -0.372042  -0.422595  0  3.183485  0
N  N120  1  0.33828949  0.04274136  0.07815118  1  0  -0.490335  0  2.882511  0  0  -0.437361  0  3.16174  0  0  -0.456768  0  3.168021  0  0  -0.371201  -0.424066  0  3.157364  0
N  N121  1  0.66170983  0.95725878  0.92184664  1  0  -0.490328  0  2.882529  0  0  -0.437351  0  3.161747  0  0  -0.45676  0  3.168031  0  0  -0.371202  -0.424059  0  3.157372  0
N  N122  1  0.60155059  0.10814295  0.06119389  1  0  -0.545916  0  2.900868  0  0  -0.48897  0  3.178459  0  0  -0.50994  0  3.183732  0  0  -0.399998  -0.474153  0  3.174371  0
N  N123  1  0.39844954  0.89185720  0.93880541  1  0  -0.545904  0  2.900982  0  0  -0.488956  0  3.178572  0  0  -0.509926  0  3.183843  0  0  -0.399996  -0.474139  0  3.17448  0
N  N124  1  0.03554138  0.67601918  0.32915255  1  0  -0.196906  0  3.224624  0  0  -0.131428  0  3.501734  0  0  -0.145064  0  3.520755  0  0  -0.199543  -0.12202  0  3.488685  0
N  N125  1  0.96445969  0.32397833  0.67084791  1  0  -0.196979  0  3.224718  0  0  -0.131466  0  3.501823  0  0  -0.145096  0  3.520836  0  0  -0.199542  -0.122058  0  3.488775  0
N  N126  1  0.95206315  0.74730842  0.27115864  1  0  -0.153931  0  3.005182  0  0  -0.133531  0  3.276882  0  0  -0.136548  0  3.292375  0  0  -0.187841  -0.131313  0  3.266363  0
N  N127  1  0.04793789  0.25268998  0.72884219  1  0  -0.153954  0  3.005134  0  0  -0.133576  0  3.276832  0  0  -0.136592  0  3.292322  0  0  -0.187905  -0.131359  0  3.266315  0
N  N128  1  0.14925091  0.14344707  0.42611896  1  0  -0.191115  0  3.233825  0  0  -0.119048  0  3.504137  0  0  -0.13344  0  3.52445  0  0  -0.205939  -0.109243  0  3.490262  0
N  N129  1  0.85075422  0.85655046  0.57388361  1  0  -0.191015  0  3.233784  0  0  -0.118957  0  3.504055  0  0  -0.133348  0  3.524365  0  0  -0.205898  -0.109153  0  3.490176  0
N  N130  1  0.18569288  0.03116639  0.48625762  1  0  -0.177655  0  3.032277  0  0  -0.156928  0  3.307759  0  0  -0.161027  0  3.324889  0  0  -0.196945  -0.154072  0  3.296296  0
N  N131  1  0.81431230  0.96883028  0.51374687  1  0  -0.177633  0  3.032175  0  0  -0.156868  0  3.30762  0  0  -0.160967  0  3.324742  0  0  -0.19693  -0.154012  0  3.296157  0
N  N132  1  0.34777115  0.36956309  0.07767896  1  0  -0.193476  0  3.249039  0  0  -0.122471  0  3.520329  0  0  -0.136509  0  3.540856  0  0  -0.206407  -0.112855  0  3.506252  0
N  N133  1  0.65222902  0.63043619  0.92232151  1  0  -0.193515  0  3.248894  0  0  -0.122523  0  3.520172  0  0  -0.136562  0  3.540694  0  0  -0.206438  -0.112908  0  3.506097  0
N  N134  1  0.31409323  0.48317856  0.02318877  1  0  -0.173952  0  3.03053  0  0  -0.153841  0  3.305204  0  0  -0.157922  0  3.322317  0  0  -0.194574  -0.150917  0  3.293652  0
N  N135  1  0.68590709  0.51681809  0.97681440  1  0  -0.173915  0  3.030501  0  0  -0.153795  0  3.30516  0  0  -0.157875  0  3.322271  0  0  -0.194569  -0.150873  0  3.293609  0
N  N136  1  0.40161427  0.11267744  0.30962799  1  0  -0.183823  0  3.236976  0  0  -0.107448  0  3.499724  0  0  -0.122979  0  3.521398  0  0  -0.204606  -0.096802  0  3.484763  0
N  N137  1  0.59838894  0.88732528  0.69036389  1  0  -0.183932  0  3.237254  0  0  -0.107448  0  3.499899  0  0  -0.122979  0  3.52157  0  0  -0.204568  -0.096803  0  3.484939  0
N  N138  1  0.49548950  0.16115357  0.30442858  1  0  -0.162866  0  3.008588  0  0  -0.136312  0  3.276036  0  0  -0.140818  0  3.293536  0  0  -0.195606  -0.133107  0  3.264295  0
N  N139  1  0.50451135  0.83884836  0.69557067  1  0  -0.162866  0  3.008721  0  0  -0.13634  0  3.276122  0  0  -0.140847  0  3.293624  0  0  -0.195607  -0.133136  0  3.264379  0
N  N140  1  0.10090743  0.39410243  0.19329576  1  0  -0.18085  0  3.22782  0  0  -0.106559  0  3.492247  0  0  -0.121573  0  3.513516  0  0  -0.20328  -0.096287  0  3.477652  0
N  N141  1  0.89909203  0.60589510  0.80670629  1  0  -0.18085  0  3.22773  0  0  -0.106563  0  3.492191  0  0  -0.121576  0  3.513455  0  0  -0.203254  -0.096291  0  3.477598  0
N  N142  1  0.01065248  0.34507836  0.18762536  1  0  -0.156802  0  3.014911  0  0  -0.127736  0  3.282155  0  0  -0.132343  0  3.299191  0  0  -0.194515  -0.124472  0  3.27072  0
N  N143  1  0.98934613  0.65492004  0.81237634  1  0  -0.156795  0  3.01481  0  0  -0.127715  0  3.282049  0  0  -0.13232  0  3.299086  0  0  -0.19453  -0.124451  0  3.270612  0
N  N144  1  0.54265053  0.82613592  0.17346826  1  0  -0.195145  0  3.226661  0  0  -0.129428  0  3.504196  0  0  -0.143469  0  3.523839  0  0  -0.19858  -0.119786  0  3.490763  0
N  N145  1  0.45735028  0.17386688  0.82653060  1  0  -0.195071  0  3.226484  0  0  -0.129354  0  3.50403  0  0  -0.143395  0  3.523672  0  0  -0.198547  -0.119712  0  3.490596  0
N  N146  1  0.46233776  0.75842640  0.23299977  1  0  -0.160109  0  3.007946  0  0  -0.14112  0  3.282847  0  0  -0.144532  0  3.298046  0  0  -0.189576  -0.1387  0  3.272564  0
N  N147  1  0.53766134  0.24157818  0.76699913  1  0  -0.1601  0  3.007824  0  0  -0.141124  0  3.282722  0  0  -0.144533  0  3.297916  0  0  -0.189527  -0.138701  0  3.272437  0
