# generated using pymatgen
data_HgH8C11Br2N3OF
_symmetry_space_group_name_H-M   'P 1'
_cell_length_a   3.98929807
_cell_length_b   11.33384778
_cell_length_c   34.65901858
_cell_angle_alpha   90.00237059
_cell_angle_beta   89.99965636
_cell_angle_gamma   87.59960429
_symmetry_Int_Tables_number   1
_chemical_formula_structural   HgH8C11Br2N3OF
_chemical_formula_sum   'Hg4 H32 C44 Br8 N12 O4 F4'
_cell_volume   1565.70118471
_cell_formula_units_Z   4
loop_
 _symmetry_equiv_pos_site_id
 _symmetry_equiv_pos_as_xyz
  1  'x, y, z'
loop_
 _atom_site_type_symbol
 _atom_site_label
 _atom_site_symmetry_multiplicity
 _atom_site_fract_x
 _atom_site_fract_y
 _atom_site_fract_z
 _atom_site_occupancy
 _atom_site_pbe_bader_charge
 _atom_site_pbe_bader_spin_density
 _atom_site_pbe_cm5_charge
 _atom_site_pbe_ddec_charge
 _atom_site_pbe_ddec_spin_density
 _atom_site_pbe_ddec_sum_bond_order
 _atom_site_pbe_magmom
Hg  Hg0  1  0.73161444  0.07280245  0.86586888  1  0.661517  0  0.4067  0.448293  0  2.654721  0
Hg  Hg1  1  0.26836235  0.42723304  0.36587167  1  0.661947  0  0.406614  0.448261  0  2.654697  0
Hg  Hg2  1  0.26840984  0.92718729  0.13412113  1  0.661747  0  0.40666  0.448227  0  2.65478  0
Hg  Hg3  1  0.73164595  0.57277094  0.63412641  1  0.661983  0  0.40663  0.448228  0  2.654831  0
H  H4  1  0.22518563  0.75910826  0.75506752  1  0.138542  0  0.113704  0.096729  0  1.019154  0
H  H5  1  0.77481746  0.74091997  0.25506743  1  0.138152  0  0.113655  0.096686  0  1.01914  0
H  H6  1  0.77472677  0.24090517  0.24493230  1  0.138066  0  0.113734  0.096754  0  1.019079  0
H  H7  1  0.22520228  0.25910069  0.74492777  1  0.138322  0  0.11374  0.096827  0  1.019107  0
H  H8  1  0.37931770  0.82973038  0.82139408  1  0.120287  0  0.118549  0.102534  0  0.993049  0
H  H9  1  0.62068922  0.67030827  0.32139262  1  0.119768  0  0.118712  0.102653  0  0.993035  0
H  H10  1  0.62064124  0.17026156  0.17860746  1  0.120396  0  0.11853  0.102672  0  0.992964  0
H  H11  1  0.37934720  0.32972552  0.67860517  1  0.120256  0  0.118596  0.102629  0  0.992929  0
H  H12  1  0.84588064  0.11586342  0.77291495  1  0.114591  0  0.105822  0.08874  0  1.04575  0
H  H13  1  0.15412088  0.38416504  0.27291612  1  0.114977  0  0.105737  0.088542  0  1.046069  0
H  H14  1  0.15412631  0.88412291  0.22709150  1  0.114464  0  0.105721  0.088593  0  1.045981  0
H  H15  1  0.84593409  0.61585363  0.72709119  1  0.114574  0  0.105822  0.08866  0  1.045968  0
H  H16  1  0.95362489  0.20450239  0.63718573  1  0.128936  0  0.098244  0.112512  0  1.040116  0
H  H17  1  0.04644646  0.29547255  0.13719276  1  0.130408  0  0.098156  0.112281  0  1.040248  0
H  H18  1  0.04644757  0.79547910  0.36281091  1  0.130664  0  0.098216  0.112453  0  1.040155  0
H  H19  1  0.95352480  0.70452284  0.86280907  1  0.130576  0  0.098186  0.112322  0  1.040383  0
H  H20  1  0.03713356  0.25169937  0.56740027  1  0.090573  0  0.09574  0.129967  0  1.015818  0
H  H21  1  0.96277700  0.24829044  0.06740329  1  0.090108  0  0.095771  0.12983  0  1.015961  0
H  H22  1  0.96289789  0.74829562  0.43260069  1  0.090628  0  0.09573  0.129875  0  1.015895  0
H  H23  1  0.03716147  0.75170781  0.93260345  1  0.090464  0  0.09582  0.129969  0  1.015826  0
H  H24  1  0.55656620  0.93386660  0.53493678  1  0.119208  0  0.106615  0.132365  0  1.01393  0
H  H25  1  0.44327842  0.56613035  0.03494103  1  0.11986  0  0.106528  0.132138  0  1.013859  0
H  H26  1  0.44339905  0.06614384  0.46505957  1  0.11954  0  0.106582  0.132288  0  1.013898  0
H  H27  1  0.55666309  0.43385994  0.96505676  1  0.119588  0  0.106619  0.132396  0  1.013804  0
H  H28  1  0.46794279  0.88643852  0.60440155  1  0.081478  0  0.093935  0.105333  0  1.024646  0
H  H29  1  0.53207045  0.61353905  0.10440577  1  0.081895  0  0.093854  0.105194  0  1.02466  0
H  H30  1  0.53206627  0.11355398  0.39559365  1  0.081763  0  0.093927  0.10526  0  1.024661  0
H  H31  1  0.46792151  0.38644650  0.89559405  1  0.081686  0  0.093902  0.105296  0  1.0246  0
H  H32  1  0.51996965  0.93419775  0.66771465  1  0.460114  0  0.302529  0.260154  0  0.993735  0
H  H33  1  0.48012586  0.56578138  0.16771108  1  0.460196  0  0.302623  0.260298  0  0.993605  0
H  H34  1  0.48002797  0.06581601  0.33229209  1  0.459645  0  0.302585  0.260262  0  0.993576  0
H  H35  1  0.51990099  0.43420746  0.83228845  1  0.460406  0  0.302594  0.260187  0  0.993572  0
C  C36  1  0.36899363  0.83820150  0.75858221  1  0.522228  0  0.056046  0.065801  0  3.915022  0
C  C37  1  0.63104012  0.66181552  0.25858150  1  0.522391  0  0.05611  0.065799  0  3.914938  0
C  C38  1  0.63096969  0.16180012  0.24141847  1  0.522797  0  0.056033  0.065797  0  3.914971  0
C  C39  1  0.36896714  0.33820435  0.74141659  1  0.522675  0  0.056088  0.06582  0  3.914876  0
C  C40  1  0.45150615  0.87745765  0.79558550  1  0.523512  0  0.059784  0.068591  0  3.884791  0
C  C41  1  0.54850776  0.62256875  0.29558550  1  0.523909  0  0.0597  0.068568  0  3.884963  0
C  C42  1  0.54846534  0.12253421  0.20441576  1  0.523754  0  0.059859  0.068579  0  3.884964  0
C  C43  1  0.45151652  0.37745894  0.70441461  1  0.523346  0  0.059717  0.068411  0  3.884736  0
C  C44  1  0.70961659  0.03540010  0.76872250  1  0.549313  0  0.048317  0.02621  0  3.913074  0
C  C45  1  0.29041087  0.46461793  0.26872143  1  0.549348  0  0.048386  0.026428  0  3.91283  0
C  C46  1  0.29037765  0.96458896  0.23128136  1  0.550061  0  0.048462  0.026535  0  3.913113  0
C  C47  1  0.70961399  0.53540094  0.73128040  1  0.549814  0  0.048411  0.026404  0  3.913409  0
C  C48  1  0.63118530  0.99467622  0.73191445  1  0.500098  0  0.118444  0.069612  0  3.991298  0
C  C49  1  0.36886278  0.50533192  0.23191422  1  0.499878  0  0.118576  0.069797  0  3.991327  0
C  C50  1  0.36879792  0.00532792  0.26808825  1  0.500048  0  0.118381  0.069416  0  3.991663  0
C  C51  1  0.63115503  0.49467993  0.76808646  1  0.500384  0  0.118481  0.069594  0  3.99165  0
C  C52  1  0.74394914  0.06041352  0.69687035  1  1.415797  0  0.235516  0.441904  0  4.140138  0
C  C53  1  0.25612074  0.43958072  0.19687361  1  1.414911  0  0.23546  0.441809  0  4.140636  0
C  C54  1  0.25606190  0.93958691  0.30313091  1  1.415645  0  0.235593  0.441977  0  4.140367  0
C  C55  1  0.74388044  0.56041713  0.80313082  1  1.415331  0  0.235414  0.441616  0  4.140408  0
C  C56  1  0.70808149  0.04201113  0.62518559  1  0.308233  0  0.088563  0.22389  0  4.016332  0
C  C57  1  0.29202702  0.45794081  0.12519165  1  0.309088  0  0.088387  0.223695  0  4.017003  0
C  C58  1  0.29190254  0.95798065  0.37481077  1  0.309104  0  0.088596  0.224008  0  4.016454  0
C  C59  1  0.70800029  0.54204097  0.87480961  1  0.30881  0  0.088485  0.223716  0  4.016679  0
C  C60  1  0.86756192  0.14559417  0.61491931  1  -0.015135  0  -0.096658  -0.147596  0  3.960404  0
C  C61  1  0.13256948  0.35435981  0.11492445  1  -0.017645  0  -0.096563  -0.147409  0  3.960731  0
C  C62  1  0.13245460  0.85439916  0.38507733  1  -0.017214  0  -0.096701  -0.147752  0  3.960325  0
C  C63  1  0.86746979  0.64563072  0.88507883  1  -0.017604  0  -0.096545  -0.147391  0  3.960483  0
C  C64  1  0.91373065  0.17200644  0.57607446  1  0.073432  0  -0.104211  -0.195047  0  4.031952  0
C  C65  1  0.08628164  0.32795559  0.07607986  1  0.074147  0  -0.104082  -0.194552  0  4.03187  0
C  C66  1  0.08625788  0.82799325  0.42392305  1  0.073037  0  -0.104016  -0.194557  0  4.03177  0
C  C67  1  0.91368273  0.67203014  0.92392371  1  0.07361  0  -0.104264  -0.194972  0  4.031999  0
C  C68  1  0.80154057  0.09508782  0.54826508  1  0.361788  0  0.091577  0.281695  0  4.064456  0
C  C69  1  0.19838671  0.40488968  0.04826822  1  0.362561  0  0.091392  0.281063  0  4.064395  0
C  C70  1  0.19843769  0.90491547  0.45173041  1  0.361984  0  0.091515  0.281335  0  4.064799  0
C  C71  1  0.80154418  0.59510951  0.95173217  1  0.362415  0  0.091707  0.281759  0  4.063832  0
C  C72  1  0.64426543  0.99164586  0.55752057  1  0.027586  0  -0.098552  -0.188825  0  4.009417  0
C  C73  1  0.35571288  0.50832315  0.05752471  1  0.027235  0  -0.098384  -0.188305  0  4.008813  0
C  C74  1  0.35570023  0.00835839  0.44247636  1  0.027331  0  -0.098485  -0.188634  0  4.009203  0
C  C75  1  0.64423889  0.49166354  0.94247510  1  0.027858  0  -0.098552  -0.188879  0  4.008951  0
C  C76  1  0.59726584  0.96574387  0.59629416  1  -0.002362  0  -0.092262  -0.147143  0  3.972213  0
C  C77  1  0.40281934  0.53421274  0.09629832  1  -0.003317  0  -0.092345  -0.147212  0  3.97194  0
C  C78  1  0.40270530  0.03425328  0.40370190  1  -0.003098  0  -0.09227  -0.147082  0  3.972142  0
C  C79  1  0.59720260  0.46577437  0.90370092  1  -0.00299  0  -0.092372  -0.147256  0  3.972361  0
Br  Br80  1  0.08678413  0.23170188  0.83881837  1  -0.377626  0  -0.183032  -0.296743  0  1.561144  0
Br  Br81  1  0.91326074  0.26834639  0.33879803  1  -0.3778  0  -0.183006  -0.29675  0  1.561177  0
Br  Br82  1  0.91335827  0.76828356  0.16118376  1  -0.377847  0  -0.183016  -0.296649  0  1.56107  0
Br  Br83  1  0.08677807  0.73165120  0.66119803  1  -0.378114  0  -0.183005  -0.296687  0  1.561156  0
Br  Br84  1  0.34070763  0.94875769  0.90389404  1  -0.353871  0  -0.181256  -0.265422  0  1.464531  0
Br  Br85  1  0.65931151  0.55122902  0.40391263  1  -0.354001  0  -0.181163  -0.265339  0  1.464587  0
Br  Br86  1  0.65928976  0.05122164  0.09609625  1  -0.353804  0  -0.18117  -0.265336  0  1.464727  0
Br  Br87  1  0.34067753  0.44876273  0.59609238  1  -0.353712  0  -0.18117  -0.26535  0  1.464709  0
N  N88  1  0.45889291  0.89632280  0.72702136  1  -1.189433  0  -0.293849  -0.235784  0  3.358451  0
N  N89  1  0.54117078  0.60368018  0.22702140  1  -1.189316  0  -0.293865  -0.235801  0  3.35841  0
N  N90  1  0.54107013  0.10368323  0.27297903  1  -1.18976  0  -0.293917  -0.235779  0  3.358677  0
N  N91  1  0.45883717  0.39632909  0.77297812  1  -1.189457  0  -0.293962  -0.235942  0  3.358457  0
N  N92  1  0.61997057  0.97610900  0.80028586  1  -1.216217  0  -0.299767  -0.183796  0  3.488245  0
N  N93  1  0.38003795  0.52391983  0.30028586  1  -1.216182  0  -0.299915  -0.183988  0  3.488155  0
N  N94  1  0.38001375  0.02387837  0.19971540  1  -1.216919  0  -0.299783  -0.184011  0  3.488402  0
N  N95  1  0.62000150  0.47610601  0.69971597  1  -1.216806  0  -0.299853  -0.18381  0  3.488373  0
N  N96  1  0.64752157  0.00969853  0.66352232  1  -1.245242  0  -0.388757  -0.342167  0  3.629696  0
N  N97  1  0.35257823  0.49028319  0.16352500  1  -1.24518  0  -0.388726  -0.342291  0  3.630387  0
N  N98  1  0.35249426  0.99030539  0.33647692  1  -1.244971  0  -0.38886  -0.342362  0  3.629761  0
N  N99  1  0.64745556  0.50971443  0.83647481  1  -1.246015  0  -0.388748  -0.341859  0  3.630152  0
O  O100  1  0.91046712  0.15050981  0.70016063  1  -1.151494  0  -0.299428  -0.495332  0  2.158108  0
O  O101  1  0.08960002  0.34948576  0.20016459  1  -1.151124  0  -0.29944  -0.495246  0  2.15839  0
O  O102  1  0.08954328  0.84950033  0.29984062  1  -1.151297  0  -0.2995  -0.495342  0  2.158377  0
O  O103  1  0.91042269  0.65052783  0.79984013  1  -1.151162  0  -0.299435  -0.495286  0  2.1577  0
F  F104  1  0.84684055  0.12300445  0.51022377  1  -0.645901  0  -0.102282  -0.156449  0  1.341302  0
F  F105  1  0.15294850  0.37700428  0.01022774  1  -0.646212  0  -0.102213  -0.156223  0  1.34151  0
F  F106  1  0.15319866  0.87698697  0.48977085  1  -0.645779  0  -0.102379  -0.156474  0  1.341339  0
F  F107  1  0.84693718  0.62299609  0.98977208  1  -0.646179  0  -0.102322  -0.156405  0  1.341344  0
