# generated using pymatgen
data_BiH16C10S4N2Cl
_symmetry_space_group_name_H-M   'P 1'
_cell_length_a   7.64932666
_cell_length_b   10.59626494
_cell_length_c   20.98466440
_cell_angle_alpha   95.27051095
_cell_angle_beta   90.00411206
_cell_angle_gamma   89.99839713
_symmetry_Int_Tables_number   1
_chemical_formula_structural   BiH16C10S4N2Cl
_chemical_formula_sum   'Bi4 H64 C40 S16 N8 Cl4'
_cell_volume   1693.70589927
_cell_formula_units_Z   4
loop_
 _symmetry_equiv_pos_site_id
 _symmetry_equiv_pos_as_xyz
  1  'x, y, z'
loop_
 _atom_site_type_symbol
 _atom_site_label
 _atom_site_symmetry_multiplicity
 _atom_site_fract_x
 _atom_site_fract_y
 _atom_site_fract_z
 _atom_site_occupancy
 _atom_site_pbe_bader_charge
 _atom_site_pbe_bader_spin_density
 _atom_site_pbe_cm5_charge
 _atom_site_pbe_ddec_charge
 _atom_site_pbe_ddec_spin_density
 _atom_site_pbe_ddec_sum_bond_order
 _atom_site_pbe_magmom
Bi  Bi0  1  0.26407168  0.81086106  0.78227826  1  1.416791  0  0.500068  0.826681  0  3.0769  0
Bi  Bi1  1  0.23592905  0.31089134  0.28227891  1  1.416997  0  0.500028  0.826629  0  3.076853  0
Bi  Bi2  1  0.73592148  0.18912868  0.21773276  1  1.416743  0  0.500059  0.826633  0  3.07698  0
Bi  Bi3  1  0.76403665  0.68916322  0.71771044  1  1.416574  0  0.500113  0.82674  0  3.076585  0
H  H4  1  0.71424092  0.08901361  0.91621010  1  0.039138  0  0.093975  0.071559  0  1.001711  0
H  H5  1  0.78580002  0.58897670  0.41621108  1  0.038974  0  0.093927  0.071514  0  1.00189  0
H  H6  1  0.28581106  0.91096489  0.08379909  1  0.039411  0  0.094075  0.071726  0  1.001771  0
H  H7  1  0.21416438  0.41096947  0.58378937  1  0.039044  0  0.094054  0.071703  0  1.001762  0
H  H8  1  0.64136565  0.01940786  0.84023573  1  0.109992  0  0.086215  0.078273  0  1.071799  0
H  H9  1  0.85867352  0.51940014  0.34023848  1  0.110943  0  0.086182  0.078372  0  1.07195  0
H  H10  1  0.35867327  0.98056674  0.15977411  1  0.109961  0  0.086161  0.078306  0  1.071802  0
H  H11  1  0.14129611  0.48057991  0.65975841  1  0.111206  0  0.086142  0.078229  0  1.071954  0
H  H12  1  0.55015571  0.22264302  0.80740770  1  0.032037  0  0.087851  0.092021  0  1.012327  0
H  H13  1  0.94983781  0.72265935  0.30742782  1  0.031556  0  0.087872  0.09189  0  1.012654  0
H  H14  1  0.44984529  0.77730858  0.19260273  1  0.031203  0  0.087852  0.092023  0  1.012475  0
H  H15  1  0.05018019  0.27730932  0.69259111  1  0.031731  0  0.087846  0.091914  0  1.012433  0
H  H16  1  0.49605474  0.24462888  0.88980062  1  0.023855  0  0.090982  0.093838  0  1.006709  0
H  H17  1  0.00394069  0.74463066  0.38981393  1  0.02361  0  0.090955  0.093696  0  1.006853  0
H  H18  1  0.50394103  0.75532680  0.11021538  1  0.024312  0  0.090966  0.093915  0  1.006615  0
H  H19  1  0.99606946  0.25532661  0.61020458  1  0.024234  0  0.090961  0.093775  0  1.006786  0
H  H20  1  0.78061091  0.34846548  0.91486441  1  0.032052  0  0.086418  0.079604  0  1.001178  0
H  H21  1  0.71933871  0.84844314  0.41487666  1  0.032113  0  0.086485  0.079668  0  1.001038  0
H  H22  1  0.21937048  0.65152787  0.08514069  1  0.03226  0  0.086433  0.079607  0  1.001149  0
H  H23  1  0.28067014  0.15154831  0.58513593  1  0.032237  0  0.086503  0.079703  0  1.001166  0
H  H24  1  0.71511485  0.41550181  0.84370288  1  0.072842  0  0.079669  0.08965  0  1.065921  0
H  H25  1  0.78483849  0.91549681  0.34372400  1  0.073041  0  0.079728  0.089852  0  1.065875  0
H  H26  1  0.28483517  0.58447664  0.15629914  1  0.073022  0  0.079578  0.089558  0  1.065981  0
H  H27  1  0.21522135  0.08448997  0.65628774  1  0.072652  0  0.079678  0.089766  0  1.065994  0
H  H28  1  0.90025645  0.27201962  0.77749886  1  0.071656  0  0.096802  0.084668  0  1.011711  0
H  H29  1  0.59976580  0.77199753  0.27749816  1  0.071162  0  0.096838  0.084665  0  1.011759  0
H  H30  1  0.09973278  0.72798957  0.22250938  1  0.071553  0  0.09683  0.084668  0  1.011484  0
H  H31  1  0.40027703  0.22801709  0.72251242  1  0.071197  0  0.09691  0.084719  0  1.011446  0
H  H32  1  0.03240074  0.29160504  0.84715777  1  0.072008  0  0.100724  0.08445  0  1.008308  0
H  H33  1  0.46758922  0.79158668  0.34714055  1  0.072031  0  0.100733  0.08456  0  1.008192  0
H  H34  1  0.96758066  0.70840155  0.15284836  1  0.072089  0  0.100684  0.084425  0  1.008353  0
H  H35  1  0.53244447  0.20842612  0.65286177  1  0.071877  0  0.100706  0.084418  0  1.008165  0
H  H36  1  0.84972930  0.62853160  0.88765315  1  0.104053  0  0.092912  0.089915  0  1.037304  0
H  H37  1  0.65031801  0.12850270  0.38766194  1  0.104  0  0.092957  0.089818  0  1.037356  0
H  H38  1  0.15026908  0.37150002  0.11233631  1  0.104203  0  0.092847  0.08979  0  1.037469  0
H  H39  1  0.34964639  0.87153295  0.61231829  1  0.104294  0  0.092985  0.090054  0  1.037004  0
H  H40  1  0.74873539  0.56257427  0.95344360  1  0.06671  0  0.102243  0.082043  0  0.972719  0
H  H41  1  0.75130527  0.06254665  0.45345567  1  0.065882  0  0.102286  0.082102  0  0.972807  0
H  H42  1  0.25127214  0.43745582  0.04654288  1  0.066034  0  0.102251  0.082032  0  0.97256  0
H  H43  1  0.24869049  0.93745479  0.54650803  1  0.065296  0  0.102256  0.081996  0  0.972662  0
H  H44  1  0.03064204  0.76847216  0.95662655  1  0.057292  0  0.081001  0.084666  0  1.035071  0
H  H45  1  0.46940456  0.26845347  0.45663159  1  0.057908  0  0.080983  0.084682  0  1.035015  0
H  H46  1  0.96934197  0.23157376  0.04337072  1  0.057607  0  0.080972  0.084684  0  1.035008  0
H  H47  1  0.53062390  0.73157262  0.54337893  1  0.057887  0  0.08098  0.084695  0  1.035088  0
H  H48  1  0.01995543  0.63787108  0.00383065  1  0.020532  0  0.093126  0.092718  0  0.994806  0
H  H49  1  0.48010196  0.13784106  0.50383021  1  0.020665  0  0.093027  0.092559  0  0.994814  0
H  H50  1  0.98003250  0.36215812  0.99616292  1  0.020096  0  0.093034  0.092619  0  0.994971  0
H  H51  1  0.51991080  0.86213991  0.49615195  1  0.020847  0  0.092966  0.092582  0  0.994893  0
H  H52  1  0.78118843  0.73591980  0.06882492  1  0.014168  0  0.089962  0.084265  0  1.001206  0
H  H53  1  0.71890205  0.23585434  0.56882268  1  0.013423  0  0.09003  0.084362  0  1.001128  0
H  H54  1  0.21879035  0.26407729  0.93116567  1  0.013908  0  0.08996  0.084271  0  1.001314  0
H  H55  1  0.28116693  0.76404863  0.43116437  1  0.014002  0  0.089933  0.084256  0  1.001521  0
H  H56  1  0.91084762  0.87021310  0.05706804  1  0.064839  0  0.092523  0.102386  0  1.001265  0
H  H57  1  0.58923384  0.37015582  0.55708629  1  0.064286  0  0.092511  0.102373  0  1.001372  0
H  H58  1  0.08909716  0.12980875  0.94293068  1  0.064729  0  0.09238  0.102334  0  1.00124  0
H  H59  1  0.41083775  0.62977672  0.44293888  1  0.06475  0  0.092533  0.102416  0  1.001308  0
H  H60  1  0.56409065  0.86003899  0.01954182  1  0.079067  0  0.098179  0.081882  0  1.018336  0
H  H61  1  0.93596013  0.36002253  0.51955620  1  0.078509  0  0.098227  0.081958  0  1.018209  0
H  H62  1  0.43585022  0.13992990  0.98045277  1  0.079528  0  0.098172  0.082002  0  1.01832  0
H  H63  1  0.06409055  0.63992844  0.48043651  1  0.078734  0  0.098136  0.081815  0  1.018446  0
H  H64  1  0.72243857  0.93418227  0.97412852  1  0.072775  0  0.095839  0.075367  0  1.018259  0
H  H65  1  0.77755556  0.43414688  0.47413507  1  0.072971  0  0.095821  0.075471  0  1.018336  0
H  H66  1  0.27747353  0.06583702  0.02588290  1  0.072618  0  0.095876  0.075424  0  1.018406  0
H  H67  1  0.22246375  0.56583728  0.52588984  1  0.073121  0  0.09579  0.075359  0  1.018318  0
C  C68  1  0.99225981  0.03458137  0.82420698  1  0.306121  0  0.126774  0.1836  0  4.110191  0
C  C69  1  0.50773466  0.53456309  0.32421065  1  0.305791  0  0.126749  0.183444  0  4.110396  0
C  C70  1  0.00772812  0.96542588  0.17579395  1  0.305858  0  0.126727  0.183634  0  4.10993  0
C  C71  1  0.49227549  0.46544588  0.67578420  1  0.305614  0  0.126811  0.183655  0  4.110185  0
C  C72  1  0.70092234  0.10412092  0.86510042  1  0.240783  0  -0.069932  -0.066696  0  3.875848  0
C  C73  1  0.79910339  0.60410698  0.36510145  1  0.239752  0  -0.069868  -0.066937  0  3.875894  0
C  C74  1  0.29909957  0.89586301  0.13491110  1  0.240764  0  -0.070007  -0.066946  0  3.875704  0
C  C75  1  0.20088715  0.39587413  0.63490221  1  0.239687  0  -0.069951  -0.066891  0  3.875504  0
C  C76  1  0.60447546  0.22711664  0.85603892  1  -0.002984  0  -0.16305  -0.159926  0  3.910893  0
C  C77  1  0.89551662  0.72710724  0.35605013  1  -0.002239  0  -0.163043  -0.159511  0  3.911281  0
C  C78  1  0.39551639  0.77285471  0.14397400  1  -0.002566  0  -0.163079  -0.160033  0  3.91101  0
C  C79  1  0.10449876  0.27285422  0.64396536  1  -0.002869  0  -0.162993  -0.159591  0  3.91085  0
C  C80  1  0.74928840  0.32695625  0.86384434  1  -0.042037  0  -0.166917  -0.169101  0  3.921312  0
C  C81  1  0.75067530  0.82693530  0.36385137  1  -0.042002  0  -0.167005  -0.169429  0  3.921412  0
C  C82  1  0.25068123  0.67303485  0.13616344  1  -0.042352  0  -0.166846  -0.168932  0  3.921211  0
C  C83  1  0.24934792  0.17304723  0.63615622  1  -0.041771  0  -0.167061  -0.169435  0  3.921781  0
C  C84  1  0.90352857  0.26036602  0.82908944  1  0.244548  0  -0.063146  -0.057795  0  3.854577  0
C  C85  1  0.59646218  0.76035717  0.32908400  1  0.244997  0  -0.063254  -0.057903  0  3.854573  0
C  C86  1  0.09645282  0.73963767  0.17091694  1  0.244523  0  -0.063203  -0.057792  0  3.854335  0
C  C87  1  0.40356366  0.23965255  0.67091999  1  0.244757  0  -0.063268  -0.057728  0  3.854038  0
C  C88  1  0.53894849  0.75160729  0.89498395  1  0.294899  0  0.126138  0.191727  0  4.108086  0
C  C89  1  0.96112001  0.25158947  0.39499421  1  0.293959  0  0.126215  0.191907  0  4.107679  0
C  C90  1  0.46105643  0.24841977  0.10501136  1  0.294581  0  0.126108  0.191544  0  4.108408  0
C  C91  1  0.03887968  0.74844789  0.60499522  1  0.2937  0  0.126242  0.191727  0  4.107984  0
C  C92  1  0.80297409  0.65028463  0.93691647  1  0.2409  0  -0.062851  -0.053749  0  3.842082  0
C  C93  1  0.69710305  0.15024836  0.43692050  1  0.242938  0  -0.062993  -0.053634  0  3.841756  0
C  C94  1  0.19703083  0.34974339  0.06307128  1  0.241682  0  -0.06292  -0.053671  0  3.841687  0
C  C95  1  0.30289010  0.84975484  0.56305958  1  0.242748  0  -0.063025  -0.053744  0  3.841727  0
C  C96  1  0.94160174  0.70999925  0.98263525  1  -0.012051  0  -0.163881  -0.163763  0  3.909625  0
C  C97  1  0.55845532  0.20998190  0.48264759  1  -0.014274  0  -0.163672  -0.163759  0  3.909333  0
C  C98  1  0.05838096  0.29003934  0.01735953  1  -0.012547  0  -0.163558  -0.163475  0  3.909386  0
C  C99  1  0.44155745  0.79001606  0.51735118  1  -0.01346  0  -0.163703  -0.163932  0  3.909551  0
C  C100  1  0.83496945  0.79297102  0.03223466  1  -0.020853  0  -0.162221  -0.161793  0  3.902046  0
C  C101  1  0.66509059  0.29292310  0.53224362  1  -0.018812  0  -0.162524  -0.161826  0  3.902512  0
C  C102  1  0.16499756  0.20704274  0.96776009  1  -0.020927  0  -0.162343  -0.162036  0  3.901724  0
C  C103  1  0.33494963  0.70702207  0.46775723  1  -0.020612  0  -0.162281  -0.16173  0  3.902554  0
C  C104  1  0.68697830  0.84410554  0.99300390  1  0.238714  0  -0.065481  -0.060901  0  3.871272  0
C  C105  1  0.81305709  0.34407230  0.49301203  1  0.2385  0  -0.065356  -0.061123  0  3.871294  0
C  C106  1  0.31297825  0.15589698  0.00699666  1  0.238759  0  -0.065392  -0.061019  0  3.871484  0
C  C107  1  0.18697136  0.65590887  0.50699116  1  0.238498  0  -0.065373  -0.060853  0  3.871314  0
S  S108  1  0.19225751  0.06992468  0.79368354  1  -0.195355  0  -0.121857  -0.280679  0  2.425213  0
S  S109  1  0.30769367  0.56992887  0.29368753  1  -0.195844  0  -0.121883  -0.280761  0  2.424833  0
S  S110  1  0.80771212  0.93008216  0.20631306  1  -0.195585  0  -0.121846  -0.28067  0  2.425073  0
S  S111  1  0.69231126  0.43011132  0.70630212  1  -0.195203  0  -0.121912  -0.280736  0  2.42499  0
S  S112  1  0.94476339  0.88029351  0.83874375  1  -0.237831  0  -0.132024  -0.315272  0  2.519488  0
S  S113  1  0.55522164  0.38029798  0.33874390  1  -0.237301  0  -0.132026  -0.31519  0  2.520288  0
S  S114  1  0.05521408  0.11971072  0.16125838  1  -0.237419  0  -0.132002  -0.315232  0  2.51955  0
S  S115  1  0.44475452  0.61971194  0.66124339  1  -0.237506  0  -0.132012  -0.315234  0  2.519872  0
S  S116  1  0.38679221  0.87210488  0.90354197  1  -0.221073  0  -0.119087  -0.288245  0  2.425213  0
S  S117  1  0.11324890  0.37206612  0.40355047  1  -0.220865  0  -0.119068  -0.288198  0  2.425865  0
S  S118  1  0.61320748  0.12792116  0.09646902  1  -0.220993  0  -0.119071  -0.288171  0  2.425509  0
S  S119  1  0.88673903  0.62797488  0.59645549  1  -0.220587  0  -0.119019  -0.288064  0  2.426122  0
S  S120  1  0.52553007  0.63751894  0.83124678  1  -0.232031  0  -0.149523  -0.351953  0  2.503001  0
S  S121  1  0.97451179  0.13748907  0.33125436  1  -0.231749  0  -0.149598  -0.351996  0  2.50236  0
S  S122  1  0.47446309  0.36252084  0.16874618  1  -0.231944  0  -0.149538  -0.351919  0  2.502744  0
S  S123  1  0.02551536  0.86257069  0.66873157  1  -0.231583  0  -0.14973  -0.352173  0  2.501901  0
N  N124  1  0.87520209  0.12561013  0.83847064  1  -1.146772  0  -0.258476  -0.002103  0  3.608785  0
N  N125  1  0.62479036  0.62558915  0.33847033  1  -1.14641  0  -0.2582  -0.001721  0  3.608467  0
N  N126  1  0.12479237  0.87439386  0.16153338  1  -1.146832  0  -0.258355  -0.002155  0  3.608555  0
N  N127  1  0.37521456  0.37442005  0.66153027  1  -1.146384  0  -0.258297  -0.00206  0  3.608593  0
N  N128  1  0.66388522  0.74685294  0.93893941  1  -1.154069  0  -0.257495  -0.002758  0  3.608465  0
N  N129  1  0.83615500  0.24680853  0.43894791  1  -1.153663  0  -0.257591  -0.003026  0  3.608136  0
N  N130  1  0.33612755  0.25316023  0.06105243  1  -1.153879  0  -0.257461  -0.002685  0  3.608263  0
N  N131  1  0.16384077  0.75320134  0.56103985  1  -1.154064  0  -0.257526  -0.002821  0  3.60857  0
Cl  Cl132  1  0.55468413  0.92058742  0.72022142  1  -0.650657  0  -0.26537  -0.434486  0  1.159654  0
Cl  Cl133  1  0.94525941  0.42059144  0.22023366  1  -0.650609  0  -0.265441  -0.434522  0  1.159519  0
Cl  Cl134  1  0.44528419  0.07943812  0.27976327  1  -0.650653  0  -0.265365  -0.434452  0  1.159706  0
Cl  Cl135  1  0.05478604  0.57943363  0.77974717  1  -0.650694  0  -0.2655  -0.434616  0  1.159466  0
