# generated using pymatgen
data_MnH31C34NO12
_symmetry_space_group_name_H-M   'P 1'
_cell_length_a   10.23057525
_cell_length_b   13.51087466
_cell_length_c   13.35106642
_cell_angle_alpha   76.57580632
_cell_angle_beta   79.09225479
_cell_angle_gamma   78.67730798
_symmetry_Int_Tables_number   1
_chemical_formula_structural   MnH31C34NO12
_chemical_formula_sum   'Mn2 H62 C68 N2 O24'
_cell_volume   1740.00262438
_cell_formula_units_Z   2
loop_
 _symmetry_equiv_pos_site_id
 _symmetry_equiv_pos_as_xyz
  1  'x, y, z'
loop_
 _atom_site_type_symbol
 _atom_site_label
 _atom_site_symmetry_multiplicity
 _atom_site_fract_x
 _atom_site_fract_y
 _atom_site_fract_z
 _atom_site_occupancy
 _atom_site_pbe_bader_charge
 _atom_site_pbe_bader_spin_density
 _atom_site_pbe_cm5_charge
 _atom_site_pbe_ddec_charge
 _atom_site_pbe_ddec_spin_density
 _atom_site_pbe_ddec_sum_bond_order
 _atom_site_pbe_magmom
Mn  Mn0  1  0.94468563  0.29158211  0.84349582  1  1.564628  -1.359131  0.661101  0.981314  -1.406192  3.148475  -1.357
Mn  Mn1  1  0.05531278  0.70841643  0.15651064  1  1.564586  -1.358961  0.661076  0.981345  -1.40599  3.148519  -1.357
H  H2  1  0.85630873  0.00379468  0.03751691  1  0.079741  -0.000287  0.11214  0.126246  -0.000148  0.99521  0.0
H  H3  1  0.14369019  0.99619699  0.96248130  1  0.0798  -0.000287  0.112158  0.126246  -0.000148  0.995146  0.0
H  H4  1  0.45770977  0.18278760  0.03748457  1  0.110896  0.000192  0.111136  0.131241  0.000215  1.006101  0.0
H  H5  1  0.54230412  0.81720815  0.96250673  1  0.112207  0.000191  0.111105  0.131225  0.000215  1.005983  0.0
H  H6  1  0.51440225  0.87017546  0.21458262  1  0.099287  0.0002  0.103189  0.110643  0.000244  1.060344  0.0
H  H7  1  0.48558482  0.12982912  0.78542489  1  0.099376  0.000201  0.103215  0.110656  0.000245  1.060299  0.0
H  H8  1  0.28869940  0.89709435  0.21812979  1  0.058842  0.00012  0.102044  0.077363  0.000154  1.003657  0.0
H  H9  1  0.71129718  0.10291195  0.78186916  1  0.059128  0.000121  0.102006  0.077289  0.000154  1.003666  0.0
H  H10  1  0.34225584  0.94955649  0.31241861  1  0.066223  5.1e-05  0.098461  0.063357  4.7e-05  1.043454  0.0
H  H11  1  0.65774672  0.05044529  0.68757450  1  0.0662  5.3e-05  0.098463  0.063367  4.8e-05  1.0434  0.0
H  H12  1  0.18080631  0.10043485  0.38204217  1  0.056249  3.5e-05  0.098027  0.096631  1e-05  1.03076  0.0
H  H13  1  0.81918848  0.89957918  0.61795229  1  0.056327  3.4e-05  0.098022  0.096625  1e-05  1.030598  0.0
H  H14  1  0.94411059  0.16339825  0.44256747  1  0.047531  0.000408  0.094472  0.092934  0.000503  1.048185  0.0
H  H15  1  0.05588129  0.83661508  0.55741486  1  0.047628  0.000406  0.094412  0.09284  0.000501  1.048126  0.0
H  H16  1  0.82134064  0.97566701  0.26659399  1  0.047098  4.4e-05  0.096361  0.090687  9.8e-05  1.063052  0.0
H  H17  1  0.17866022  0.02432076  0.73341306  1  0.047616  4.3e-05  0.096352  0.090719  9.7e-05  1.063131  0.0
H  H18  1  0.05699455  0.91896033  0.20161824  1  0.104747  0.000436  0.10822  0.117831  0.000603  1.038156  0.0
H  H19  1  0.94301085  0.08104222  0.79837877  1  0.104587  0.000433  0.108243  0.11781  0.0006  1.038405  0.0
H  H20  1  0.75765428  0.15747079  0.53184376  1  0.067336  0.000334  0.09653  0.094256  0.00048  1.038209  0.0
H  H21  1  0.24234662  0.84252549  0.46816059  1  0.067312  0.000331  0.096547  0.094283  0.000478  1.038315  0.0
H  H22  1  0.51762018  0.20873457  0.59836320  1  0.064276  0.000228  0.098799  0.101253  0.000191  1.026412  0.0
H  H23  1  0.48237717  0.79126859  0.40164310  1  0.064136  0.000225  0.098793  0.101253  0.000188  1.026556  0.0
H  H24  1  0.40336315  0.11387978  0.34543145  1  0.039406  9e-06  0.099221  0.099857  -1.1e-05  1.019626  0.0
H  H25  1  0.59663086  0.88611178  0.65457351  1  0.039689  9e-06  0.09923  0.099865  -1.1e-05  1.019582  0.0
H  H26  1  0.64106117  0.06821165  0.27535056  1  0.088598  2.7e-05  0.094754  0.0924  2.9e-05  1.057774  0.0
H  H27  1  0.35893329  0.93177370  0.72465949  1  0.089021  2.7e-05  0.094775  0.092406  2.9e-05  1.057654  0.0
H  H28  1  0.23973140  0.12969887  0.52909465  1  0.063332  6.1e-05  0.099346  0.067571  6.1e-05  1.012714  0.0
H  H29  1  0.76026682  0.87030045  0.47091091  1  0.063371  6.1e-05  0.099318  0.067557  6.1e-05  1.012871  0.0
H  H30  1  0.28710370  0.21479186  0.59570916  1  0.070818  0.000142  0.104181  0.079705  0.000156  0.989369  0.0
H  H31  1  0.71289264  0.78521131  0.40429504  1  0.070858  0.000142  0.104203  0.079748  0.000156  0.989367  0.0
H  H32  1  0.14708840  0.43851982  0.32549243  1  0.07637  0.001471  0.106414  0.108584  0.001647  1.034589  -0.001
H  H33  1  0.85290334  0.56148174  0.67451433  1  0.076124  0.001472  0.10643  0.108613  0.001646  1.034725  -0.001
H  H34  1  0.73992898  0.45912543  0.49052467  1  0.14126  0.000169  0.112452  0.126431  0.000273  0.993433  0.0
H  H35  1  0.26005614  0.54087056  0.50949408  1  0.141545  0.000166  0.112428  0.126504  0.000271  0.993365  0.0
H  H36  1  0.05467471  0.22411951  0.61277628  1  0.111639  0.000266  0.110698  0.122183  0.000689  1.042009  -0.001
H  H37  1  0.94532197  0.77587358  0.38723392  1  0.11184  0.000268  0.110741  0.122215  0.000691  1.041976  -0.001
H  H38  1  0.95103053  0.18339783  0.06451427  1  0.11597  -0.000121  0.106669  0.171383  -5.7e-05  1.030816  0.0
H  H39  1  0.04898302  0.81660403  0.93548542  1  0.115895  -0.000116  0.106719  0.171414  -5.4e-05  1.030754  0.0
H  H40  1  0.99199455  0.21985172  0.17400260  1  0.085826  0.000508  0.101299  0.156262  0.000393  0.996866  0.0
H  H41  1  0.00802396  0.78015874  0.82598914  1  0.085733  0.000509  0.101306  0.156229  0.000394  0.996956  0.0
H  H42  1  0.11546832  0.14361519  0.10038374  1  0.087547  -7.5e-05  0.102346  0.154956  -3.5e-05  1.026045  0.0
H  H43  1  0.88454577  0.85639288  0.89961071  1  0.087383  -7.4e-05  0.102378  0.154949  -3.4e-05  1.026036  0.0
H  H44  1  0.15135694  0.34364233  0.20888287  1  0.065637  0.0013  0.098293  0.110471  0.001444  1.015125  0.0
H  H45  1  0.84867530  0.65635991  0.79109448  1  0.065519  0.001298  0.098238  0.110337  0.001443  1.015177  0.0
H  H46  1  0.31789356  0.33116980  0.13736570  1  0.042356  0.000228  0.112773  0.127582  0.000163  0.974118  0.0
H  H47  1  0.68213065  0.66883700  0.86260880  1  0.042351  0.000228  0.112809  0.127596  0.000163  0.974085  0.0
H  H48  1  0.22897854  0.22486752  0.17075654  1  0.108447  -0.000161  0.10655  0.118743  -0.000105  1.048914  0.0
H  H49  1  0.77105161  0.77513083  0.82922201  1  0.10838  -0.000161  0.106568  0.118642  -0.000105  1.0489  0.0
H  H50  1  0.32509647  0.41798019  0.95827783  1  0.038684  -0.00027  0.105831  0.12189  -0.000178  0.980052  0.0
H  H51  1  0.67491672  0.58202261  0.04169998  1  0.038819  -0.000271  0.105853  0.121863  -0.000179  0.980046  0.0
H  H52  1  0.19035276  0.50091317  0.01913984  1  0.121943  1.3e-05  0.105508  0.138354  0.000137  1.020547  0.0
H  H53  1  0.80966639  0.49908970  0.98083782  1  0.12231  8e-06  0.105484  0.138261  0.000133  1.020758  0.0
H  H54  1  0.16783278  0.45463152  0.90878746  1  0.092025  6.6e-05  0.112607  0.136088  0.000193  1.006253  0.0
H  H55  1  0.83217994  0.54536896  0.09119021  1  0.092292  6.7e-05  0.112523  0.136022  0.000194  1.00639  0.0
H  H56  1  0.75645127  0.65798957  0.26412218  1  0.65732  7.5e-05  0.297544  0.360632  0.000285  0.996563  0.0
H  H57  1  0.24353926  0.34199966  0.73588008  1  0.65728  7.4e-05  0.297527  0.360609  0.000284  0.996589  0.0
H  H58  1  0.62351716  0.30781144  0.72939225  1  0.620902  -0.000122  0.341777  0.386521  0.000147  0.859871  0.0
H  H59  1  0.37647437  0.69219550  0.27061630  1  0.62105  -0.000123  0.341775  0.386509  0.000145  0.859805  0.0
H  H60  1  0.76735032  0.44745659  0.79759626  1  0.592783  0.000348  0.318734  0.379003  0.000611  0.900649  0.0
H  H61  1  0.23263957  0.55254420  0.20240645  1  0.592791  0.000349  0.318697  0.378962  0.000612  0.900725  0.0
H  H62  1  0.70170676  0.35689256  0.88651937  1  0.650023  -0.000347  0.288388  0.365745  -0.000362  0.991759  -0.001
H  H63  1  0.29828810  0.64310372  0.11347539  1  0.650051  -0.000346  0.288375  0.365737  -0.00036  0.991737  -0.001
C  C64  1  0.77546922  0.82533327  0.16615752  1  1.499906  0.00689  0.221852  0.565202  0.007882  4.149209  0.004
C  C65  1  0.22452604  0.17466600  0.83384998  1  1.499146  0.006881  0.2217  0.56493  0.00787  4.149621  0.004
C  C66  1  0.69260953  0.92749385  0.12958025  1  -0.004482  0.002616  -0.020359  -0.02417  0.003101  4.007734  0.001
C  C67  1  0.30738173  0.07250540  0.87042411  1  -0.004557  0.002618  -0.020405  -0.024153  0.003104  4.00784  0.001
C  C68  1  0.74810161  0.01050349  0.06369981  1  -0.028582  0.001812  -0.08344  -0.129158  0.001751  3.928126  0.001
C  C69  1  0.25190035  0.98949670  0.93629825  1  -0.028671  0.001809  -0.083437  -0.129122  0.001748  3.928103  0.001
C  C70  1  0.66174421  0.10229379  0.03058763  1  -0.020722  0.002194  -0.019104  -0.023026  0.002698  4.003611  0.001
C  C71  1  0.33825729  0.89770407  0.96941178  1  -0.021002  0.002194  -0.019153  -0.023086  0.002699  4.003624  0.001
C  C72  1  0.52285403  0.11134308  0.06472168  1  0.021596  0.011209  -0.090481  -0.200216  0.011409  3.931099  0.007
C  C73  1  0.47715187  0.88865719  0.93527277  1  0.020723  0.011209  -0.090371  -0.200121  0.011409  3.930986  0.007
C  C74  1  0.46869314  0.02951830  0.13368290  1  0.395096  -0.000854  0.081044  0.257593  -0.00074  4.077214  -0.001
C  C75  1  0.53130234  0.97048412  0.86631636  1  0.393827  -0.000852  0.081074  0.257623  -0.000739  4.07745  -0.001
C  C76  1  0.55291654  0.93696664  0.16433496  1  0.011632  0.009572  -0.102149  -0.234275  0.009745  3.972441  0.006
C  C77  1  0.44707458  0.06303335  0.83567374  1  0.013082  0.009573  -0.102169  -0.234295  0.009747  3.972516  0.006
C  C78  1  0.71307164  0.19437582  0.96037494  1  1.493786  0.008489  0.218431  0.565361  0.010068  4.128762  0.005
C  C79  1  0.28693304  0.80562129  0.03962715  1  1.493777  0.008491  0.218451  0.565364  0.010071  4.128971  0.005
C  C80  1  0.28056575  0.96697523  0.24941256  1  0.370151  0.000157  -0.067645  -0.027645  0.000213  3.907935  0.0
C  C81  1  0.71943597  0.03303037  0.75058505  1  0.369807  0.000158  -0.067656  -0.027601  0.000214  3.907922  0.0
C  C82  1  0.13639322  0.00453290  0.28792346  1  0.004462  0.00017  -0.022657  0.064933  0.000162  4.000023  0.0
C  C83  1  0.86360289  0.99547109  0.71207460  1  0.004349  0.000171  -0.02263  0.065065  0.000163  4.000004  0.0
C  C84  1  0.10166120  0.07339608  0.35617583  1  -0.033895  0.000109  -0.091518  -0.126542  0.000106  3.989497  0.0
C  C85  1  0.89833486  0.92661253  0.64382343  1  -0.034035  0.000109  -0.091496  -0.126583  0.000106  3.989579  0.0
C  C86  1  0.96723129  0.10845906  0.39099682  1  -0.095529  0.000225  -0.091797  -0.122697  0.000257  3.974229  0.0
C  C87  1  0.03275895  0.89154874  0.60899900  1  -0.095699  0.000223  -0.091826  -0.122713  0.000255  3.974276  0.0
C  C88  1  0.86245514  0.07389613  0.36038437  1  0.016671  0.000165  -0.009337  0.059082  0.000136  3.99833  0.0
C  C89  1  0.13754093  0.92609935  0.63961639  1  0.016642  0.000165  -0.009296  0.059186  0.000136  3.998314  0.0
C  C90  1  0.89876875  0.00475372  0.29201255  1  -0.093823  0.000127  -0.092492  -0.125637  0.000111  3.971764  0.0
C  C91  1  0.10123585  0.99523949  0.70799345  1  -0.094409  0.000127  -0.092503  -0.125684  0.00011  3.971601  0.0
C  C92  1  0.03302779  0.97159701  0.25544122  1  -0.01999  0.000597  -0.086342  -0.1137  0.000649  3.953506  0.0
C  C93  1  0.96696899  0.02840850  0.74456013  1  -0.019716  0.000596  -0.08635  -0.113736  0.000648  3.95346  0.0
C  C94  1  0.71895793  0.10670363  0.39960648  1  -0.010219  7.5e-05  -0.009325  0.061968  4.3e-05  3.993361  0.0
C  C95  1  0.28104024  0.89329177  0.60040597  1  -0.010495  7.4e-05  -0.009348  0.061923  4.2e-05  3.993435  0.0
C  C96  1  0.68059608  0.14773534  0.49027659  1  -0.080438  0.000219  -0.093103  -0.123618  0.000183  3.981603  0.0
C  C97  1  0.31940210  0.85225549  0.50973016  1  -0.080395  0.000215  -0.093097  -0.123633  0.000179  3.981407  0.0
C  C98  1  0.54521833  0.17540827  0.52880430  1  -0.039993  0.0002  -0.0918  -0.131807  0.000189  3.996663  0.0
C  C99  1  0.45478382  0.82458260  0.47120259  1  -0.039666  0.000196  -0.091814  -0.131794  0.000186  3.996792  0.0
C  C100  1  0.44376431  0.16161234  0.47893591  1  0.032809  0.000111  -0.017253  0.081391  8e-05  3.997611  0.0
C  C101  1  0.55623889  0.83838245  0.52106394  1  0.032813  0.000111  -0.017194  0.081449  8e-05  3.997526  0.0
C  C102  1  0.48084567  0.12248267  0.38740292  1  -0.026754  3.7e-05  -0.089605  -0.116914  1.1e-05  3.978353  0.0
C  C103  1  0.51914619  0.87751816  0.61259724  1  -0.026949  3.7e-05  -0.089632  -0.116928  1.1e-05  3.978245  0.0
C  C104  1  0.61582401  0.09623293  0.34795592  1  -0.065494  3.4e-05  -0.091686  -0.122502  4.3e-05  3.970363  0.0
C  C105  1  0.38417378  0.90375947  0.65204678  1  -0.065665  3.4e-05  -0.09172  -0.122531  4.4e-05  3.970555  0.0
C  C106  1  0.29838305  0.19253087  0.51983166  1  0.379744  0.000291  -0.059876  -0.014879  0.000233  3.896584  0.0
C  C107  1  0.70162373  0.80747012  0.48016924  1  0.379612  0.000291  -0.059936  -0.015039  0.000233  3.896965  0.0
C  C108  1  0.11504829  0.32262876  0.46398026  1  0.421478  -0.006269  0.081097  0.257983  -0.00515  4.101196  -0.009
C  C109  1  0.88495161  0.67737209  0.53602919  1  0.42136  -0.006264  0.081163  0.258106  -0.005145  4.101002  -0.009
C  C110  1  0.07291916  0.40903775  0.38956813  1  0.038217  0.070995  -0.09579  -0.212055  0.072467  3.965971  0.042
C  C111  1  0.92706805  0.59096213  0.61044868  1  0.038181  0.070962  -0.095905  -0.212202  0.072435  3.966248  0.042
C  C112  1  0.93853536  0.45765913  0.39849628  1  -0.043595  -0.002577  -0.019353  -0.0271  -0.0004  4.040134  -0.007
C  C113  1  0.06145212  0.54233929  0.60151108  1  -0.043785  -0.002566  -0.01932  -0.027079  -0.000391  4.040433  -0.006
C  C114  1  0.84405219  0.42044865  0.48275961  1  0.005268  0.037376  -0.083615  -0.127968  0.037355  3.913337  0.022
C  C115  1  0.15594453  0.57954441  0.51725509  1  0.005707  0.03735  -0.083516  -0.127933  0.037329  3.91308  0.022
C  C116  1  0.88885426  0.33839776  0.56076054  1  -0.020387  -0.002437  -0.022633  -0.031438  0.001718  4.0619  -0.009
C  C117  1  0.11113939  0.66159993  0.43924981  1  -0.020934  -0.002431  -0.022705  -0.031578  0.001723  4.061883  -0.009
C  C118  1  0.02442203  0.28811837  0.55109071  1  -0.005793  0.057106  -0.102207  -0.237966  0.058074  3.944153  0.034
C  C119  1  0.97558104  0.71187715  0.44891424  1  -0.005845  0.05708  -0.102316  -0.238074  0.058048  3.94446  0.034
C  C120  1  0.90132873  0.55234106  0.32179265  1  1.474673  0.033892  0.230211  0.571343  0.038399  4.099882  0.023
C  C121  1  0.09865408  0.44765580  0.67820902  1  1.474717  0.033887  0.230214  0.571228  0.038391  4.100194  0.023
C  C122  1  0.80229912  0.30605985  0.65802211  1  1.347508  0.108392  0.215874  0.525882  0.122618  4.067866  0.077
C  C123  1  0.19769009  0.69393546  0.34198945  1  1.34732  0.108338  0.215834  0.526092  0.122551  4.06757  0.077
C  C124  1  0.02970802  0.20677724  0.09466450  1  -0.114501  0.000144  -0.241807  -0.524216  0.000299  3.907327  0.0
C  C125  1  0.97030470  0.79322384  0.90533399  1  -0.114174  0.00015  -0.241851  -0.524146  0.000305  3.907513  0.0
C  C126  1  0.07271622  0.30157058  0.02346132  1  1.295096  0.003548  0.254375  0.517268  0.004336  3.988186  0.002
C  C127  1  0.92730018  0.69843601  0.97652938  1  1.294587  0.003556  0.254422  0.517296  0.004344  3.988158  0.002
C  C128  1  0.21816555  0.30884618  0.14688437  1  0.239078  0.000436  -0.131609  -0.268165  0.00045  3.897672  0.0
C  C129  1  0.78186207  0.69115447  0.85309253  1  0.23906  0.000436  -0.131581  -0.267817  0.00045  3.897459  0.0
C  C130  1  0.21502078  0.43570184  0.97914062  1  0.2394  1.5e-05  -0.137782  -0.279738  0.000159  3.882795  0.0
C  C131  1  0.78499375  0.56429942  0.02083734  1  0.2387  1.3e-05  -0.137684  -0.279497  0.000157  3.88287  0.0
N  N132  1  0.16672061  0.34487573  0.04788007  1  -1.171569  -0.00079  -0.271977  -0.01167  -0.000405  3.6387  -0.001
N  N133  1  0.83329796  0.65512553  0.95210478  1  -1.17117  -0.000793  -0.272115  -0.012003  -0.000408  3.638494  -0.001
O  O134  1  0.62760945  0.27041590  0.92401041  1  -1.180671  0.00238  -0.325591  -0.554685  0.002167  2.170372  0.002
O  O135  1  0.37239102  0.72958198  0.07598465  1  -1.180738  0.002385  -0.325564  -0.554637  0.00217  2.170548  0.002
O  O136  1  0.84203551  0.19104171  0.94301741  1  -1.104355  -0.012031  -0.29606  -0.498961  -0.007439  2.411057  -0.001
O  O137  1  0.15796461  0.80895375  0.05699098  1  -1.104299  -0.012028  -0.296055  -0.498986  -0.007444  2.410966  -0.001
O  O138  1  0.90365629  0.82185234  0.15736465  1  -1.116183  -0.012019  -0.298015  -0.510405  -0.00761  2.432462  0.0
O  O139  1  0.09633222  0.17814605  0.84264780  1  -1.115666  -0.012019  -0.297947  -0.51028  -0.007602  2.43267  0.0
O  O140  1  0.71095318  0.75026466  0.20465281  1  -1.180175  -0.000122  -0.312692  -0.52893  -0.000396  2.25413  -0.001
O  O141  1  0.28903242  0.24973760  0.79535320  1  -1.180043  -0.000131  -0.31262  -0.528837  -0.000402  2.254508  -0.001
O  O142  1  0.33280495  0.04690843  0.16776453  1  -1.066921  -0.000243  -0.180836  -0.209233  -0.000259  2.535592  0.0
O  O143  1  0.66719059  0.95309790  0.83222858  1  -1.066971  -0.000243  -0.180836  -0.209236  -0.000259  2.535737  0.0
O  O144  1  0.24692935  0.27979944  0.44410540  1  -1.066306  -0.002241  -0.183667  -0.205158  -0.002109  2.527424  -0.002
O  O145  1  0.75306650  0.72020143  0.55589641  1  -1.066146  -0.00224  -0.18359  -0.20504  -0.002108  2.52745  -0.002
O  O146  1  0.99504203  0.59741513  0.26537148  1  -1.161092  -0.016237  -0.297941  -0.521406  -0.012685  2.563953  -0.01
O  O147  1  0.00494467  0.40258643  0.73462704  1  -1.161407  -0.01623  -0.297965  -0.521388  -0.01268  2.564304  -0.01
O  O148  1  0.77316000  0.58492230  0.31866223  1  -1.17608  0.012353  -0.321219  -0.477553  0.010975  2.282962  0.008
O  O149  1  0.22682993  0.41507388  0.68133779  1  -1.17581  0.012349  -0.321218  -0.477495  0.010974  2.282774  0.008
O  O150  1  0.66696137  0.32613880  0.65669310  1  -1.1092  0.031761  -0.328039  -0.461384  0.028826  2.225834  0.022
O  O151  1  0.33303980  0.67386516  0.34331544  1  -1.109258  0.031726  -0.328081  -0.461444  0.028796  2.225382  0.022
O  O152  1  0.84508833  0.26098848  0.74190640  1  -1.164561  0.000264  -0.292145  -0.526312  -0.002892  2.578071  -0.008
O  O153  1  0.15490057  0.73899522  0.25811009  1  -1.164283  0.000278  -0.292039  -0.526371  -0.002874  2.578227  -0.008
O  O154  1  0.02292334  0.34372623  0.94009025  1  -1.125869  0.000112  -0.294576  -0.491718  0.003444  2.442059  0.007
O  O155  1  0.97707517  0.65628473  0.05990811  1  -1.125586  0.000127  -0.294598  -0.491709  0.00345  2.442156  0.007
O  O156  1  0.77682993  0.40438914  0.86611492  1  -1.197151  0.005512  -0.541186  -0.693256  0.008019  2.173053  0.01
O  O157  1  0.22316352  0.59560475  0.13388734  1  -1.197232  0.005521  -0.54113  -0.693208  0.008022  2.173099  0.01
