# generated using pymatgen
data_H12PbC12(SO)4
_symmetry_space_group_name_H-M   'P 1'
_cell_length_a   12.27726069
_cell_length_b   16.94785706
_cell_length_c   16.94781001
_cell_angle_alpha   107.55945131
_cell_angle_beta   101.84512633
_cell_angle_gamma   101.84521276
_symmetry_Int_Tables_number   1
_chemical_formula_structural   H12PbC12(SO)4
_chemical_formula_sum   'H72 Pb6 C72 S24 O24'
_cell_volume   3152.68891718
_cell_formula_units_Z   6
loop_
 _symmetry_equiv_pos_site_id
 _symmetry_equiv_pos_as_xyz
  1  'x, y, z'
loop_
 _atom_site_type_symbol
 _atom_site_label
 _atom_site_symmetry_multiplicity
 _atom_site_fract_x
 _atom_site_fract_y
 _atom_site_fract_z
 _atom_site_occupancy
 _atom_site_pbe_bader_charge
 _atom_site_pbe_bader_spin_density
 _atom_site_pbe_cm5_charge
 _atom_site_pbe_ddec_charge
 _atom_site_pbe_ddec_spin_density
 _atom_site_pbe_ddec_sum_bond_order
 _atom_site_pbe_magmom
H  H0  1  0.17245928  0.83372334  0.46177005  1  0.078373  0  0.08824  0.128387  0  1.032386  0
H  H1  1  0.32753871  0.53822846  0.16627679  1  0.078413  0  0.088223  0.128355  0  1.032397  0
H  H2  1  0.82753969  0.16627752  0.53822857  1  0.078414  0  0.088206  0.128327  0  1.032416  0
H  H3  1  0.67245842  0.46176982  0.83372196  1  0.078389  0  0.088194  0.128301  0  1.032405  0
H  H4  1  0.26131003  0.82294730  0.55353618  1  0.059702  0  0.09547  0.143149  0  0.996174  0
H  H5  1  0.23868882  0.44646189  0.17705320  1  0.059661  0  0.095496  0.14316  0  0.996113  0
H  H6  1  0.73869036  0.17705291  0.44646069  1  0.059676  0  0.095494  0.143174  0  0.996103  0
H  H7  1  0.76131023  0.55353703  0.82294603  1  0.059678  0  0.095473  0.143126  0  0.99614  0
H  H8  1  0.28556705  0.92616496  0.54130537  1  0.09372  0  0.093611  0.151001  0  1.006876  0
H  H9  1  0.21443138  0.45869316  0.07383496  1  0.09371  0  0.093622  0.151012  0  1.006876  0
H  H10  1  0.71443250  0.07383525  0.45869314  1  0.093718  0  0.093604  0.150993  0  1.006903  0
H  H11  1  0.78556683  0.54130576  0.92616415  1  0.093721  0  0.093616  0.150999  0  1.006903  0
H  H12  1  0.24626476  0.21171948  0.51088788  1  0.09107  0  0.085417  0.129724  0  1.054498  0
H  H13  1  0.25373546  0.48911039  0.78827989  1  0.091392  0  0.085426  0.129746  0  1.054499  0
H  H14  1  0.75373588  0.78828138  0.48910981  1  0.090891  0  0.085405  0.129729  0  1.054502  0
H  H15  1  0.74626408  0.51088983  0.21171981  1  0.091081  0  0.085415  0.129724  0  1.054518  0
H  H16  1  0.20081845  0.30766414  0.53879444  1  0.070023  0  0.098141  0.150801  0  0.969467  0
H  H17  1  0.29918017  0.46120583  0.69233449  1  0.069934  0  0.098158  0.150831  0  0.969408  0
H  H18  1  0.79918026  0.69233608  0.46120631  1  0.070042  0  0.098155  0.150823  0  0.969455  0
H  H19  1  0.70081937  0.53879438  0.30766520  1  0.069934  0  0.098138  0.150787  0  0.969407  0
H  H20  1  0.11123939  0.21571784  0.44655278  1  0.078158  0  0.087566  0.130479  0  1.031004  0
H  H21  1  0.38876024  0.55344644  0.78428209  1  0.078173  0  0.087578  0.130507  0  1.03099  0
H  H22  1  0.88876041  0.78428302  0.55344655  1  0.078176  0  0.087583  0.130521  0  1.030978  0
H  H23  1  0.61123931  0.44655378  0.21571761  1  0.078177  0  0.087569  0.130497  0  1.030984  0
H  H24  1  0.38165869  0.85795257  0.74501147  1  0.064497  0  0.092671  0.137858  0  0.996598  0
H  H25  1  0.11834380  0.25498910  0.14204771  1  0.064543  0  0.092682  0.137876  0  0.996536  0
H  H26  1  0.61833953  0.14204635  0.25498705  1  0.064559  0  0.092692  0.137906  0  0.996531  0
H  H27  1  0.88165817  0.74501305  0.85795234  1  0.064549  0  0.092679  0.137873  0  0.996528  0
H  H28  1  0.45634823  0.90018160  0.67953668  1  0.07843  0  0.090951  0.142498  0  1.019627  0
H  H29  1  0.04365085  0.32046211  0.09981756  1  0.078465  0  0.090961  0.142481  0  1.019666  0
H  H30  1  0.54364857  0.09981798  0.32046241  1  0.078474  0  0.090976  0.142472  0  1.019644  0
H  H31  1  0.95634978  0.67953875  0.90018131  1  0.078473  0  0.090967  0.142493  0  1.019703  0
H  H32  1  0.38691617  0.96557686  0.74464807  1  0.104662  0  0.097379  0.152494  0  1.022814  0
H  H33  1  0.11308473  0.25535277  0.03442388  1  0.104655  0  0.097368  0.15248  0  1.022835  0
H  H34  1  0.61308362  0.03442400  0.25535186  1  0.104675  0  0.097383  0.152466  0  1.02285  0
H  H35  1  0.88691589  0.74464809  0.96557617  1  0.104666  0  0.097381  0.152506  0  1.022824  0
H  H36  1  0.27258313  0.11156477  0.08805025  1  0.058086  0  0.081598  0.126087  0  1.030725  0
H  H37  1  0.22741643  0.91195040  0.88843512  1  0.058096  0  0.081598  0.126103  0  1.030726  0
H  H38  1  0.72741533  0.88843481  0.91194968  1  0.058092  0  0.081633  0.126153  0  1.03075  0
H  H39  1  0.77258502  0.08805046  0.11156565  1  0.058114  0  0.081602  0.126108  0  1.030665  0
H  H40  1  0.28723392  0.21919747  0.08868459  1  0.066089  0  0.088888  0.135697  0  1.029649  0
H  H41  1  0.21276603  0.91131558  0.78080248  1  0.066081  0  0.088893  0.135702  0  1.029679  0
H  H42  1  0.71276812  0.78080274  0.91131548  1  0.066071  0  0.088888  0.13569  0  1.02967  0
H  H43  1  0.78723327  0.08868399  0.21919699  1  0.066064  0  0.088889  0.135692  0  1.029692  0
H  H44  1  0.26412004  0.13459842  0.98949363  1  0.102799  0  0.094165  0.153724  0  1.016476  0
H  H45  1  0.23587873  0.01050618  0.86540067  1  0.102943  0  0.09415  0.153694  0  1.016505  0
H  H46  1  0.73587925  0.86540115  0.01050583  1  0.102948  0  0.094142  0.153659  0  1.016554  0
H  H47  1  0.76412082  0.98949404  0.13459843  1  0.102811  0  0.09416  0.15371  0  1.016491  0
H  H48  1  0.79182264  0.93836438  0.54505940  1  0.063715  0  0.085231  0.132497  0  1.043213  0
H  H49  1  0.70817725  0.45494034  0.06163434  1  0.063677  0  0.085238  0.132532  0  1.043157  0
H  H50  1  0.20817716  0.06163648  0.45494052  1  0.063709  0  0.085232  0.13251  0  1.043202  0
H  H51  1  0.29182096  0.54505859  0.93836476  1  0.063662  0  0.085256  0.132542  0  1.043139  0
H  H52  1  0.85504153  0.94683637  0.65431729  1  0.095602  0  0.095942  0.154825  0  0.990819  0
H  H53  1  0.64495661  0.34568451  0.05316238  1  0.095634  0  0.095938  0.154776  0  0.990891  0
H  H54  1  0.14495827  0.05316450  0.34568204  1  0.095579  0  0.09593  0.154795  0  0.990842  0
H  H55  1  0.35504186  0.65431506  0.94683578  1  0.095623  0  0.095933  0.154769  0  0.990891  0
H  H56  1  0.82360684  0.03862660  0.63413913  1  0.077486  0  0.091485  0.14454  0  1.022468  0
H  H57  1  0.67639233  0.36586188  0.96137209  1  0.077469  0  0.091476  0.144484  0  1.022448  0
H  H58  1  0.17639212  0.96137427  0.36586067  1  0.077507  0  0.091464  0.144507  0  1.022537  0
H  H59  1  0.32360755  0.63413704  0.03862608  1  0.07749  0  0.091485  0.144494  0  1.022508  0
H  H60  1  0.59305771  0.24446785  0.49343680  1  0.055013  0  0.090572  0.134055  0  1.006661  0
H  H61  1  0.90694284  0.50656298  0.75553193  1  0.055006  0  0.090583  0.134074  0  1.006714  0
H  H62  1  0.40694025  0.75553044  0.50656266  1  0.055038  0  0.090564  0.134052  0  1.006695  0
H  H63  1  0.09306086  0.49343723  0.24447016  1  0.055026  0  0.090566  0.134057  0  1.006714  0
H  H64  1  0.60640730  0.32313534  0.59565038  1  0.071154  0  0.10056  0.152734  0  0.974905  0
H  H65  1  0.89359415  0.40435017  0.67686452  1  0.071154  0  0.100554  0.152743  0  0.974911  0
H  H66  1  0.39359174  0.67686359  0.40435003  1  0.071141  0  0.100551  0.152717  0  0.974896  0
H  H67  1  0.10640929  0.59564940  0.32313852  1  0.071101  0  0.100556  0.152741  0  0.974843  0
H  H68  1  0.68124321  0.24261552  0.59206771  1  0.089302  0  0.096088  0.149182  0  1.007595  0
H  H69  1  0.81875582  0.40793222  0.75738349  1  0.089322  0  0.096063  0.149166  0  1.007518  0
H  H70  1  0.31875391  0.75738277  0.40793221  1  0.089289  0  0.096092  0.149198  0  1.007551  0
H  H71  1  0.18124621  0.59206799  0.24261835  1  0.089452  0  0.096085  0.149187  0  1.007573  0
Pb  Pb72  1  0.42487565  0.19800380  0.77621007  1  1.405654  0  0.64145  1.062314  0  1.833844  0
Pb  Pb73  1  0.07512250  0.22378878  0.80199811  1  1.405666  0  0.641472  1.06233  0  1.833812  0
Pb  Pb74  1  0.57512357  0.80199771  0.22378937  1  1.405693  0  0.641457  1.062297  0  1.833826  0
Pb  Pb75  1  0.92487761  0.77621079  0.19800325  1  1.40568  0  0.641464  1.06231  0  1.833863  0
Pb  Pb76  1  0.74999764  0.14640149  0.85360169  1  1.403599  0  0.583567  0.997512  0  2.129865  0
Pb  Pb77  1  0.25000241  0.85360002  0.14639670  1  1.403562  0  0.583561  0.997484  0  2.129871  0
C  C78  1  0.20065685  0.08449414  0.65068165  1  1.588326  0  0.204928  0.555403  0  4.300558  0
C  C79  1  0.29934411  0.34931861  0.91550501  1  1.588861  0  0.204897  0.555337  0  4.300632  0
C  C80  1  0.79934411  0.91550542  0.34931747  1  1.58888  0  0.204897  0.555328  0  4.300619  0
C  C81  1  0.70065619  0.65068355  0.08449538  1  1.588885  0  0.204875  0.555216  0  4.300704  0
C  C82  1  0.09324370  0.04060754  0.57479986  1  -0.012493  0  -0.004724  -0.079028  0  3.936114  0
C  C83  1  0.40675589  0.42520028  0.95939192  1  -0.012515  0  -0.004713  -0.078964  0  3.936116  0
C  C84  1  0.90675617  0.95939138  0.42519891  1  -0.012509  0  -0.004764  -0.079089  0  3.936109  0
C  C85  1  0.59324250  0.57480123  0.04060799  1  -0.012505  0  -0.004667  -0.078884  0  3.936086  0
C  C86  1  0.05200852  0.95002452  0.54065161  1  -0.0629  0  0.002167  0.023667  0  3.94068  0
C  C87  1  0.44799110  0.45934769  0.04997440  1  -0.06284  0  0.002164  0.023675  0  3.940555  0
C  C88  1  0.94799110  0.04997376  0.45934751  1  -0.062895  0  0.002153  0.02366  0  3.940604  0
C  C89  1  0.55200870  0.54065318  0.95002552  1  -0.062863  0  0.002144  0.023628  0  3.940638  0
C  C90  1  0.04246223  0.09137064  0.53488442  1  -0.104056  0  -0.002637  0.00879  0  3.962406  0
C  C91  1  0.45753844  0.46511645  0.90862987  1  -0.104086  0  -0.002605  0.008814  0  3.962398  0
C  C92  1  0.95754089  0.90863022  0.46511659  1  -0.104046  0  -0.002622  0.008838  0  3.96243  0
C  C93  1  0.54246103  0.53488571  0.09137098  1  -0.104038  0  -0.002637  0.008719  0  3.962426  0
C  C94  1  0.21979737  0.86648080  0.53053189  1  -0.17768  0  -0.230149  -0.390597  0  3.891324  0
C  C95  1  0.28020114  0.46946663  0.13351920  1  -0.177676  0  -0.23017  -0.390572  0  3.891241  0
C  C96  1  0.78020110  0.13351878  0.46946627  1  -0.177672  0  -0.230125  -0.39054  0  3.891203  0
C  C97  1  0.71979840  0.53053359  0.86648167  1  -0.177669  0  -0.230116  -0.390496  0  3.891268  0
C  C98  1  0.17082176  0.23675684  0.51159166  1  -0.181443  0  -0.22826  -0.374404  0  3.891585  0
C  C99  1  0.32917842  0.48840769  0.76324272  1  -0.181769  0  -0.228298  -0.374483  0  3.891557  0
C  C100  1  0.82917862  0.76324337  0.48840757  1  -0.181279  0  -0.228281  -0.37448  0  3.891541  0
C  C101  1  0.67082113  0.51159253  0.23675639  1  -0.181437  0  -0.228254  -0.374404  0  3.891516  0
C  C102  1  0.50173050  0.11993605  0.90865567  1  1.606473  0  0.213858  0.55986  0  4.263297  0
C  C103  1  0.99826882  0.09134412  0.88006495  1  1.606468  0  0.21379  0.559777  0  4.263555  0
C  C104  1  0.49827047  0.88006352  0.09134228  1  1.606467  0  0.213844  0.559849  0  4.263317  0
C  C105  1  0.00173129  0.90865545  0.11993700  1  1.606475  0  0.213803  0.559775  0  4.263429  0
C  C106  1  0.50475754  0.05868415  0.95727489  1  -0.034988  0  -0.005105  -0.078028  0  3.943806  0
C  C107  1  0.99524318  0.04272475  0.94131647  1  -0.03498  0  -0.005082  -0.077939  0  3.943709  0
C  C108  1  0.49524318  0.94131477  0.04272223  1  -0.034785  0  -0.005079  -0.077971  0  3.943851  0
C  C109  1  0.00475744  0.95727612  0.05868594  1  -0.034926  0  -0.005116  -0.077973  0  3.943819  0
C  C110  1  0.52658585  0.97943234  0.92045890  1  -0.0518  0  -0.004813  0.007987  0  3.958038  0
C  C111  1  0.97341605  0.07954060  0.02056864  1  -0.051481  0  -0.00481  0.007953  0  3.958044  0
C  C112  1  0.47341460  0.02056593  0.07954035  1  -0.051641  0  -0.004833  0.007938  0  3.958156  0
C  C113  1  0.02658573  0.92045897  0.97943415  1  -0.051501  0  -0.004775  0.007989  0  3.958135  0
C  C114  1  0.47899093  0.08032445  0.03677139  1  -0.080883  0  -0.003771  0.015831  0  3.962035  0
C  C115  1  0.02100997  0.96322562  0.91967504  1  -0.080813  0  -0.003858  0.015663  0  3.962176  0
C  C116  1  0.52101012  0.91967317  0.96322422  1  -0.080898  0  -0.003784  0.015756  0  3.962135  0
C  C117  1  0.97899239  0.03677330  0.08032705  1  -0.080939  0  -0.003795  0.015801  0  3.962067  0
C  C118  1  0.43354302  0.91660769  0.74054525  1  -0.175951  0  -0.227488  -0.37996  0  3.872178  0
C  C119  1  0.06645857  0.25945346  0.08339188  1  -0.176078  0  -0.227527  -0.379996  0  3.872191  0
C  C120  1  0.56645903  0.08339252  0.25945187  1  -0.17608  0  -0.227547  -0.379957  0  3.872138  0
C  C121  1  0.93354181  0.74054676  0.91660794  1  -0.176043  0  -0.227529  -0.380017  0  3.872189  0
C  C122  1  0.30522357  0.15803401  0.05918331  1  -0.167192  0  -0.234706  -0.385841  0  3.896274  0
C  C123  1  0.19477638  0.94081636  0.84196546  1  -0.167208  0  -0.234707  -0.385853  0  3.896306  0
C  C124  1  0.69477739  0.84196556  0.94081640  1  -0.167201  0  -0.234732  -0.385862  0  3.896345  0
C  C125  1  0.80522399  0.05918386  0.15803613  1  -0.167203  0  -0.234734  -0.38586  0  3.896173  0
C  C126  1  0.62403787  0.10938124  0.67636206  1  1.588869  0  0.205723  0.554553  0  4.27646  0
C  C127  1  0.87596366  0.32363773  0.89061881  1  1.588952  0  0.20565  0.554411  0  4.276641  0
C  C128  1  0.37596251  0.89061898  0.32363834  1  1.589111  0  0.205692  0.554489  0  4.276511  0
C  C129  1  0.12403646  0.67636184  0.10938137  1  1.589072  0  0.205675  0.554489  0  4.276548  0
C  C130  1  0.55936067  0.05394983  0.58427884  1  0.000545  0  -0.003747  -0.070634  0  3.936523  0
C  C131  1  0.94063924  0.41572151  0.94605145  1  0.000529  0  -0.003718  -0.070545  0  3.936475  0
C  C132  1  0.44063721  0.94605039  0.41572178  1  0.000355  0  -0.00374  -0.070595  0  3.936497  0
C  C133  1  0.05936221  0.58427935  0.05395168  1  0.000404  0  -0.003793  -0.070685  0  3.936554  0
C  C134  1  0.57021568  0.96964815  0.55460043  1  -0.113271  0  -4.4e-05  0.010749  0  3.948095  0
C  C135  1  0.92978374  0.44539990  0.03035303  1  -0.113279  0  -6.2e-05  0.010745  0  3.948252  0
C  C136  1  0.42978252  0.03035078  0.44540044  1  -0.113259  0  -4.5e-05  0.01077  0  3.94818  0
C  C137  1  0.07021662  0.55460032  0.96965033  1  -0.113271  0  -2.4e-05  0.010794  0  3.948113  0
C  C138  1  0.49013900  0.08502308  0.53116065  1  -0.042126  0  0.000484  0.019877  0  3.952834  0
C  C139  1  0.00986069  0.46883975  0.91497693  1  -0.042217  0  0.000511  0.019888  0  3.952796  0
C  C140  1  0.50985895  0.91497520  0.46884000  1  -0.042214  0  0.000504  0.01991  0  3.952709  0
C  C141  1  0.99014001  0.53115917  0.08502491  1  -0.042264  0  0.000515  0.019881  0  3.952726  0
C  C142  1  0.79570122  0.96806053  0.61292774  1  -0.16594  0  -0.233363  -0.38236  0  3.859746  0
C  C143  1  0.70429729  0.38707511  0.03194038  1  -0.165689  0  -0.233328  -0.382223  0  3.859779  0
C  C144  1  0.20429858  0.03194033  0.38707219  1  -0.165954  0  -0.233292  -0.382257  0  3.859801  0
C  C145  1  0.29570200  0.61292447  0.96805968  1  -0.165668  0  -0.23337  -0.382259  0  3.859768  0
C  C146  1  0.60228229  0.25568369  0.56206264  1  -0.181563  0  -0.22788  -0.395691  0  3.910555  0
C  C147  1  0.89771959  0.43793828  0.74431611  1  -0.181516  0  -0.227871  -0.395731  0  3.91058  0
C  C148  1  0.39771591  0.74431524  0.43793824  1  -0.181529  0  -0.227843  -0.395675  0  3.910482  0
C  C149  1  0.10228385  0.56206129  0.25568634  1  -0.181744  0  -0.227821  -0.39566  0  3.910462  0
S  S150  1  0.12031663  0.88986831  0.59398861  1  0.050879  0  -0.011094  0.011905  0  2.727029  0
S  S151  1  0.37968253  0.40601122  0.11013139  1  0.050889  0  -0.011112  0.011875  0  2.727026  0
S  S152  1  0.87968408  0.11013062  0.40601087  1  0.050884  0  -0.011087  0.011904  0  2.727004  0
S  S153  1  0.62031701  0.59398899  0.88986830  1  0.050868  0  -0.011107  0.011898  0  2.72704  0
S  S154  1  0.09495120  0.20587950  0.58382608  1  0.015598  0  -0.026374  -0.069419  0  2.822617  0
S  S155  1  0.40504910  0.41617382  0.79411977  1  0.015542  0  -0.026388  -0.069442  0  2.822634  0
S  S156  1  0.90505059  0.79412006  0.41617376  1  0.015559  0  -0.026378  -0.069415  0  2.822577  0
S  S157  1  0.59495044  0.58382640  0.20588051  1  0.015506  0  -0.026392  -0.069412  0  2.822636  0
S  S158  1  0.57089108  0.95772250  0.82434023  1  0.023101  0  0.002724  -0.026831  0  2.921842  0
S  S159  1  0.92911133  0.17565819  0.04227905  1  0.022898  0  0.002762  -0.026755  0  2.921878  0
S  S160  1  0.42910938  0.04227577  0.17565666  1  0.022872  0  0.002741  -0.026801  0  2.921902  0
S  S161  1  0.07088987  0.82434203  0.95772325  1  0.022855  0  0.002737  -0.026774  0  2.921889  0
S  S162  1  0.46165501  0.18422399  0.08287427  1  0.047766  0  -0.033526  -0.015107  0  2.728847  0
S  S163  1  0.03834538  0.91712542  0.81577591  1  0.047692  0  -0.033499  -0.015025  0  2.728886  0
S  S164  1  0.53834486  0.81577493  0.91712509  1  0.047715  0  -0.033499  -0.015024  0  2.728815  0
S  S165  1  0.96165557  0.08287415  0.18422617  1  0.047685  0  -0.033493  -0.01507  0  2.728751  0
S  S166  1  0.65396743  0.93314877  0.62747186  1  0.044269  0  -0.018014  -0.008475  0  2.775171  0
S  S167  1  0.84603140  0.37252885  0.06685120  1  0.044024  0  -0.01804  -0.008547  0  2.775275  0
S  S168  1  0.34603294  0.06685145  0.37252973  1  0.044312  0  -0.018059  -0.008545  0  2.775251  0
S  S169  1  0.15396706  0.62747072  0.93314931  1  0.043996  0  -0.018013  -0.008513  0  2.775127  0
S  S170  1  0.47524594  0.19050393  0.57517946  1  0.052877  0  0.001406  -0.01122  0  2.852541  0
S  S171  1  0.02475402  0.42482096  0.80949595  1  0.052985  0  0.001416  -0.011177  0  2.852542  0
S  S172  1  0.52475227  0.80949500  0.42482141  1  0.052985  0  0.00138  -0.011238  0  2.852442  0
S  S173  1  0.97524775  0.57517861  0.19050684  1  0.053079  0  0.001345  -0.011276  0  2.852436  0
O  O174  1  0.19290037  0.12049173  0.72592606  1  -1.170605  0  -0.286116  -0.554903  0  2.275324  0
O  O175  1  0.30709967  0.27407410  0.87950832  1  -1.170837  0  -0.286128  -0.554907  0  2.275303  0
O  O176  1  0.80710001  0.87950849  0.27407317  1  -1.170626  0  -0.286106  -0.554851  0  2.275373  0
O  O177  1  0.69289955  0.72592741  0.12049112  1  -1.170909  0  -0.286106  -0.554842  0  2.275441  0
O  O178  1  0.29740940  0.08589948  0.63392897  1  -1.13812  0  -0.288675  -0.520884  0  2.209966  0
O  O179  1  0.20259219  0.36607197  0.91409901  1  -1.13868  0  -0.28863  -0.520831  0  2.210038  0
O  O180  1  0.70259214  0.91409944  0.36607182  1  -1.138674  0  -0.288653  -0.520845  0  2.209912  0
O  O181  1  0.79740811  0.63393018  0.08590020  1  -1.138666  0  -0.28866  -0.520806  0  2.209922  0
O  O182  1  0.40488578  0.10229677  0.85162653  1  -1.132895  0  -0.268693  -0.473778  0  2.205178  0
O  O183  1  0.09511321  0.14837161  0.89770336  1  -1.132872  0  -0.268674  -0.473733  0  2.205231  0
O  O184  1  0.59511519  0.89770280  0.14837141  1  -1.132897  0  -0.268694  -0.473776  0  2.205111  0
O  O185  1  0.90488749  0.85162732  0.10229789  1  -1.132891  0  -0.268628  -0.473694  0  2.205204  0
O  O186  1  0.58959590  0.18239015  0.92449422  1  -1.188389  0  -0.297257  -0.571932  0  2.28904  0
O  O187  1  0.91040269  0.07550693  0.81761310  1  -1.188335  0  -0.2972  -0.571906  0  2.289102  0
O  O188  1  0.41040506  0.81760942  0.07550490  1  -1.188366  0  -0.297252  -0.571934  0  2.289053  0
O  O189  1  0.08959742  0.92449264  0.18238944  1  -1.188394  0  -0.297234  -0.571919  0  2.289112  0
O  O190  1  0.56672952  0.11382508  0.73244813  1  -1.174739  0  -0.292496  -0.577591  0  2.363648  0
O  O191  1  0.93327239  0.26755309  0.88617808  1  -1.174801  0  -0.292444  -0.577539  0  2.363792  0
O  O192  1  0.43327078  0.88617707  0.26755225  1  -1.174756  0  -0.292455  -0.577547  0  2.363736  0
O  O193  1  0.06672823  0.73244778  0.11382315  1  -1.174755  0  -0.292447  -0.577528  0  2.363689  0
O  O194  1  0.73207762  0.14297444  0.69580699  1  -1.166961  0  -0.289568  -0.512765  0  2.162888  0
O  O195  1  0.76792343  0.30419328  0.85702374  1  -1.166981  0  -0.289586  -0.512764  0  2.162833  0
O  O196  1  0.26792251  0.85702513  0.30419260  1  -1.166989  0  -0.289587  -0.512774  0  2.162793  0
O  O197  1  0.23207637  0.69580759  0.14297501  1  -1.16697  0  -0.28958  -0.512762  0  2.162846  0
