# generated using pymatgen
data_NaH6C8N3O2
_symmetry_space_group_name_H-M   'P 1'
_cell_length_a   3.68806333
_cell_length_b   8.08484445
_cell_length_c   25.92495564
_cell_angle_alpha   97.27833035
_cell_angle_beta   89.99906077
_cell_angle_gamma   89.99988268
_symmetry_Int_Tables_number   1
_chemical_formula_structural   NaH6C8N3O2
_chemical_formula_sum   'Na4 H24 C32 N12 O8'
_cell_volume   766.78662234
_cell_formula_units_Z   4
loop_
 _symmetry_equiv_pos_site_id
 _symmetry_equiv_pos_as_xyz
  1  'x, y, z'
loop_
 _atom_site_type_symbol
 _atom_site_label
 _atom_site_symmetry_multiplicity
 _atom_site_fract_x
 _atom_site_fract_y
 _atom_site_fract_z
 _atom_site_occupancy
 _atom_site_hle17_bader_spin_density
 _atom_site_hle17_ddec_charge
 _atom_site_hle17_ddec_spin_density
 _atom_site_hle17_ddec_sum_bond_order
 _atom_site_hle17_magmom
 _atom_site_hse06_10hf_bader_spin_density
 _atom_site_hse06_10hf_ddec_charge
 _atom_site_hse06_10hf_ddec_spin_density
 _atom_site_hse06_10hf_ddec_sum_bond_order
 _atom_site_hse06_10hf_magmom
 _atom_site_hse06_bader_spin_density
 _atom_site_hse06_ddec_charge
 _atom_site_hse06_ddec_spin_density
 _atom_site_hse06_ddec_sum_bond_order
 _atom_site_hse06_magmom
 _atom_site_pbe_bader_spin_density
 _atom_site_pbe_cm5_charge
 _atom_site_pbe_ddec_charge
 _atom_site_pbe_ddec_spin_density
 _atom_site_pbe_ddec_sum_bond_order
 _atom_site_pbe_magmom
Na  Na0  1  0.75638079  0.88131680  0.95279248  1  0  0.911329  0  0.371167  0  0  0.866141  0  0.52416  0  0  0.877893  0  0.501008  0  0  0.675515  0.857317  0  0.540833  0
Na  Na1  1  0.25639003  0.11868863  0.54720735  1  0  0.911339  0  0.371156  0  0  0.866143  0  0.524169  0  0  0.877894  0  0.501017  0  0  0.675539  0.857319  0  0.540836  0
Na  Na2  1  0.24360997  0.11865536  0.04720576  1  0  0.911326  0  0.371202  0  0  0.866125  0  0.524212  0  0  0.877872  0  0.501067  0  0  0.67554  0.857305  0  0.540888  0
Na  Na3  1  0.74361429  0.88134720  0.45279591  1  0  0.911332  0  0.371217  0  0  0.866134  0  0.524223  0  0  0.877875  0  0.501079  0  0  0.675549  0.857313  0  0.540896  0
H  H4  1  0.14951960  0.58478514  0.97581188  1  0  0.26383  0  0.946279  0  0  0.234797  0  1.030221  0  0  0.245144  0  1.020577  0  0  0.319301  0.227428  0  1.037231  0
H  H5  1  0.64951031  0.41521301  0.52418794  1  0  0.263807  0  0.946303  0  0  0.234775  0  1.030273  0  0  0.245125  0  1.020623  0  0  0.319283  0.227403  0  1.037287  0
H  H6  1  0.85044947  0.41517838  0.02418874  1  0  0.263899  0  0.946094  0  0  0.234813  0  1.030136  0  0  0.245177  0  1.020451  0  0  0.31926  0.227438  0  1.03715  0
H  H7  1  0.35046689  0.58482015  0.47580945  1  0  0.263967  0  0.946126  0  0  0.234873  0  1.030126  0  0  0.245234  0  1.020442  0  0  0.319301  0.227499  0  1.037142  0
H  H8  1  0.71314873  0.63571946  0.83311834  1  0  0.3251  0  0.920297  0  0  0.312886  0  0.975262  0  0  0.320285  0  0.969058  0  0  0.297827  0.307645  0  0.979586  0
H  H9  1  0.21312954  0.36427351  0.66687883  1  0  0.325026  0  0.920333  0  0  0.312808  0  0.9753  0  0  0.320207  0  0.969097  0  0  0.297793  0.307566  0  0.979624  0
H  H10  1  0.28683390  0.36425272  0.16688067  1  0  0.324903  0  0.920514  0  0  0.312721  0  0.975417  0  0  0.320119  0  0.969213  0  0  0.297781  0.307482  0  0.97974  0
H  H11  1  0.78686394  0.63574470  0.33311840  1  0  0.324925  0  0.920526  0  0  0.312764  0  0.975399  0  0  0.320162  0  0.969192  0  0  0.2978  0.307526  0  0.979722  0
H  H12  1  0.94296648  0.54080899  0.77842472  1  0  0.303849  0  0.927756  0  0  0.290379  0  0.992971  0  0  0.296227  0  0.98914  0  0  0.29432  0.286247  0  0.995652  0
H  H13  1  0.44295412  0.45918103  0.72157142  1  0  0.303668  0  0.927737  0  0  0.290183  0  0.993012  0  0  0.296031  0  0.989186  0  0  0.294255  0.286051  0  0.995689  0
H  H14  1  0.05704056  0.45915706  0.22157716  1  0  0.303998  0  0.92743  0  0  0.290384  0  0.992833  0  0  0.296232  0  0.989003  0  0  0.294351  0.286249  0  0.995517  0
H  H15  1  0.55705020  0.54084096  0.27842749  1  0  0.303811  0  0.927586  0  0  0.290264  0  0.992914  0  0  0.296113  0  0.989079  0  0  0.294301  0.286129  0  0.995597  0
H  H16  1  0.89631544  0.24685966  0.75192541  1  0  0.095816  0  0.97113  0  0  0.106441  0  1.034731  0  0  0.110084  0  1.033306  0  0  0.097736  0.103869  0  1.035822  0
H  H17  1  0.39634754  0.75313792  0.74807072  1  0  0.095881  0  0.971092  0  0  0.106509  0  1.034684  0  0  0.110135  0  1.033282  0  0  0.097764  0.103936  0  1.035779  0
H  H18  1  0.10367804  0.75311507  0.24807562  1  0  0.096022  0  0.971194  0  0  0.10664  0  1.03478  0  0  0.110267  0  1.033374  0  0  0.097837  0.104063  0  1.035878  0
H  H19  1  0.60367305  0.24687783  0.25192756  1  0  0.095854  0  0.971058  0  0  0.106438  0  1.034718  0  0  0.110084  0  1.03329  0  0  0.097744  0.103861  0  1.035815  0
H  H20  1  0.77163169  0.96991725  0.77887289  1  0  0.079334  0  0.972512  0  0  0.093231  0  1.031344  0  0  0.095202  0  1.030584  0  0  0.098433  0.091787  0  1.031947  0
H  H21  1  0.27168091  0.03007933  0.72112389  1  0  0.079316  0  0.972485  0  0  0.093222  0  1.031312  0  0  0.095193  0  1.03055  0  0  0.098433  0.091774  0  1.031919  0
H  H22  1  0.22835636  0.03005872  0.22112781  1  0  0.079336  0  0.972478  0  0  0.093222  0  1.031316  0  0  0.095195  0  1.030559  0  0  0.098443  0.091774  0  1.031924  0
H  H23  1  0.72838307  0.96994148  0.27887690  1  0  0.079441  0  0.972507  0  0  0.09331  0  1.031365  0  0  0.095286  0  1.030601  0  0  0.098436  0.091859  0  1.03198  0
H  H24  1  0.46262457  0.94593163  0.86369317  1  0  0.097521  0  0.976913  0  0  0.105742  0  1.043914  0  0  0.110661  0  1.040178  0  0  0.105643  0.102141  0  1.046769  0
H  H25  1  0.96263375  0.05407218  0.63630728  1  0  0.097529  0  0.976845  0  0  0.105753  0  1.043859  0  0  0.110672  0  1.040122  0  0  0.105656  0.102145  0  1.046721  0
H  H26  1  0.53738518  0.05403814  0.13630845  1  0  0.097482  0  0.976896  0  0  0.105688  0  1.043918  0  0  0.11061  0  1.04018  0  0  0.105649  0.102076  0  1.046787  0
H  H27  1  0.03739498  0.94596487  0.36369526  1  0  0.097508  0  0.976866  0  0  0.105663  0  1.043942  0  0  0.110618  0  1.040167  0  0  0.105623  0.102053  0  1.046811  0
C  C28  1  0.27872875  0.19876560  0.93623799  1  0  0.460176  0  3.956124  0  0  0.426099  0  4.250305  0  0  0.447591  0  4.255503  0  0  0.194986  0.411591  0  4.246243  0
C  C29  1  0.77872135  0.80123728  0.56376132  1  0  0.460046  0  3.956401  0  0  0.426025  0  4.250468  0  0  0.447516  0  4.255665  0  0  0.194954  0.411521  0  4.246402  0
C  C30  1  0.72128100  0.80121669  0.06376564  1  0  0.460343  0  3.955868  0  0  0.426285  0  4.249999  0  0  0.447781  0  4.255187  0  0  0.195067  0.411773  0  4.245943  0
C  C31  1  0.22128026  0.19878969  0.43623700  1  0  0.460137  0  3.955947  0  0  0.426017  0  4.250214  0  0  0.447508  0  4.255411  0  0  0.195006  0.41151  0  4.246147  0
C  C32  1  0.40997213  0.51811213  0.90587375  1  0  0.504055  0  3.877574  0  0  0.453675  0  4.170768  0  0  0.482377  0  4.171675  0  0  0.21796  0.434577  0  4.169471  0
C  C33  1  0.90996262  0.48188553  0.59412583  1  0  0.504101  0  3.877443  0  0  0.453682  0  4.170775  0  0  0.482387  0  4.171681  0  0  0.218017  0.434576  0  4.169482  0
C  C34  1  0.58998339  0.48185136  0.09412610  1  0  0.50408  0  3.877063  0  0  0.453742  0  4.170233  0  0  0.482442  0  4.17115  0  0  0.21818  0.434629  0  4.168945  0
C  C35  1  0.09000646  0.51815028  0.40587667  1  0  0.503891  0  3.877347  0  0  0.453512  0  4.170553  0  0  0.482215  0  4.171461  0  0  0.21795  0.434397  0  4.169266  0
C  C36  1  0.50721254  0.37190205  0.86999623  1  0  -0.180426  0  3.703426  0  0  -0.166157  0  3.936553  0  0  -0.176976  0  3.958422  0  0  -0.018966  -0.159315  0  3.92212  0
C  C37  1  0.00720729  0.62809634  0.63000277  1  0  -0.180238  0  3.703263  0  0  -0.1661  0  3.936631  0  0  -0.17692  0  3.958498  0  0  -0.018996  -0.159231  0  3.922154  0
C  C38  1  0.49280534  0.62806898  0.13000583  1  0  -0.180235  0  3.702833  0  0  -0.166311  0  3.936206  0  0  -0.177136  0  3.958071  0  0  -0.019132  -0.15946  0  3.921768  0
C  C39  1  0.99281059  0.37194057  0.36999513  1  0  -0.180145  0  3.702764  0  0  -0.166267  0  3.936174  0  0  -0.177091  0  3.958037  0  0  -0.019034  -0.159409  0  3.921734  0
C  C40  1  0.67389632  0.38470661  0.82101156  1  0  0.314986  0  3.804267  0  0  0.301953  0  4.056765  0  0  0.314679  0  4.0753  0  0  0.106321  0.293406  0  4.044109  0
C  C41  1  0.17388819  0.61529259  0.67898323  1  0  0.314829  0  3.804319  0  0  0.301809  0  4.056867  0  0  0.31454  0  4.075392  0  0  0.106349  0.293254  0  4.044213  0
C  C42  1  0.32610258  0.61526946  0.17899222  1  0  0.314919  0  3.804393  0  0  0.302253  0  4.056436  0  0  0.314994  0  4.074937  0  0  0.106382  0.293701  0  4.043793  0
C  C43  1  0.82611885  0.38473668  0.32100938  1  0  0.314812  0  3.804411  0  0  0.302153  0  4.056454  0  0  0.314894  0  4.074953  0  0  0.106326  0.293597  0  4.043816  0
C  C44  1  0.76465885  0.23698335  0.78907085  1  0  -0.204371  0  3.731429  0  0  -0.224524  0  3.991922  0  0  -0.232481  0  4.011959  0  0  -0.108334  -0.219291  0  3.978444  0
C  C45  1  0.26468978  0.76301452  0.71092676  1  0  -0.204509  0  3.731275  0  0  -0.224639  0  3.991789  0  0  -0.232585  0  4.011824  0  0  -0.108379  -0.219409  0  3.97832  0
C  C46  1  0.23534005  0.76298026  0.21093287  1  0  -0.204691  0  3.731806  0  0  -0.22491  0  3.992116  0  0  -0.232856  0  4.012146  0  0  -0.108361  -0.219678  0  3.978646  0
C  C47  1  0.73534979  0.23700623  0.28907209  1  0  -0.204208  0  3.731205  0  0  -0.224429  0  3.991604  0  0  -0.232388  0  4.011631  0  0  -0.108154  -0.219197  0  3.978131  0
C  C48  1  0.69387860  0.08147648  0.80456471  1  0  -0.027889  0  3.806046  0  0  -0.042205  0  4.059187  0  0  -0.038766  0  4.078305  0  0  -0.086863  -0.044195  0  4.045957  0
C  C49  1  0.19389437  0.91852524  0.69543244  1  0  -0.027792  0  3.806039  0  0  -0.04211  0  4.059176  0  0  -0.038666  0  4.078286  0  0  -0.086878  -0.044103  0  4.045953  0
C  C50  1  0.30610674  0.91848956  0.19543717  1  0  -0.027754  0  3.805853  0  0  -0.042068  0  4.058937  0  0  -0.03863  0  4.078053  0  0  -0.086916  -0.044053  0  4.0457  0
C  C51  1  0.80613707  0.08150176  0.30456703  1  0  -0.028142  0  3.806227  0  0  -0.042472  0  4.059312  0  0  -0.039039  0  4.078437  0  0  -0.087017  -0.044457  0  4.046076  0
C  C52  1  0.52842050  0.06715061  0.85200365  1  0  -0.131091  0  3.756816  0  0  -0.155819  0  4.011939  0  0  -0.160842  0  4.030728  0  0  -0.101411  -0.152468  0  3.999249  0
C  C53  1  0.02843625  0.93284904  0.64799689  1  0  -0.131069  0  3.756725  0  0  -0.155817  0  4.011876  0  0  -0.160839  0  4.030666  0  0  -0.101402  -0.152458  0  3.999191  0
C  C54  1  0.47156485  0.93281919  0.14799875  1  0  -0.130945  0  3.756452  0  0  -0.155638  0  4.01152  0  0  -0.160664  0  4.030315  0  0  -0.101437  -0.152273  0  3.99883  0
C  C55  1  0.97160061  0.06717297  0.35200240  1  0  -0.13076  0  3.756659  0  0  -0.15541  0  4.011699  0  0  -0.160461  0  4.030472  0  0  -0.101332  -0.15205  0  3.999015  0
C  C56  1  0.43884823  0.21194929  0.88506109  1  0  -0.013698  0  3.75939  0  0  -0.001043  0  3.988813  0  0  0.000564  0  4.009338  0  0  -0.00384  -0.002025  0  3.974928  0
C  C57  1  0.93885939  0.78804951  0.61493653  1  0  -0.013818  0  3.759258  0  0  -0.001103  0  3.988663  0  0  0.0005  0  4.009195  0  0  -0.003852  -0.002094  0  3.974773  0
C  C58  1  0.56116965  0.78802299  0.11494101  1  0  -0.014113  0  3.759399  0  0  -0.001373  0  3.988801  0  0  0.000237  0  4.009319  0  0  -0.003806  -0.002364  0  3.974932  0
C  C59  1  0.06117205  0.21197485  0.38505822  1  0  -0.014096  0  3.759174  0  0  -0.001298  0  3.988558  0  0  0.000311  0  4.009087  0  0  -0.003768  -0.002289  0  3.97468  0
N  N60  1  0.17345735  0.33511575  0.96670623  1  0  -0.364827  0  3.005952  0  0  -0.348591  0  3.295912  0  0  -0.361661  0  3.307924  0  0  -0.265267  -0.339654  0  3.287748  0
N  N61  1  0.67345135  0.66488859  0.53329376  1  0  -0.364872  0  3.006033  0  0  -0.348641  0  3.295975  0  0  -0.361706  0  3.307991  0  0  -0.265296  -0.339708  0  3.287811  0
N  N62  1  0.82652799  0.66486033  0.03329794  1  0  -0.364719  0  3.0057  0  0  -0.348528  0  3.295615  0  0  -0.3616  0  3.307639  0  0  -0.265263  -0.339595  0  3.287447  0
N  N63  1  0.32653670  0.33515075  0.46670231  1  0  -0.364611  0  3.006016  0  0  -0.348421  0  3.295859  0  0  -0.361493  0  3.307884  0  0  -0.265266  -0.339487  0  3.287689  0
N  N64  1  0.24001326  0.48613299  0.94977460  1  0  -0.251349  0  3.47425  0  0  -0.195178  0  3.72826  0  0  -0.212583  0  3.741678  0  0  -0.292552  -0.183641  0  3.719072  0
N  N65  1  0.74000054  0.51387000  0.55022595  1  0  -0.251227  0  3.474025  0  0  -0.195081  0  3.728115  0  0  -0.212493  0  3.741533  0  0  -0.292506  -0.183544  0  3.718936  0
N  N66  1  0.75996395  0.51383925  0.05022595  1  0  -0.251514  0  3.47387  0  0  -0.195286  0  3.727854  0  0  -0.212692  0  3.741269  0  0  -0.292661  -0.183733  0  3.718668  0
N  N67  1  0.25998209  0.48616449  0.44977418  1  0  -0.25151  0  3.474326  0  0  -0.195152  0  3.728197  0  0  -0.212553  0  3.741609  0  0  -0.292519  -0.183601  0  3.719014  0
N  N68  1  0.73648535  0.53746414  0.80429319  1  0  -0.665947  0  3.100471  0  0  -0.627568  0  3.324487  0  0  -0.647326  0  3.323615  0  0  -0.594294  -0.613649  0  3.324777  0
N  N69  1  0.23647596  0.46254006  0.69570587  1  0  -0.665631  0  3.100404  0  0  -0.627217  0  3.32444  0  0  -0.646979  0  3.323582  0  0  -0.594181  -0.613299  0  3.324727  0
N  N70  1  0.26351897  0.46250933  0.19570702  1  0  -0.665908  0  3.100542  0  0  -0.62751  0  3.324578  0  0  -0.647272  0  3.323708  0  0  -0.594299  -0.613571  0  3.324822  0
N  N71  1  0.76352294  0.53748945  0.30429408  1  0  -0.665741  0  3.100753  0  0  -0.627419  0  3.324672  0  0  -0.647201  0  3.323842  0  0  -0.594266  -0.613481  0  3.324917  0
O  O72  1  0.24385071  0.05531813  0.95304575  1  0  -0.825434  0  1.981336  0  0  -0.781823  0  2.244787  0  0  -0.802077  0  2.230646  0  0  -0.536959  -0.767174  0  2.254  0
O  O73  1  0.74385547  0.94468861  0.54695532  1  0  -0.825347  0  1.981303  0  0  -0.781756  0  2.244731  0  0  -0.802006  0  2.230587  0  0  -0.536929  -0.767108  0  2.253935  0
O  O74  1  0.75613463  0.94465413  0.04695558  1  0  -0.825551  0  1.98125  0  0  -0.781963  0  2.244699  0  0  -0.802217  0  2.230555  0  0  -0.53705  -0.767306  0  2.25391  0
O  O75  1  0.25612987  0.05534464  0.45304477  1  0  -0.825547  0  1.981293  0  0  -0.781941  0  2.244776  0  0  -0.80219  0  2.230633  0  0  -0.537076  -0.767279  0  2.253974  0
O  O76  1  0.47044566  0.66957826  0.89907821  1  0  -0.690991  0  1.923843  0  0  -0.64844  0  2.166124  0  0  -0.668005  0  2.153495  0  0  -0.399575  -0.634596  0  2.174214  0
O  O77  1  0.97043332  0.33042173  0.60091977  1  0  -0.691024  0  1.923929  0  0  -0.648445  0  2.166274  0  0  -0.668011  0  2.153647  0  0  -0.399622  -0.634595  0  2.17435  0
O  O78  1  0.52950985  0.33037770  0.10091983  1  0  -0.690879  0  1.923654  0  0  -0.648283  0  2.165835  0  0  -0.667847  0  2.153215  0  0  -0.399566  -0.634457  0  2.173981  0
O  O79  1  0.02954660  0.66962395  0.39907961  1  0  -0.690909  0  1.923657  0  0  -0.648316  0  2.165853  0  0  -0.667882  0  2.153231  0  0  -0.399587  -0.63449  0  2.174  0
