# generated using pymatgen
data_K2H10C12S2O7
_symmetry_space_group_name_H-M   'P 1'
_cell_length_a   5.74120217
_cell_length_b   10.08361154
_cell_length_c   14.61798932
_cell_angle_alpha   86.28323885
_cell_angle_beta   77.46293936
_cell_angle_gamma   73.49284757
_symmetry_Int_Tables_number   1
_chemical_formula_structural   K2H10C12S2O7
_chemical_formula_sum   'K4 H20 C24 S4 O14'
_cell_volume   792.03463719
_cell_formula_units_Z   2
loop_
 _symmetry_equiv_pos_site_id
 _symmetry_equiv_pos_as_xyz
  1  'x, y, z'
loop_
 _atom_site_type_symbol
 _atom_site_label
 _atom_site_symmetry_multiplicity
 _atom_site_fract_x
 _atom_site_fract_y
 _atom_site_fract_z
 _atom_site_occupancy
 _atom_site_hle17_bader_spin_density
 _atom_site_hle17_ddec_charge
 _atom_site_hle17_ddec_spin_density
 _atom_site_hle17_ddec_sum_bond_order
 _atom_site_hle17_magmom
 _atom_site_hse06_10hf_bader_spin_density
 _atom_site_hse06_10hf_ddec_charge
 _atom_site_hse06_10hf_ddec_spin_density
 _atom_site_hse06_10hf_ddec_sum_bond_order
 _atom_site_hse06_10hf_magmom
 _atom_site_hse06_bader_spin_density
 _atom_site_hse06_ddec_charge
 _atom_site_hse06_ddec_spin_density
 _atom_site_hse06_ddec_sum_bond_order
 _atom_site_hse06_magmom
 _atom_site_pbe_bader_spin_density
 _atom_site_pbe_cm5_charge
 _atom_site_pbe_ddec_charge
 _atom_site_pbe_ddec_spin_density
 _atom_site_pbe_ddec_sum_bond_order
 _atom_site_pbe_magmom
K  K0  1  0.92368576  0.63111947  0.49871178  1  0  0.948129  0  0.48977  0  0  0.913028  0  0.671855  0  0  0.925273  0  0.651118  0  0  0.854857  0.903608  0  0.686969  0
K  K1  1  0.55311211  0.36818079  0.49929550  1  0  0.948298  0  0.488799  0  0  0.913673  0  0.669786  0  0  0.925809  0  0.649195  0  0  0.85426  0.904146  0  0.685084  0
K  K2  1  0.57603029  0.99881940  0.66644492  1  0  0.946204  0  0.492213  0  0  0.910818  0  0.673374  0  0  0.922569  0  0.652333  0  0  0.80953  0.901554  0  0.688929  0
K  K3  1  0.16906171  0.00011564  0.49251837  1  0  0.924837  0  0.511866  0  0  0.878578  0  0.7082  0  0  0.892991  0  0.684764  0  0  0.861217  0.867595  0  0.725251  0
H  H4  1  0.73612157  0.58163018  0.89497967  1  0  0.090792  0  0.985299  0  0  0.100142  0  1.050861  0  0  0.102127  0  1.052002  0  0  0.098089  0.098779  0  1.050028  0
H  H5  1  0.30725591  0.42332233  0.89510627  1  0  0.090487  0  0.983961  0  0  0.100106  0  1.048894  0  0  0.101999  0  1.050219  0  0  0.0983  0.098725  0  1.048053  0
H  H6  1  0.77975427  0.57356058  0.02351199  1  0  0.083602  0  0.98869  0  0  0.092831  0  1.055729  0  0  0.09493  0  1.056242  0  0  0.094794  0.091331  0  1.055463  0
H  H7  1  0.35393739  0.42492993  0.02250621  1  0  0.083164  0  0.987375  0  0  0.092516  0  1.054214  0  0  0.094601  0  1.054765  0  0  0.094487  0.091092  0  1.053786  0
H  H8  1  0.70901666  0.92101451  0.42680595  1  0  0.422067  0  0.882642  0  0  0.396861  0  0.938416  0  0  0.406426  0  0.924242  0  0  0.293912  0.390085  0  0.948448  0
H  H9  1  0.62982711  0.07884761  0.42689142  1  0  0.422134  0  0.88232  0  0  0.396651  0  0.938666  0  0  0.406237  0  0.924438  0  0  0.293913  0.389893  0  0.948683  0
H  H10  1  0.67683617  0.58821976  0.73401644  1  0  0.121356  0  0.94866  0  0  0.130087  0  1.009522  0  0  0.133998  0  1.006967  0  0  0.117526  0.127181  0  1.011524  0
H  H11  1  0.25580960  0.41499678  0.73414847  1  0  0.121468  0  0.951419  0  0  0.129826  0  1.012782  0  0  0.13362  0  1.010328  0  0  0.116971  0.127053  0  1.014591  0
H  H12  1  0.83891060  0.57564374  0.18443135  1  0  0.106424  0  0.952735  0  0  0.114893  0  1.016559  0  0  0.117183  0  1.016976  0  0  0.107337  0.11328  0  1.016271  0
H  H13  1  0.41535143  0.42367037  0.18334832  1  0  0.106336  0  0.954126  0  0  0.115053  0  1.017731  0  0  0.117259  0  1.0182  0  0  0.107486  0.113507  0  1.017321  0
H  H14  1  0.91307650  0.82421999  0.82350804  1  0  0.107291  0  0.956698  0  0  0.118035  0  1.016945  0  0  0.121305  0  1.015327  0  0  0.110891  0.115664  0  1.018048  0
H  H15  1  0.74098999  0.17005798  0.82453514  1  0  0.110896  0  0.95693  0  0  0.120329  0  1.018772  0  0  0.123706  0  1.016933  0  0  0.111066  0.117922  0  1.020023  0
H  H16  1  0.08073512  0.82132985  0.27119573  1  0  0.122941  0  0.946769  0  0  0.131645  0  1.005378  0  0  0.135776  0  1.00224  0  0  0.117159  0.128591  0  1.00773  0
H  H17  1  0.89577725  0.18186466  0.27259856  1  0  0.122575  0  0.948732  0  0  0.131636  0  1.00704  0  0  0.135775  0  1.003912  0  0  0.116675  0.12858  0  1.009394  0
H  H18  1  0.96607087  0.81382952  0.98593083  1  0  0.096534  0  0.961806  0  0  0.109191  0  1.017539  0  0  0.112396  0  1.015966  0  0  0.103286  0.106851  0  1.018784  0
H  H19  1  0.78429474  0.18110759  0.98647972  1  0  0.096586  0  0.961223  0  0  0.109301  0  1.016715  0  0  0.112464  0  1.015104  0  0  0.103697  0.106999  0  1.018001  0
H  H20  1  0.01937691  0.82248722  0.11113985  1  0  0.09133  0  0.959508  0  0  0.104561  0  1.015147  0  0  0.107378  0  1.014038  0  0  0.102454  0.102551  0  1.015813  0
H  H21  1  0.83344798  0.18111767  0.11289494  1  0  0.091028  0  0.960572  0  0  0.104611  0  1.015883  0  0  0.107341  0  1.014903  0  0  0.102516  0.102685  0  1.016543  0
H  H22  1  0.41912459  0.91992675  0.89383670  1  0  0.396469  0  0.891669  0  0  0.372484  0  0.956811  0  0  0.379011  0  0.947638  0  0  0.292644  0.367882  0  0.963248  0
H  H23  1  0.32120725  0.07903239  0.89072148  1  0  0.396628  0  0.895827  0  0  0.371797  0  0.960353  0  0  0.378325  0  0.95124  0  0  0.291767  0.36726  0  0.966645  0
C  C24  1  0.35757111  0.69942445  0.95516615  1  0  0.034582  0  3.790176  0  0  0.050208  0  4.01996  0  0  0.052688  0  4.040945  0  0  -0.009249  0.048482  0  4.00615  0
C  C25  1  0.05369375  0.30078154  0.95556970  1  0  0.03692  0  3.789775  0  0  0.051448  0  4.020388  0  0  0.053945  0  4.04136  0  0  -0.008762  0.049854  0  4.006407  0
C  C26  1  0.39513827  0.69967491  0.05250911  1  0  0.034806  0  3.789864  0  0  0.049157  0  4.022523  0  0  0.049434  0  4.04668  0  0  -0.01428  0.048986  0  4.005906  0
C  C27  1  0.09118745  0.30114591  0.05285898  1  0  0.035416  0  3.790135  0  0  0.049589  0  4.023102  0  0  0.049971  0  4.047029  0  0  -0.013888  0.049414  0  4.007049  0
C  C28  1  0.55349540  0.63502808  0.88136318  1  0  -0.11852  0  3.722507  0  0  -0.135054  0  3.970734  0  0  -0.139078  0  3.991328  0  0  -0.089122  -0.132602  0  3.957159  0
C  C29  1  0.18153783  0.36738314  0.88168072  1  0  -0.115018  0  3.719056  0  0  -0.131244  0  3.966963  0  0  -0.135289  0  3.987654  0  0  -0.088276  -0.128628  0  3.953004  0
C  C30  1  0.62495165  0.63058135  0.07625621  1  0  -0.116753  0  3.733001  0  0  -0.1353  0  3.984768  0  0  -0.139513  0  4.006896  0  0  -0.092373  -0.132411  0  3.969827  0
C  C31  1  0.25405701  0.36924101  0.07587610  1  0  -0.114026  0  3.730743  0  0  -0.132399  0  3.982388  0  0  -0.136586  0  4.004416  0  0  -0.090981  -0.12981  0  3.967599  0
C  C32  1  0.52203779  0.63873284  0.78943098  1  0  -0.055565  0  3.719054  0  0  -0.078604  0  3.965518  0  0  -0.077487  0  3.98403  0  0  -0.07531  -0.079208  0  3.953293  0
C  C33  1  0.15446274  0.36281626  0.78977098  1  0  -0.056252  0  3.716881  0  0  -0.078877  0  3.962995  0  0  -0.077626  0  3.98155  0  0  -0.075779  -0.079698  0  3.950584  0
C  C34  1  0.66081766  0.63126105  0.16740686  1  0  -0.05797  0  3.738338  0  0  -0.080968  0  3.987115  0  0  -0.080357  0  4.007286  0  0  -0.079384  -0.08147  0  3.973799  0
C  C35  1  0.29106483  0.36881010  0.16695326  1  0  -0.06034  0  3.741298  0  0  -0.084434  0  3.990137  0  0  -0.083749  0  4.010355  0  0  -0.08081  -0.084868  0  3.976455  0
C  C36  1  0.29116265  0.70794509  0.76834849  1  0  -0.125118  0  3.740479  0  0  -0.097545  0  3.982195  0  0  -0.104174  0  4.003473  0  0  -0.015136  -0.093464  0  3.967995  0
C  C37  1  0.99674616  0.29081693  0.76885259  1  0  -0.124648  0  3.739911  0  0  -0.096957  0  3.980729  0  0  -0.103719  0  4.002064  0  0  -0.014777  -0.09262  0  3.96664  0
C  C38  1  0.46547993  0.70205543  0.23727626  1  0  -0.091394  0  3.701943  0  0  -0.065327  0  3.941894  0  0  -0.071389  0  3.962074  0  0  -0.005961  -0.061579  0  3.928915  0
C  C39  1  0.16514472  0.29890152  0.23744217  1  0  -0.091092  0  3.701772  0  0  -0.062525  0  3.938472  0  0  -0.068585  0  3.958648  0  0  -0.005689  -0.058693  0  3.925356  0
C  C40  1  0.09247004  0.77009662  0.83981230  1  0  -0.06721  0  3.772555  0  0  -0.090604  0  4.019007  0  0  -0.089714  0  4.038807  0  0  -0.080805  -0.090667  0  4.0046  0
C  C41  1  0.86356049  0.22639543  0.84036360  1  0  -0.070431  0  3.770864  0  0  -0.093337  0  4.016916  0  0  -0.092362  0  4.036481  0  0  -0.081658  -0.093739  0  4.003119  0
C  C42  1  0.23516127  0.77005552  0.21615897  1  0  -0.049171  0  3.72366  0  0  -0.072294  0  3.967915  0  0  -0.071286  0  3.986489  0  0  -0.072801  -0.072768  0  3.954783  0
C  C43  1  0.00025827  0.23215804  0.21706497  1  0  -0.050717  0  3.724239  0  0  -0.075046  0  3.968044  0  0  -0.074073  0  3.986607  0  0  -0.073093  -0.075624  0  3.955259  0
C  C44  1  0.12558176  0.76490847  0.93187435  1  0  -0.130035  0  3.745876  0  0  -0.146542  0  3.99372  0  0  -0.150278  0  4.013034  0  0  -0.091354  -0.144007  0  3.980225  0
C  C45  1  0.89163527  0.23208974  0.93238537  1  0  -0.131583  0  3.748748  0  0  -0.146765  0  3.995023  0  0  -0.150459  0  4.01424  0  0  -0.091278  -0.144379  0  3.981747  0
C  C46  1  0.20184233  0.76879539  0.12480702  1  0  -0.105462  0  3.733419  0  0  -0.125185  0  3.983548  0  0  -0.128989  0  4.005139  0  0  -0.086915  -0.122056  0  3.967398  0
C  C47  1  0.96479575  0.23349334  0.12582158  1  0  -0.103944  0  3.731863  0  0  -0.123792  0  3.982045  0  0  -0.127521  0  4.00358  0  0  -0.086981  -0.121122  0  3.966626  0
S  S48  1  0.26208783  0.72122895  0.64885031  1  0  1.324549  0  5.720717  0  0  1.235644  0  6.240358  0  0  1.283618  0  6.214108  0  0  0.483169  1.202489  0  6.257569  0
S  S49  1  0.98210052  0.27728576  0.64931935  1  0  1.327179  0  5.717652  0  0  1.238498  0  6.237356  0  0  1.286516  0  6.211072  0  0  0.48457  1.205279  0  6.254554  0
S  S50  1  0.50926166  0.70909887  0.35358652  1  0  1.319382  0  5.703324  0  0  1.226692  0  6.226681  0  0  1.274946  0  6.200478  0  0  0.479796  1.193252  0  6.243942  0
S  S51  1  0.21679839  0.29164859  0.35368038  1  0  1.318504  0  5.703598  0  0  1.225062  0  6.226751  0  0  1.273303  0  6.20059  0  0  0.479502  1.191713  0  6.243806  0
O  O52  1  0.46189564  0.00186012  0.86403374  1  0  -0.828271  0  1.782243  0  0  -0.787879  0  1.929422  0  0  -0.802704  0  1.908218  0  0  -0.634684  -0.777199  0  1.944096  0
O  O53  1  0.70400856  0.99975245  0.46491519  1  0  -0.914731  0  1.748268  0  0  -0.8761  0  1.906635  0  0  -0.89332  0  1.878293  0  0  -0.717394  -0.863693  0  1.926453  0
O  O54  1  0.29669861  0.58080195  0.61720797  1  0  -0.712233  0  1.984427  0  0  -0.672031  0  2.24495  0  0  -0.692423  0  2.230398  0  0  -0.427937  -0.657567  0  2.254613  0
O  O55  1  0.87840641  0.41784678  0.61691890  1  0  -0.713489  0  1.982898  0  0  -0.673968  0  2.24437  0  0  -0.694394  0  2.22982  0  0  -0.428624  -0.659401  0  2.253995  0
O  O56  1  0.25746476  0.75732552  0.41126281  1  0  -0.759091  0  2.024344  0  0  -0.714754  0  2.292077  0  0  -0.73503  0  2.276218  0  0  -0.501208  -0.700314  0  2.302715  0
O  O57  1  0.01267076  0.24385645  0.41173606  1  0  -0.758565  0  2.024402  0  0  -0.7144  0  2.292577  0  0  -0.734719  0  2.276894  0  0  -0.501272  -0.699943  0  2.303082  0
O  O58  1  0.46064642  0.78302520  0.60090994  1  0  -0.778318  0  2.008535  0  0  -0.735151  0  2.27382  0  0  -0.756043  0  2.259119  0  0  -0.483645  -0.720096  0  2.283442  0
O  O59  1  0.24241334  0.21497866  0.60197354  1  0  -0.781228  0  2.00431  0  0  -0.737814  0  2.26871  0  0  -0.758714  0  2.253929  0  0  -0.485107  -0.722833  0  2.278584  0
O  O60  1  0.65288125  0.81077058  0.35018391  1  0  -0.716765  0  1.958121  0  0  -0.662785  0  2.194801  0  0  -0.684285  0  2.179325  0  0  -0.368038  -0.647391  0  2.205065  0
O  O61  1  0.46115115  0.18939288  0.35060047  1  0  -0.717355  0  1.959893  0  0  -0.66339  0  2.197379  0  0  -0.68491  0  2.181889  0  0  -0.368631  -0.648012  0  2.207647  0
O  O62  1  0.01310137  0.81317236  0.64679933  1  0  -0.762907  0  1.97969  0  0  -0.718476  0  2.237261  0  0  -0.738273  0  2.221751  0  0  -0.468584  -0.704311  0  2.247559  0
O  O63  1  0.82411596  0.18577414  0.64731761  1  0  -0.762801  0  1.977751  0  0  -0.718138  0  2.23477  0  0  -0.737876  0  2.219147  0  0  -0.46971  -0.704017  0  2.245175  0
O  O64  1  0.64788116  0.57039186  0.37788454  1  0  -0.719411  0  1.985675  0  0  -0.679092  0  2.245911  0  0  -0.699486  0  2.231831  0  0  -0.451307  -0.664416  0  2.255091  0
O  O65  1  0.21865250  0.43012616  0.37726638  1  0  -0.718504  0  1.984674  0  0  -0.678173  0  2.245046  0  0  -0.698507  0  2.230894  0  0  -0.451068  -0.663679  0  2.25424  0
