# generated using pymatgen
data_Zn2H24C44N5Cl5O8
_symmetry_space_group_name_H-M   'P 1'
_cell_length_a   12.67304344
_cell_length_b   13.42458772
_cell_length_c   17.24920602
_cell_angle_alpha   90.74499947
_cell_angle_beta   99.22781596
_cell_angle_gamma   98.08800243
_symmetry_Int_Tables_number   1
_chemical_formula_structural   Zn2H24C44N5Cl5O8
_chemical_formula_sum   'Zn2 H24 C44 N5 Cl5 O8'
_cell_volume   2865.92367641
_cell_formula_units_Z   1
loop_
 _symmetry_equiv_pos_site_id
 _symmetry_equiv_pos_as_xyz
  1  'x, y, z'
loop_
 _atom_site_type_symbol
 _atom_site_label
 _atom_site_symmetry_multiplicity
 _atom_site_fract_x
 _atom_site_fract_y
 _atom_site_fract_z
 _atom_site_occupancy
 _atom_site_pbe_bader_charge
 _atom_site_pbe_bader_spin_density
 _atom_site_pbe_cm5_charge
 _atom_site_pbe_ddec_charge
 _atom_site_pbe_ddec_spin_density
 _atom_site_pbe_ddec_sum_bond_order
 _atom_site_pbe_magmom
Zn  Zn0  1  0.61703785  0.48344994  0.52143776  1  1.328944  0  0.676765  0.883897  0  2.31758  0
Zn  Zn1  1  0.38469434  0.50278913  0.48085896  1  1.311193  0  0.679647  0.883814  0  2.32192  0
H  H2  1  0.35827236  0.55415141  0.23791246  1  0.097133  0  0.092831  0.099382  0  1.032555  0
H  H3  1  0.32808504  0.62332790  0.85334305  1  0.0515  0  0.099444  0.100793  0  1.006886  0
H  H4  1  0.26308464  0.19570223  0.54669995  1  0.084266  0  0.104176  0.111595  0  0.995327  0
H  H5  1  0.32310975  0.86299000  0.59673615  1  0.032236  0  0.100216  0.102785  0  0.995464  0
H  H6  1  0.24674704  0.01394457  0.58102645  1  0.034412  0  0.100548  0.102027  0  0.998352  0
H  H7  1  0.71108518  0.75910310  0.39550395  1  0.074192  0  0.100783  0.104114  0  1.002228  0
H  H8  1  0.58662500  0.03927886  0.36190355  1  0.092703  0  0.086801  0.090722  0  1.074114  0
H  H9  1  0.70192975  0.92151007  0.32588084  1  0.053451  0  0.09899  0.097132  0  0.989612  0
H  H10  1  0.45437563  0.75362070  0.57061169  1  0.102998  0  0.104433  0.123972  0  1.011629  0
H  H11  1  0.67069321  0.57010444  0.76433585  1  0.107986  0  0.104975  0.112127  0  0.9977  0
H  H12  1  0.11745267  0.32853983  0.63984740  1  0.098752  0  0.103925  0.112435  0  1.007475  0
H  H13  1  0.95446470  0.65510656  0.44885204  1  0.112777  0  0.12169  0.139872  0  0.982708  0
H  H14  1  0.25606208  0.41323600  0.56951415  1  0.141365  0  0.116117  0.140372  0  1.03583  0
H  H15  1  0.32913732  0.57511317  0.71323046  1  0.084283  0  0.10127  0.105402  0  1.004796  0
H  H16  1  0.67125611  0.61819809  0.90479269  1  0.048157  0  0.097839  0.096017  0  1.008101  0
H  H17  1  0.67958658  0.47688423  0.27596852  1  0.033787  0  0.096013  0.103861  0  1.026286  0
H  H18  1  0.59303036  0.52392219  0.99997020  1  0.032844  0  0.092206  0.094149  0  1.055187  0
H  H19  1  0.37492808  0.59149539  0.09992886  1  0.031228  0  0.098196  0.100977  0  1.014892  0
H  H20  1  0.86076294  0.53503083  0.39079796  1  0.451472  0  0.315047  0.307471  0  0.947844  0
H  H21  1  0.72643317  0.50772529  0.40750096  1  0.558829  0  0.301941  0.324919  0  1.002142  0
H  H22  1  0.42263429  0.76037541  0.95653227  1  0.425548  0  0.30664  0.29543  0  0.94393  0
H  H23  1  0.43587657  0.72128435  0.05045378  1  0.456355  0  0.30362  0.297093  0  0.954448  0
H  H24  1  0.72607654  0.52674830  0.07726261  1  0.428421  0  0.296732  0.289531  0  0.979493  0
H  H25  1  0.76847292  0.47043179  0.16188161  1  0.423707  0  0.304075  0.297026  0  0.950647  0
C  C26  1  0.58436181  0.67922482  0.49125054  1  1.556131  0  0.211  0.600283  0  4.158648  0
C  C27  1  0.61362762  0.50427977  0.23741510  1  -0.003069  0  -0.10758  -0.223285  0  3.973865  0
C  C28  1  0.59587108  0.60716194  0.86306300  1  -0.097481  0  -0.094007  -0.133796  0  4.004036  0
C  C29  1  0.59609862  0.58097089  0.78492555  1  -0.018002  0  -0.084841  -0.084211  0  3.981317  0
C  C30  1  0.40368843  0.58509904  0.75573635  1  -0.016056  0  -0.087221  -0.088228  0  3.992527  0
C  C31  1  0.40354377  0.61257853  0.83381775  1  -0.046742  0  -0.095439  -0.135988  0  3.99169  0
C  C32  1  0.49900129  0.62027760  0.88926733  1  0.01067  0  -0.00877  0.039217  0  4.002971  0
C  C33  1  0.54721708  0.57461863  0.02624863  1  -0.038343  0  -0.135749  -0.31458  0  4.02424  0
C  C34  1  0.49505691  0.63437376  0.97389195  1  0.383204  0  0.087951  0.24346  0  4.100914  0
C  C35  1  0.49948372  0.56712660  0.73089467  1  -0.058565  0  -0.021207  -0.037602  0  3.965853  0
C  C36  1  0.30989423  0.04721474  0.54906440  1  -0.023772  0  -0.095026  -0.14551  0  4.033836  0
C  C37  1  0.50639496  0.49165964  0.34885901  1  1.543403  0  0.217277  0.603464  0  4.133452  0
C  C38  1  0.40749221  0.19133859  0.49674338  1  0.028815  0  -0.021442  -0.089761  0  3.954873  0
C  C39  1  0.66057447  0.81285828  0.41155484  1  -0.028326  0  -0.08892  -0.096099  0  4.011113  0
C  C40  1  0.65588194  0.90391264  0.37347956  1  -0.032405  0  -0.099111  -0.087773  0  4.064066  0
C  C41  1  0.59117014  0.97128058  0.39461838  1  -0.030349  0  -0.099932  -0.134732  0  4.017323  0
C  C42  1  0.52971164  0.95238741  0.45597315  1  -0.044884  0  -0.00315  0.042138  0  3.919823  0
C  C43  1  0.52683763  0.85484474  0.48967146  1  0.023773  0  -0.00365  0.057741  0  3.949854  0
C  C44  1  0.46500516  0.02410594  0.48292918  1  0.052539  0  -0.005571  -0.02834  0  3.88602  0
C  C45  1  0.38390777  0.98612973  0.52868671  1  0.005749  0  -0.00984  0.088062  0  4.031174  0
C  C46  1  0.38185251  0.88721114  0.55842105  1  -0.024422  0  -0.09997  -0.145698  0  4.0454  0
C  C47  1  0.45422269  0.82644467  0.54387294  1  -0.053262  0  -0.095306  -0.126776  0  4.016475  0
C  C48  1  0.42582329  0.30442893  0.49600461  1  1.606432  0  0.213776  0.613404  0  4.158359  0
C  C49  1  0.47773076  0.13022977  0.47188649  1  0.007804  0  0.022974  0.088473  0  3.942207  0
C  C50  1  0.31950883  0.14740177  0.53136111  1  -0.011959  0  -0.089166  -0.087255  0  4.02782  0
C  C51  1  0.59383106  0.78648874  0.46673648  1  -0.049642  0  -0.016429  -0.071895  0  3.923676  0
C  C52  1  0.90522912  0.35099417  0.61837302  1  0.117876  0  -0.013248  -0.044414  0  4.062447  0
C  C53  1  0.21121976  0.63519542  0.42340893  1  0.710013  0  0.149175  0.223799  0  4.060198  0
C  C54  1  0.11285756  0.67595603  0.41956233  1  0.121225  0  0.008593  0.047035  0  4.097359  0
C  C55  1  0.02936119  0.62334400  0.45121654  1  -0.010141  0  -0.075677  -0.157908  0  3.954782  0
C  C56  1  0.04319041  0.53282230  0.48991911  1  -0.004587  0  0.002709  0.032177  0  3.972923  0
C  C57  1  0.15000008  0.50690356  0.50305154  1  0.431621  0  0.119327  0.213726  0  3.940057  0
C  C58  1  0.95880709  0.47202335  0.52222825  1  0.025456  0  -0.011897  -0.115951  0  3.924191  0
C  C59  1  0.49941519  0.53225899  0.64807481  1  1.568387  0  0.21459  0.600222  0  4.158218  0
C  C60  1  0.98702780  0.40141055  0.57959210  1  -0.008898  0  -0.000807  0.0717  0  4.044855  0
C  C61  1  0.09662994  0.38328698  0.59605288  1  -0.023875  0  -0.079193  -0.099  0  3.951194  0
C  C62  1  0.17409107  0.43064403  0.55714029  1  0.051753  0  -0.072081  -0.125916  0  3.921834  0
C  C63  1  0.84549149  0.47545533  0.49690966  1  1.05674  0  0.248736  0.441748  0  4.026931  0
C  C64  1  0.80126650  0.37532078  0.60048163  1  0.665693  0  0.132723  0.225233  0  4.118901  0
C  C65  1  0.51821683  0.51411002  0.26592696  1  -0.021474  0  -0.03112  -0.03036  0  4.033555  0
C  C66  1  0.43302298  0.54808090  0.21593372  1  -0.046169  0  -0.109711  -0.129402  0  4.052215  0
C  C67  1  0.44431703  0.57105504  0.13919027  1  -0.054622  0  -0.104541  -0.143943  0  4.021294  0
C  C68  1  0.53938443  0.56132615  0.10865416  1  0.055  0  -0.023017  0.044049  0  4.010743  0
C  C69  1  0.62611347  0.52762031  0.16021577  1  0.343178  0  0.08771  0.248251  0  4.068278  0
N  N70  1  0.77120734  0.43506069  0.54062130  1  -1.207946  0  -0.329643  -0.371407  0  3.410358  0
N  N71  1  0.23005745  0.55600269  0.46650580  1  -1.209649  0  -0.296453  -0.284627  0  3.409928  0
N  N72  1  0.80882312  0.51532190  0.42848521  1  -1.295156  0  -0.566511  -0.604445  0  3.350086  0
N  N73  1  0.42848791  0.70155336  0.99258129  1  -1.22812  0  -0.5884  -0.603935  0  3.329877  0
N  N74  1  0.72432477  0.52163070  0.13557341  1  -1.212619  0  -0.60837  -0.630184  0  3.330804  0
Cl  Cl75  1  0.58416533  0.19060724  0.42982831  1  -0.198512  0  0.005579  -0.051933  0  1.613039  0
Cl  Cl76  1  0.70490934  0.32730500  0.65396563  1  -0.128048  0  0.041133  -0.010004  0  1.611383  0
Cl  Cl77  1  0.93589645  0.26475964  0.68835164  1  -0.183365  0  -0.011306  -0.07144  0  1.540673  0
Cl  Cl78  1  0.30587164  0.68932032  0.37127866  1  -0.107816  0  0.071846  0.012827  0  1.668364  0
Cl  Cl79  1  0.09741275  0.78850277  0.37657332  1  -0.160746  0  0.009854  -0.047458  0  1.493821  0
O  O80  1  0.66859197  0.63644600  0.50376869  1  -1.164161  0  -0.323048  -0.543846  0  2.25373  0
O  O81  1  0.48896376  0.63565441  0.49361073  1  -1.188738  0  -0.323565  -0.591198  0  2.478048  0
O  O82  1  0.59053934  0.47468747  0.39631859  1  -1.196535  0  -0.320673  -0.574783  0  2.376219  0
O  O83  1  0.41371363  0.49228884  0.36793728  1  -1.160755  0  -0.317445  -0.546182  0  2.348481  0
O  O84  1  0.52142014  0.34758393  0.51851618  1  -1.187228  0  -0.320641  -0.580013  0  2.490735  0
O  O85  1  0.34311413  0.34880378  0.47743113  1  -1.159992  0  -0.318806  -0.543789  0  2.279225  0
O  O86  1  0.59099416  0.52361045  0.62943567  1  -1.163588  0  -0.318803  -0.551021  0  2.373845  0
O  O87  1  0.40797447  0.51336838  0.60318683  1  -1.163981  0  -0.322587  -0.569235  0  2.34804  0
