# generated using pymatgen
data_CoH7C10SN2
_symmetry_space_group_name_H-M   'P 1'
_cell_length_a   5.60394356
_cell_length_b   12.93152989
_cell_length_c   13.57617169
_cell_angle_alpha   70.78467437
_cell_angle_beta   78.12882150
_cell_angle_gamma   77.57422087
_symmetry_Int_Tables_number   1
_chemical_formula_structural   CoH7C10SN2
_chemical_formula_sum   'Co4 H28 C40 S4 N8'
_cell_volume   897.50037203
_cell_formula_units_Z   4
loop_
 _symmetry_equiv_pos_site_id
 _symmetry_equiv_pos_as_xyz
  1  'x, y, z'
loop_
 _atom_site_type_symbol
 _atom_site_label
 _atom_site_symmetry_multiplicity
 _atom_site_fract_x
 _atom_site_fract_y
 _atom_site_fract_z
 _atom_site_occupancy
 _atom_site_hle17_ddec_charge
 _atom_site_hle17_ddec_spin_density
 _atom_site_hle17_ddec_sum_bond_order
 _atom_site_hle17_magmom
 _atom_site_hse06_10hf_bader_charge
 _atom_site_hse06_10hf_bader_spin_density
 _atom_site_hse06_10hf_ddec_charge
 _atom_site_hse06_10hf_ddec_spin_density
 _atom_site_hse06_10hf_ddec_sum_bond_order
 _atom_site_hse06_10hf_magmom
 _atom_site_hse06_ddec_charge
 _atom_site_hse06_ddec_spin_density
 _atom_site_hse06_ddec_sum_bond_order
 _atom_site_hse06_magmom
 _atom_site_pbe_cm5_charge
 _atom_site_pbe_ddec_charge
 _atom_site_pbe_ddec_spin_density
 _atom_site_pbe_ddec_sum_bond_order
 _atom_site_pbe_magmom
Co  Co0  1  0.62955282  0.92033566  0.98279137  1  0.37424  -2.14881  2.737836  -1.942  0.724127  -1.913648  0.299248  -2.00478  3.290014  -1.888  0.326999  -2.01831  3.20911  -1.92  0.429813  0.294578  -1.976493  3.304896  -1.823
Co  Co1  1  0.53249239  0.58013768  0.51721647  1  0.376659  -2.153589  2.733899  -1.945  0.727406  -1.919009  0.301583  -2.011706  3.285602  -1.893  0.328211  -2.019427  3.205977  -1.92  0.430412  0.294914  -1.973666  3.302169  -1.819
Co  Co2  1  0.37054077  0.07965469  0.01719428  1  0.374347  -2.148905  2.737572  -1.942  0.723351  -1.913643  0.299009  -2.004869  3.290026  -1.888  0.327287  -2.018992  3.208755  -1.92  0.429854  0.294557  -1.976709  3.304893  -1.823
Co  Co3  1  0.46751498  0.41989909  0.48278016  1  0.376763  -2.153661  2.734337  -1.945  0.727808  -1.919396  0.302495  -2.012295  3.285591  -1.894  0.328852  -2.020716  3.205709  -1.921  0.430481  0.295056  -1.97394  3.302519  -1.82
H  H4  1  0.25984995  0.83154475  0.16113042  1  0.06803  0.000902  0.967227  -0.003  0.105779  0.000189  0.082247  0.001444  1.027342  -0.001  0.085274  0.000697  1.022433  0.0  0.106613  0.078245  0.001184  1.033316  -0.001
H  H5  1  0.25487490  0.66905182  0.33823663  1  0.067741  0.000806  0.966827  -0.003  0.106477  0.000126  0.082632  0.001418  1.026197  -0.001  0.086122  0.00065  1.020596  0.0  0.106998  0.079032  0.001081  1.031476  -0.001
H  H6  1  0.74025138  0.16844725  0.83887566  1  0.068101  0.000899  0.96715  -0.003  0.105925  0.00019  0.082281  0.001443  1.027273  -0.001  0.085318  0.000693  1.022346  0.0  0.106636  0.078195  0.001185  1.033342  -0.001
H  H7  1  0.74502939  0.33093016  0.66177778  1  0.067701  0.000804  0.966621  -0.003  0.106348  0.000123  0.08252  0.001415  1.026138  -0.001  0.086006  0.000645  1.020525  0.0  0.106905  0.078919  0.00108  1.031402  -0.001
H  H8  1  0.94544498  0.70825732  0.19623437  1  0.09145  -0.000223  0.993904  0.001  0.083182  -0.001293  0.101248  -0.000826  1.060521  0.0  0.104108  -0.000496  1.061338  0.0  0.094582  0.098223  -0.001302  1.061166  0.0
H  H9  1  0.85305405  0.79215209  0.30273582  1  0.092098  -0.000288  0.993253  0.001  0.084535  -0.001307  0.101959  -0.000845  1.059385  0.0  0.104843  -0.000503  1.060183  0.0  0.095298  0.099028  -0.001332  1.059808  0.0
H  H10  1  0.05463179  0.29173798  0.80378872  1  0.091412  -0.000217  0.993956  0.001  0.082818  -0.001293  0.101228  -0.000827  1.060554  0.0  0.104037  -0.000494  1.061473  0.0  0.094568  0.098206  -0.001303  1.061201  0.0
H  H11  1  0.14685301  0.20783487  0.69726714  1  0.092095  -0.000283  0.993077  0.001  0.084648  -0.001306  0.101922  -0.000845  1.059255  0.0  0.104786  -0.000499  1.060124  0.0  0.095239  0.098987  -0.001332  1.059669  0.0
H  H12  1  0.96730445  0.59646563  0.07584885  1  0.091308  -0.000585  0.950497  -0.003  0.07071  0.000342  0.104583  0.000534  1.01015  0.0  0.108105  0.000331  1.005888  0.0  0.102697  0.102179  0.000571  1.012973  0.0
H  H13  1  0.64164056  0.90329530  0.42337429  1  0.092154  -0.000529  0.952599  -0.003  0.066816  0.000457  0.105362  0.000677  1.012348  0.0  0.108876  0.000374  1.007917  0.0  0.102976  0.103038  0.000576  1.014824  0.0
H  H14  1  0.03272617  0.40353796  0.92416949  1  0.091478  -0.000586  0.950264  -0.003  0.070899  0.000342  0.104733  0.000533  1.009958  0.0  0.10826  0.000327  1.005712  0.0  0.102753  0.102329  0.000572  1.012782  0.0
H  H15  1  0.35828645  0.09670329  0.57662682  1  0.092307  -0.000536  0.952162  -0.003  0.066767  0.000457  0.105461  0.000676  1.011963  0.0  0.109011  0.00037  1.0075  0.0  0.102993  0.103119  0.000575  1.014452  0.0
H  H16  1  0.19332619  0.53755347  0.91950537  1  0.084398  -0.000409  0.966023  -0.001  0.042252  -0.000242  0.09628  -0.000117  1.0291  0.0  0.098421  -4.9e-05  1.028708  0.0  0.097782  0.094566  -0.000156  1.029777  0.0
H  H17  1  0.65138131  0.96206784  0.58020454  1  0.085229  -0.000398  0.964374  -0.001  0.077231  -0.000216  0.097463  -9.9e-05  1.026942  0.0  0.099567  -3.9e-05  1.026537  0.0  0.097954  0.095621  -0.000151  1.027689  0.0
H  H18  1  0.80671433  0.46244598  0.08050205  1  0.084397  -0.000411  0.966407  -0.001  0.041879  -0.000242  0.096372  -0.000116  1.029358  0.0  0.098547  -4.9e-05  1.028928  0.0  0.097835  0.094652  -0.000155  1.030033  0.0
H  H19  1  0.34857319  0.03792744  0.41979673  1  0.085303  -0.000396  0.963904  -0.001  0.077577  -0.000216  0.097445  -9.9e-05  1.026588  0.0  0.099634  -3.9e-05  1.026096  0.0  0.097927  0.095591  -0.000152  1.02735  0.0
H  H20  1  0.55184461  0.54306849  0.77623294  1  0.090271  0.000556  0.973388  0.001  0.074559  -0.000173  0.099868  1.9e-05  1.038009  0.0  0.103416  0.000318  1.037301  0.0  0.094721  0.096472  -1.8e-05  1.039543  0.0
H  H21  1  0.87119488  0.95662853  0.72388019  1  0.089937  0.000535  0.973557  0.001  0.083405  -0.000182  0.099479  3.1e-05  1.038421  0.0  0.102792  0.000316  1.037934  0.0  0.094821  0.095931  -2.7e-05  1.040027  0.0
H  H22  1  0.44818308  0.45693511  0.22376822  1  0.09027  0.000554  0.973313  0.001  0.074482  -0.000173  0.099859  1.9e-05  1.037941  0.0  0.10346  0.000312  1.037166  0.0  0.094749  0.09646  -1.7e-05  1.039469  0.0
H  H23  1  0.12875467  0.04337837  0.27611128  1  0.089821  0.000538  0.973656  0.001  0.08316  -0.000183  0.099456  3.1e-05  1.038421  0.0  0.102836  0.000313  1.037852  0.0  0.094766  0.095899  -2.8e-05  1.040039  0.0
H  H24  1  0.86605491  0.66224751  0.75490309  1  0.091597  1.4e-05  0.958284  -0.001  0.091097  -0.000149  0.102886  -3.5e-05  1.017964  0.0  0.105744  -1.5e-05  1.01733  0.0  0.09864  0.100554  0.000108  1.018885  0.0
H  H25  1  0.28313767  0.83804677  0.74523217  1  0.091758  1e-05  0.95902  -0.001  0.048965  -0.000146  0.102406  -3.2e-05  1.019371  0.0  0.105224  -2.3e-05  1.018869  0.0  0.098565  0.100077  6.9e-05  1.020283  0.0
H  H26  1  0.13397171  0.33775442  0.24509839  1  0.091552  1.6e-05  0.958348  -0.001  0.091082  -0.000149  0.102912  -3.5e-05  1.017951  0.0  0.105713  -1.7e-05  1.017386  0.0  0.098643  0.100584  0.000111  1.018871  0.0
H  H27  1  0.71680765  0.16196095  0.25475387  1  0.091475  6e-06  0.959194  -0.001  0.048589  -0.000147  0.102177  -3.2e-05  1.019491  0.0  0.105004  -2.5e-05  1.01898  0.0  0.098493  0.099847  6.9e-05  1.020412  0.0
H  H28  1  0.81969378  0.77698847  0.87456864  1  0.105019  -0.000149  0.971725  0.0  0.087218  -0.002391  0.114389  -0.001526  1.038396  0.0  0.117367  -0.000535  1.039207  0.0  0.100163  0.110021  -0.001472  1.043443  0.0
H  H29  1  0.47184319  0.72378706  0.62535719  1  0.105674  -0.000152  0.972451  0.0  0.083548  -0.002465  0.114578  -0.001559  1.039641  0.0  0.117719  -0.000511  1.040482  0.0  0.100087  0.11031  -0.001482  1.044748  0.0
H  H30  1  0.18035189  0.22301099  0.12543362  1  0.105081  -0.000154  0.971775  0.0  0.087376  -0.002389  0.114424  -0.001527  1.038481  0.0  0.117433  -0.000561  1.039182  0.0  0.100173  0.110053  -0.001471  1.043548  0.0
H  H31  1  0.52808549  0.27620572  0.37464230  1  0.105724  -0.000155  0.97236  0.0  0.083074  -0.002469  0.114567  -0.00156  1.039575  0.0  0.117808  -0.000567  1.040126  0.0  0.100062  0.110307  -0.001473  1.044658  0.0
C  C32  1  0.13404750  0.98597661  0.88639753  1  0.276915  0.087545  3.852441  0.06  0.589232  0.003126  0.276635  0.01389  4.151112  0.004  0.289388  0.031422  4.186307  0.019  0.150867  0.255449  0.016565  4.134618  0.008
C  C33  1  0.00622706  0.51398273  0.61355167  1  0.278337  0.087512  3.852519  0.061  0.597828  0.004665  0.277601  0.015181  4.15099  0.005  0.289999  0.031849  4.187433  0.019  0.151538  0.256471  0.016118  4.135385  0.008
C  C34  1  0.86604833  0.01402203  0.11358787  1  0.277536  0.087455  3.852445  0.06  0.590593  0.003092  0.277261  0.013859  4.15106  0.004  0.290203  0.03128  4.186234  0.019  0.15116  0.256062  0.016571  4.13461  0.009
C  C35  1  0.99374833  0.48601836  0.38644687  1  0.277904  0.087861  3.851888  0.061  0.597155  0.004647  0.277248  0.015178  4.150401  0.005  0.290009  0.031695  4.186809  0.019  0.151287  0.256028  0.016218  4.134827  0.008
C  C36  1  0.27160664  0.77963130  0.11080139  1  0.128765  0.071578  3.69087  0.046  0.455874  0.016624  0.103382  0.019132  3.930292  0.009  0.118523  0.004941  3.934857  0.001  0.041802  0.091421  0.022239  3.93111  0.012
C  C37  1  0.16420091  0.72083551  0.38861700  1  0.126618  0.073993  3.692479  0.048  0.45396  0.020308  0.100258  0.023198  3.932837  0.012  0.11643  0.005894  3.935602  0.001  0.039902  0.089089  0.023146  3.93195  0.012
C  C38  1  0.72845424  0.22036816  0.88920390  1  0.12853  0.0716  3.690829  0.046  0.454537  0.016606  0.103167  0.019117  3.930193  0.009  0.118326  0.004804  3.934832  0.001  0.041618  0.091261  0.022274  3.93105  0.012
C  C39  1  0.83570153  0.27915560  0.61138611  1  0.126948  0.073973  3.691861  0.048  0.45413  0.020281  0.100529  0.023168  3.932278  0.012  0.116774  0.005577  3.935106  0.001  0.039954  0.089338  0.023162  3.931392  0.012
C  C40  1  0.09333757  0.71103141  0.12998792  1  -0.129169  -0.021314  3.776101  -0.032  0.000746  -0.005292  -0.143354  -0.002322  4.033134  -0.005  -0.149386  -0.001418  4.04496  -0.003  -0.095772  -0.141495  -0.002812  4.029839  -0.006
C  C41  1  0.93698936  0.78932637  0.36919600  1  -0.129319  -0.020785  3.776717  -0.032  -0.058951  -0.005236  -0.143311  -0.002077  4.034442  -0.005  -0.14905  -0.001507  4.045239  -0.003  -0.096237  -0.141216  -0.002324  4.030057  -0.006
C  C42  1  0.90672264  0.28896804  0.87002535  1  -0.128983  -0.021333  3.776095  -0.032  0.002519  -0.005287  -0.143134  -0.002322  4.033007  -0.005  -0.149197  -0.001395  4.044854  -0.003  -0.095552  -0.141277  -0.002813  4.029717  -0.006
C  C43  1  0.06293554  0.21066973  0.63080151  1  -0.12917  -0.020774  3.77655  -0.032  -0.073779  -0.005216  -0.143103  -0.002068  4.034221  -0.005  -0.148893  -0.001451  4.044966  -0.003  -0.095995  -0.141016  -0.002318  4.02986  -0.006
C  C44  1  0.10585830  0.64870370  0.06367806  1  -0.049764  0.085465  3.707341  0.056  -0.029678  0.017509  -0.072007  0.019161  3.958374  0.01  -0.059489  0.004921  3.964724  0.003  -0.073068  -0.081577  0.030794  3.955426  0.018
C  C45  1  0.82012218  0.85125260  0.43571392  1  -0.052017  0.086325  3.710411  0.056  0.036008  0.0205  -0.075497  0.022421  3.961989  0.012  -0.062255  0.005818  3.967295  0.003  -0.073743  -0.08436  0.029421  3.958402  0.017
C  C46  1  0.89419101  0.35129824  0.93633358  1  -0.050171  0.085492  3.707191  0.056  -0.031052  0.017503  -0.072417  0.019155  3.958245  0.01  -0.05987  0.004787  3.964525  0.003  -0.073317  -0.082007  0.030838  3.955339  0.018
C  C47  1  0.17979305  0.14874516  0.56428308  1  -0.052132  0.08629  3.710804  0.056  0.065198  0.020473  -0.075513  0.022406  3.962448  0.012  -0.06218  0.005485  3.967657  0.003  -0.073889  -0.084375  0.029427  3.958879  0.017
C  C48  1  0.30247156  0.65294705  0.97911736  1  0.015113  -0.012384  3.800922  -0.02  0.048301  -0.0024  0.034035  -0.000708  4.023546  -0.003  0.029446  -5.2e-05  4.047537  -0.001  -0.006284  0.038256  -0.001082  4.006478  -0.004
C  C49  1  0.93571669  0.84701984  0.52056553  1  0.015614  -0.01248  3.800826  -0.021  -0.006613  -0.002894  0.03599  -0.000948  4.021404  -0.003  0.031361  -0.000184  4.045084  -0.001  -0.006064  0.039967  -0.001068  4.004369  -0.004
C  C50  1  0.69755555  0.34705986  0.02088776  1  0.01532  -0.012391  3.80062  -0.02  0.04692  -0.002402  0.034293  -0.000711  4.023165  -0.003  0.029707  -4.3e-05  4.047145  -0.001  -0.006206  0.03852  -0.001086  4.00609  -0.004
C  C51  1  0.06423513  0.15298125  0.47942922  1  0.015624  -0.012472  3.800796  -0.021  -0.021312  -0.002891  0.035855  -0.00095  4.021606  -0.003  0.031195  -0.00016  4.04535  -0.001  -0.006064  0.039823  -0.001069  4.00459  -0.004
C  C52  1  0.33164630  0.58957736  0.90875083  1  -0.098019  0.026654  3.744905  0.018  -0.075628  0.000317  -0.11655  0.000678  3.990025  0.0  -0.119125  -0.000398  4.012655  -0.001  -0.086205  -0.116059  0.004356  3.975069  0.003
C  C53  1  0.83079077  0.91021842  0.59102964  1  -0.100005  0.027002  3.747288  0.018  -0.147675  0.001203  -0.11903  0.001531  3.991615  0.001  -0.121431  -0.000326  4.014103  0.0  -0.086646  -0.118134  0.00353  3.97655  0.002
C  C54  1  0.66837152  0.41043369  0.09124997  1  -0.098123  0.026675  3.745562  0.018  -0.075819  0.00032  -0.116752  0.000681  3.990652  0.0  -0.119284  -0.000408  4.013211  -0.001  -0.086251  -0.116263  0.004368  3.975696  0.003
C  C55  1  0.16915599  0.08978432  0.40896181  1  -0.100106  0.026949  3.746961  0.018  -0.147491  0.001201  -0.119004  0.00153  3.991436  0.001  -0.121367  -0.000363  4.013775  -0.001  -0.086639  -0.118122  0.003529  3.976401  0.002
C  C56  1  0.53066365  0.59257967  0.82960182  1  -0.07331  -0.009416  3.783271  -0.014  -0.026765  -0.000594  -0.085424  4.2e-05  4.028472  -0.001  -0.086956  0.000391  4.047084  0.0  -0.091859  -0.083724  0.000175  4.016712  -0.001
C  C57  1  0.95309782  0.90728630  0.67041057  1  -0.071156  -0.008964  3.785015  -0.013  -0.00305  -0.000451  -0.083226  0.000231  4.030049  -0.001  -0.084573  0.000347  4.048452  0.0  -0.091029  -0.081503  0.000399  4.018132  -0.001
C  C58  1  0.46936518  0.40742227  0.17039746  1  -0.073226  -0.009419  3.783469  -0.014  -0.026921  -0.000598  -0.08533  3.9e-05  4.028692  -0.001  -0.086874  0.000395  4.047272  0.0  -0.091854  -0.083627  0.000174  4.016924  -0.001
C  C59  1  0.04685739  0.09271728  0.32958467  1  -0.071164  -0.008953  3.784751  -0.013  -0.003845  -0.000456  -0.083281  0.000228  4.029755  -0.001  -0.08459  0.000371  4.048004  0.0  -0.091046  -0.081567  0.000397  4.017875  -0.001
C  C60  1  0.70834951  0.66017889  0.81746481  1  -0.049221  0.025702  3.750133  0.017  -0.0378  0.001418  -0.060166  0.002152  3.993555  0.001  -0.059245  0.000137  4.011037  0.0  -0.085704  -0.060924  0.004974  3.981676  0.002
C  C61  1  0.18612906  0.84001928  0.68259973  1  -0.050322  0.025046  3.751685  0.016  0.017643  0.001651  -0.060797  0.002433  3.995589  0.001  -0.059888  0.000268  4.012528  0.0  -0.086648  -0.061574  0.004759  3.983271  0.002
C  C62  1  0.29166882  0.33982718  0.18254050  1  -0.049144  0.025723  3.750102  0.017  -0.037538  0.001422  -0.060167  0.002156  3.993517  0.001  -0.059216  0.00012  4.011078  0.0  -0.085711  -0.060929  0.004993  3.981635  0.002
C  C63  1  0.81381591  0.15998678  0.31738589  1  -0.049845  0.025054  3.751403  0.016  0.017702  0.001651  -0.060339  0.002434  3.995334  0.001  -0.059352  0.000215  4.012218  0.0  -0.086564  -0.061132  0.004765  3.983019  0.002
C  C64  1  0.68322879  0.72450196  0.88378016  1  -0.159309  -0.010059  3.733903  -0.014  -0.032928  -0.004702  -0.178675  -0.002538  3.987349  -0.004  -0.183855  -0.000873  4.009138  -0.002  -0.093528  -0.17723  -0.001967  3.977231  -0.003
C  C65  1  0.29207597  0.77592199  0.61615549  1  -0.161759  -0.009364  3.738873  -0.013  -0.048293  -0.004233  -0.181148  -0.002236  3.99256  -0.003  -0.185752  -0.000828  4.013638  -0.002  -0.093648  -0.179023  -0.001813  3.981802  -0.003
C  C66  1  0.31680454  0.27550080  0.11621772  1  -0.159542  -0.010064  3.734122  -0.014  -0.032928  -0.004712  -0.178887  -0.002541  3.987553  -0.004  -0.184068  -0.000904  4.009272  -0.002  -0.093619  -0.177447  -0.001966  3.977458  -0.003
C  C67  1  0.70787151  0.22408490  0.38383257  1  -0.161944  -0.009343  3.73891  -0.013  -0.047443  -0.004238  -0.181284  -0.002241  3.99271  -0.003  -0.185882  -0.000891  4.013607  -0.002  -0.093699  -0.179147  -0.001805  3.98194  -0.003
C  C68  1  0.48073413  0.72276858  0.96545366  1  0.187564  0.023241  3.732809  0.017  0.365104  0.004581  0.187029  0.005518  3.961771  0.002  0.19224  0.002954  3.98443  0.0  0.102264  0.183132  0.004888  3.948209  0.002
C  C69  1  0.16999157  0.77745889  0.53433968  1  0.187731  0.02258  3.737388  0.016  0.417128  0.004782  0.187258  0.005653  3.965416  0.002  0.192262  0.003287  3.98797  0.001  0.1018  0.183117  0.005238  3.951716  0.002
C  C70  1  0.51929788  0.27723585  0.03454448  1  0.187443  0.023247  3.733014  0.017  0.367758  0.004578  0.18691  0.005516  3.961874  0.002  0.192132  0.002907  3.984546  0.0  0.102193  0.183018  0.004896  3.948325  0.002
C  C71  1  0.82995267  0.22254717  0.46564668  1  0.187834  0.022597  3.737138  0.016  0.417134  0.004786  0.187298  0.005655  3.965337  0.002  0.192285  0.003183  3.987914  0.0  0.101933  0.183144  0.005252  3.951613  0.002
S  S72  1  0.39502437  0.03542991  0.85981270  1  -0.255622  -0.044383  2.726751  -0.089  0.006977  -0.041995  -0.272261  -0.01287  3.173372  -0.043  -0.302861  0.00231  3.151532  -0.02  -0.134287  -0.232029  -0.051862  3.158038  -0.075
S  S73  1  0.29011466  0.46438915  0.63979898  1  -0.254842  -0.045216  2.726177  -0.089  0.002268  -0.045462  -0.269977  -0.015313  3.171932  -0.045  -0.302007  0.000862  3.151548  -0.02  -0.13388  -0.23174  -0.052191  3.158546  -0.074
S  S74  1  0.60506919  0.96455546  0.14017982  1  -0.255744  -0.044398  2.726333  -0.089  0.007178  -0.04202  -0.272371  -0.012873  3.172939  -0.043  -0.303186  0.002664  3.15127  -0.019  -0.134311  -0.232159  -0.051887  3.157642  -0.075
S  S75  1  0.70990444  0.53562357  0.36020313  1  -0.254728  -0.045166  2.727105  -0.089  0.002444  -0.045401  -0.269883  -0.015267  3.172905  -0.045  -0.302391  0.001632  3.152926  -0.02  -0.133903  -0.231679  -0.052151  3.159599  -0.074
N  N76  1  0.94713133  0.94838821  0.91381928  1  -0.463324  -0.044259  3.16346  -0.067  -1.315309  -0.043802  -0.42126  -0.02212  3.48237  -0.023  -0.451544  -0.015017  3.510392  -0.023  -0.4048  -0.405022  -0.032577  3.478107  -0.038
N  N77  1  0.80936275  0.55150563  0.58617448  1  -0.463957  -0.045062  3.165202  -0.069  -1.314964  -0.045307  -0.421935  -0.022971  3.484476  -0.025  -0.452748  -0.015239  3.513467  -0.023  -0.405665  -0.406217  -0.032963  3.481232  -0.039
N  N78  1  0.05293766  0.05161042  0.08616926  1  -0.463858  -0.044225  3.163883  -0.067  -1.316671  -0.043802  -0.421779  -0.022116  3.482768  -0.023  -0.45226  -0.014992  3.51083  -0.023  -0.405072  -0.40558  -0.032566  3.478596  -0.038
N  N79  1  0.19066650  0.44846312  0.41384197  1  -0.463897  -0.045169  3.16378  -0.069  -1.314909  -0.045378  -0.421987  -0.022988  3.48308  -0.025  -0.452985  -0.015199  3.511983  -0.023  -0.405657  -0.406156  -0.033002  3.479829  -0.039
N  N80  1  0.45799095  0.78867101  0.03050134  1  -0.326595  -0.028778  3.339848  -0.046  -1.226955  -0.027578  -0.251966  -0.015009  3.611262  -0.018  -0.266628  -0.010762  3.609276  -0.006  -0.347452  -0.244239  -0.016992  3.606105  -0.02
N  N81  1  0.27855099  0.71164969  0.46928365  1  -0.326402  -0.027909  3.341746  -0.044  -1.223526  -0.026353  -0.251974  -0.014321  3.613494  -0.017  -0.266016  -0.01049  3.611225  -0.006  -0.34762  -0.243411  -0.016319  3.607786  -0.019
N  N82  1  0.54206147  0.21133176  0.96949750  1  -0.326407  -0.028775  3.339725  -0.046  -1.227008  -0.027579  -0.251688  -0.015011  3.610991  -0.018  -0.2664  -0.010715  3.609038  -0.006  -0.347338  -0.243997  -0.016993  3.605865  -0.02
N  N83  1  0.72138219  0.28834807  0.53071180  1  -0.326891  -0.027912  3.341836  -0.044  -1.222581  -0.026364  -0.252347  -0.014338  3.613513  -0.017  -0.26626  -0.010381  3.610999  -0.006  -0.347692  -0.243688  -0.016341  3.607725  -0.019
