# generated using pymatgen
data_CoH18C26N4O5
_symmetry_space_group_name_H-M   'P 1'
_cell_length_a   11.90897849
_cell_length_b   12.14511692
_cell_length_c   16.76374878
_cell_angle_alpha   89.99967979
_cell_angle_beta   89.99979919
_cell_angle_gamma   99.69408044
_symmetry_Int_Tables_number   1
_chemical_formula_structural   CoH18C26N4O5
_chemical_formula_sum   'Co4 H72 C104 N16 O20'
_cell_volume   2390.01874464
_cell_formula_units_Z   4
loop_
 _symmetry_equiv_pos_site_id
 _symmetry_equiv_pos_as_xyz
  1  'x, y, z'
loop_
 _atom_site_type_symbol
 _atom_site_label
 _atom_site_symmetry_multiplicity
 _atom_site_fract_x
 _atom_site_fract_y
 _atom_site_fract_z
 _atom_site_occupancy
 _atom_site_pbe_bader_charge
 _atom_site_pbe_bader_spin_density
 _atom_site_pbe_cm5_charge
 _atom_site_pbe_ddec_charge
 _atom_site_pbe_ddec_spin_density
 _atom_site_pbe_ddec_sum_bond_order
 _atom_site_pbe_magmom
Co  Co0  1  0.09279981  0.88559606  0.05917768  1  1.282098  -2.590004  0.669918  0.857753  -2.84075  2.52474  -2.57
Co  Co1  1  0.90720069  0.61440816  0.55917214  1  1.281874  -2.589999  0.669946  0.857842  -2.84073  2.524733  -2.57
Co  Co2  1  0.90720615  0.11440586  0.94082639  1  1.281974  -2.590068  0.669974  0.857853  -2.840845  2.524828  -2.57
Co  Co3  1  0.09279266  0.38559368  0.44082835  1  1.281921  -2.590086  0.669944  0.857832  -2.840869  2.524822  -2.57
H  H4  1  0.20105036  0.16482428  0.81081151  1  0.085898  -0.000163  0.100757  0.100469  -5e-06  1.027642  0.0
H  H5  1  0.79895250  0.33518566  0.31080294  1  0.085999  -0.000163  0.10068  0.10046  -5e-06  1.027728  0.0
H  H6  1  0.79895391  0.83518263  0.18919136  1  0.086157  -0.000163  0.100765  0.100483  -6e-06  1.027715  0.0
H  H7  1  0.20105583  0.66482545  0.68919397  1  0.085957  -0.000163  0.10078  0.100535  -6e-06  1.027618  0.0
H  H8  1  0.39377645  0.19199209  0.74729142  1  0.080118  -9.8e-05  0.104389  0.119657  -2.4e-05  1.019401  0.0
H  H9  1  0.60621589  0.30801837  0.24729417  1  0.080223  -9.8e-05  0.104344  0.119693  -2.4e-05  1.019295  0.0
H  H10  1  0.60623005  0.80801816  0.25271385  1  0.080284  -9.9e-05  0.104391  0.119695  -2.4e-05  1.019451  0.0
H  H11  1  0.39378937  0.69198438  0.75270512  1  0.080121  -9.9e-05  0.104328  0.119688  -2.4e-05  1.019385  0.0
H  H12  1  0.43443267  0.86224597  0.82388930  1  0.07771  -0.000109  0.100817  0.11108  -1.9e-05  1.052357  0.0
H  H13  1  0.56556248  0.63775410  0.32390474  1  0.077727  -0.000109  0.100832  0.111238  -1.9e-05  1.052389  0.0
H  H14  1  0.56557468  0.13775928  0.17611178  1  0.077822  -0.000109  0.100769  0.111028  -1.9e-05  1.052404  0.0
H  H15  1  0.43442347  0.36223851  0.67610112  1  0.077897  -0.000109  0.100822  0.111201  -1.9e-05  1.052484  0.0
H  H16  1  0.24553989  0.83771952  0.88941193  1  0.109237  -9e-06  0.10783  0.118161  0.000118  1.000973  0.0
H  H17  1  0.75446435  0.66228668  0.38941427  1  0.109177  -9e-06  0.107813  0.118078  0.000118  1.000931  0.0
H  H18  1  0.75446676  0.16228656  0.11058916  1  0.10912  -9e-06  0.107825  0.118121  0.000118  1.001044  0.0
H  H19  1  0.24552745  0.33772099  0.61058622  1  0.109156  -9e-06  0.107817  0.118087  0.000118  1.001018  0.0
H  H20  1  0.74138502  0.03921791  0.78074620  1  0.154357  8.9e-05  0.107128  0.135912  0.00035  1.042946  0.0
H  H21  1  0.25859706  0.46076715  0.28074925  1  0.154078  8.9e-05  0.107231  0.136048  0.00035  1.043151  0.0
H  H22  1  0.25861227  0.96077227  0.21926205  1  0.154386  8.9e-05  0.107129  0.13593  0.00035  1.042891  0.0
H  H23  1  0.74140261  0.53922722  0.71925065  1  0.15407  8.9e-05  0.107175  0.13591  0.00035  1.043009  0.0
H  H24  1  0.84706377  0.89193866  0.73051105  1  0.069433  -0.000107  0.106901  0.110187  1e-05  0.993021  0.0
H  H25  1  0.15292529  0.60804722  0.23051093  1  0.069346  -0.000107  0.106956  0.110185  1e-05  0.992909  0.0
H  H26  1  0.15293017  0.10804649  0.26949899  1  0.069563  -0.000106  0.106942  0.110232  1e-05  0.992949  0.0
H  H27  1  0.84707298  0.39194881  0.76949015  1  0.069383  -0.000106  0.106932  0.110182  1e-05  0.99299  0.0
H  H28  1  0.55195046  0.74359719  0.59661265  1  0.051773  -0.000222  0.10269  0.104662  -0.0001  1.009102  0.0
H  H29  1  0.44803891  0.75638659  0.09661362  1  0.052177  -0.000222  0.10253  0.10444  -0.0001  1.008861  0.0
H  H30  1  0.44804459  0.25639966  0.40339261  1  0.051868  -0.000222  0.1027  0.10472  -0.0001  1.008982  0.0
H  H31  1  0.55195657  0.24359774  0.90338210  1  0.051916  -0.000222  0.102619  0.104595  -0.0001  1.00883  0.0
H  H32  1  0.44231692  0.88429082  0.65246220  1  0.071512  2.3e-05  0.104992  0.11976  5.5e-05  1.012132  0.0
H  H33  1  0.55767052  0.61570328  0.15248073  1  0.071446  2.3e-05  0.105001  0.119848  5.5e-05  1.012199  0.0
H  H34  1  0.55767768  0.11571353  0.34753709  1  0.071594  2.3e-05  0.104984  0.119717  5.5e-05  1.012171  0.0
H  H35  1  0.44232537  0.38428355  0.84751678  1  0.071412  2.3e-05  0.105017  0.119833  5.5e-05  1.012179  0.0
H  H36  1  0.02149638  0.70237221  0.93423359  1  0.119277  -0.001527  0.122215  0.09928  -0.000364  0.977395  -0.001
H  H37  1  0.97850855  0.79763442  0.43422829  1  0.119318  -0.001528  0.122198  0.099217  -0.000364  0.977421  -0.001
H  H38  1  0.97851798  0.29763475  0.06577048  1  0.119404  -0.001526  0.122248  0.099276  -0.000364  0.977467  -0.001
H  H39  1  0.02148424  0.20236408  0.56577280  1  0.11933  -0.001528  0.122217  0.099241  -0.000365  0.977444  -0.001
H  H40  1  0.87805916  0.52635909  0.92169030  1  0.097007  -0.000846  0.108245  0.117063  -0.00039  1.003488  0.0
H  H41  1  0.12195062  0.97364601  0.42168708  1  0.096997  -0.000846  0.108237  0.117018  -0.00039  1.003459  0.0
H  H42  1  0.12195520  0.47364788  0.07830661  1  0.096701  -0.000845  0.108258  0.117038  -0.00039  1.003385  0.0
H  H43  1  0.87805395  0.02634754  0.57830983  1  0.096611  -0.000846  0.108269  0.117072  -0.00039  1.00353  0.0
H  H44  1  0.78644101  0.57063287  0.16772294  1  0.103327  -0.000686  0.10738  0.117255  -0.000314  1.026168  0.0
H  H45  1  0.21355698  0.92936449  0.66772092  1  0.103376  -0.000686  0.107417  0.117305  -0.000314  1.026116  0.0
H  H46  1  0.21355724  0.42936816  0.83227517  1  0.103207  -0.000686  0.10736  0.117219  -0.000314  1.026202  0.0
H  H47  1  0.78644479  0.07063239  0.33227778  1  0.103282  -0.000686  0.107389  0.117223  -0.000314  1.026234  0.0
H  H48  1  0.93937241  0.74098675  0.17052907  1  0.116038  -0.001601  0.121431  0.098083  -0.000485  0.995368  -0.001
H  H49  1  0.06062416  0.75901224  0.67052630  1  0.115913  -0.001601  0.121405  0.098085  -0.000485  0.995365  -0.001
H  H50  1  0.06062753  0.25901429  0.82947440  1  0.116122  -0.0016  0.121425  0.098131  -0.000484  0.995401  -0.001
H  H51  1  0.93936877  0.24099210  0.32947478  1  0.116117  -0.001601  0.121358  0.098071  -0.000485  0.995265  -0.001
H  H52  1  0.72858515  0.38644380  0.98170776  1  0.14553  -0.000247  0.112813  0.089126  -0.000188  1.055543  0.0
H  H53  1  0.27141211  0.11356287  0.48170912  1  0.145753  -0.000247  0.112798  0.089098  -0.000188  1.055449  0.0
H  H54  1  0.27140535  0.61358640  0.01827066  1  0.146004  -0.000246  0.11277  0.089013  -0.000187  1.055308  0.0
H  H55  1  0.72859120  0.88642818  0.51828362  1  0.14565  -0.000246  0.11284  0.089172  -0.000187  1.055505  0.0
H  H56  1  0.43787634  0.41046659  0.08387788  1  0.090284  0.000201  0.112907  0.080596  0.000125  1.012801  0.0
H  H57  1  0.56211721  0.08953620  0.58386256  1  0.090178  0.0002  0.112962  0.080667  0.000125  1.012775  0.0
H  H58  1  0.56212472  0.58953613  0.91611426  1  0.090165  0.0002  0.112989  0.080722  0.000125  1.012764  0.0
H  H59  1  0.43787670  0.91046397  0.41613137  1  0.090382  0.000201  0.112931  0.080591  0.000125  1.01284  0.0
H  H60  1  0.49208268  0.12237451  0.02423299  1  0.111367  -0.000684  0.10919  0.115609  -0.00034  1.018558  0.0
H  H61  1  0.50791391  0.37762968  0.52423103  1  0.111275  -0.000684  0.109207  0.115701  -0.00034  1.01849  0.0
H  H62  1  0.50791824  0.87762236  0.97575855  1  0.111345  -0.000684  0.109188  0.115569  -0.000341  1.018529  0.0
H  H63  1  0.49208112  0.62237217  0.47576708  1  0.111413  -0.000684  0.109164  0.115544  -0.00034  1.018472  0.0
H  H64  1  0.33797607  0.95391106  0.02050809  1  0.132796  -0.001285  0.1152  0.092131  -0.000233  1.035318  -0.001
H  H65  1  0.66202104  0.54609182  0.52050760  1  0.132637  -0.001284  0.115275  0.092215  -0.000232  1.035471  -0.001
H  H66  1  0.66202134  0.04608996  0.97949002  1  0.132787  -0.001285  0.115216  0.092149  -0.000232  1.035349  -0.001
H  H67  1  0.33797469  0.45390920  0.47949051  1  0.132792  -0.001285  0.115175  0.092117  -0.000233  1.035307  -0.001
H  H68  1  0.10023161  0.13229897  0.11076482  1  0.124028  -0.001529  0.117786  0.091686  -0.000309  1.033484  -0.001
H  H69  1  0.89977592  0.36770282  0.61074700  1  0.123804  -0.001528  0.117776  0.091609  -0.000309  1.033656  -0.001
H  H70  1  0.89977589  0.86770212  0.88925058  1  0.123726  -0.001528  0.11781  0.09165  -0.000309  1.033622  -0.001
H  H71  1  0.10022640  0.63229740  0.38924275  1  0.123888  -0.001529  0.11777  0.091636  -0.000309  1.033566  -0.001
H  H72  1  0.24351317  0.30627202  0.12147254  1  0.089123  -0.000834  0.107756  0.116709  -0.00043  1.005145  0.0
H  H73  1  0.75648952  0.19373132  0.62145991  1  0.089569  -0.000834  0.107845  0.116831  -0.00043  1.005201  0.0
H  H74  1  0.75649531  0.69372991  0.87852855  1  0.089517  -0.000834  0.107775  0.116703  -0.00043  1.005156  0.0
H  H75  1  0.24350733  0.80627138  0.37853282  1  0.089185  -0.000834  0.107801  0.116749  -0.00043  1.005195  0.0
C  C76  1  0.09818327  0.98746680  0.89487003  1  1.55  -0.008562  0.218075  0.585586  -0.006315  4.164783  -0.007
C  C77  1  0.90181995  0.51254352  0.39486363  1  1.549535  -0.008561  0.218045  0.585495  -0.006315  4.164876  -0.007
C  C78  1  0.90182310  0.01253762  0.10513583  1  1.549517  -0.008568  0.217987  0.585429  -0.00632  4.164856  -0.007
C  C79  1  0.09817676  0.48746335  0.60513627  1  1.549996  -0.00857  0.218095  0.58559  -0.006321  4.164745  -0.007
C  C80  1  0.20965481  0.99920556  0.85314233  1  -0.011911  -0.007976  -0.033825  -0.077479  -0.004074  4.017252  -0.006
C  C81  1  0.79034602  0.50080429  0.35313863  1  -0.012402  -0.00798  -0.033816  -0.077461  -0.004076  4.017206  -0.006
C  C82  1  0.79035198  0.00080136  0.14685876  1  -0.011747  -0.007972  -0.033774  -0.077385  -0.004072  4.017213  -0.006
C  C83  1  0.20965040  0.49920591  0.64685708  1  -0.011862  -0.007975  -0.03388  -0.077487  -0.004074  4.017058  -0.006
C  C84  1  0.25260460  0.09902298  0.81311058  1  -0.087133  -0.001268  -0.083668  -0.063973  -0.000378  3.983087  -0.001
C  C85  1  0.74738984  0.40098187  0.31311084  1  -0.086504  -0.001266  -0.083667  -0.064053  -0.000376  3.983165  -0.001
C  C86  1  0.74739939  0.90098225  0.18689110  1  -0.0873  -0.00127  -0.08367  -0.063955  -0.000379  3.982972  -0.001
C  C87  1  0.25261134  0.59902669  0.68688548  1  -0.087045  -0.00127  -0.08373  -0.06406  -0.000379  3.982826  -0.001
C  C88  1  0.35945719  0.11473593  0.77799297  1  0.040814  -0.000564  -0.103108  -0.199834  -0.000236  4.01149  0.0
C  C89  1  0.64053383  0.38527257  0.27799714  1  0.040909  -0.000565  -0.103021  -0.199803  -0.000236  4.0115  0.0
C  C90  1  0.64054497  0.88527347  0.22201229  1  0.040715  -0.000564  -0.103101  -0.199941  -0.000235  4.011487  0.0
C  C91  1  0.35946666  0.61473182  0.72200395  1  0.04082  -0.000564  -0.103016  -0.199819  -0.000236  4.011393  0.0
C  C92  1  0.42439086  0.02893883  0.78133002  1  0.395582  -0.000754  0.088854  0.267589  -0.000355  4.039696  0.0
C  C93  1  0.57559791  0.47106128  0.28134177  1  0.395019  -0.000751  0.08872  0.267279  -0.000353  4.039871  0.0
C  C94  1  0.57561075  0.97106723  0.21867107  1  0.395623  -0.000756  0.088742  0.267652  -0.000356  4.039816  0.0
C  C95  1  0.42439741  0.52893723  0.71865991  1  0.395407  -0.000755  0.088794  0.267448  -0.000355  4.040034  0.0
C  C96  1  0.38289399  0.92812581  0.82011503  1  -0.057637  -0.000357  -0.110117  -0.226703  -0.000159  4.013746  0.0
C  C97  1  0.61709685  0.57187345  0.32012462  1  -0.057037  -0.000358  -0.110254  -0.227031  -0.000159  4.01403  0.0
C  C98  1  0.61711253  0.07187945  0.17988725  1  -0.057753  -0.000356  -0.110028  -0.226604  -0.000158  4.013849  0.0
C  C99  1  0.38289231  0.42812336  0.67987706  1  -0.057583  -0.000357  -0.110268  -0.226979  -0.000159  4.014078  0.0
C  C100  1  0.27619692  0.91423044  0.85640242  1  -0.004261  -0.001404  -0.08339  -0.070185  -0.000619  3.979666  -0.001
C  C101  1  0.72379368  0.58577348  0.35641109  1  -0.004511  -0.001401  -0.083346  -0.069954  -0.000618  3.979425  -0.001
C  C102  1  0.72380567  0.08577645  0.14359688  1  -0.00443  -0.001406  -0.083419  -0.070217  -0.00062  3.979839  -0.001
C  C103  1  0.27619337  0.41423083  0.64359298  1  -0.004203  -0.001406  -0.083267  -0.069965  -0.000621  3.979459  -0.001
C  C104  1  0.58557785  0.96723723  0.72127463  1  0.394647  -0.000912  0.08069  0.248551  -0.000471  4.051963  -0.001
C  C105  1  0.41440985  0.53275540  0.22128429  1  0.3953  -0.000911  0.080643  0.248545  -0.000471  4.05189  -0.001
C  C106  1  0.41442153  0.03276047  0.27872764  1  0.394898  -0.00091  0.08069  0.248489  -0.00047  4.05223  -0.001
C  C107  1  0.58558758  0.46723561  0.77871262  1  0.395308  -0.000912  0.080738  0.24861  -0.000471  4.051658  -0.001
C  C108  1  0.69956353  0.97217137  0.74244397  1  -0.039205  -0.000197  -0.102604  -0.196112  -2.9e-05  3.973927  0.0
C  C109  1  0.30042111  0.52781354  0.24245334  1  -0.04015  -0.000197  -0.102734  -0.196388  -2.8e-05  3.974101  0.0
C  C110  1  0.30043614  0.02781799  0.25756308  1  -0.039861  -0.000197  -0.102534  -0.196037  -2.9e-05  3.973774  0.0
C  C111  1  0.69957240  0.47217912  0.75754894  1  -0.039582  -0.000197  -0.102673  -0.196135  -2.9e-05  3.973801  0.0
C  C112  1  0.75854631  0.89089847  0.71344338  1  0.005725  -0.001374  -0.083823  -0.079844  -0.000561  3.995256  -0.001
C  C113  1  0.24144120  0.60907754  0.21344960  1  0.006163  -0.001373  -0.08389  -0.079582  -0.000561  3.995044  -0.001
C  C114  1  0.24144679  0.10909168  0.28656248  1  0.006105  -0.001373  -0.083924  -0.079908  -0.000561  3.995094  -0.001
C  C115  1  0.75855778  0.39091264  0.78655686  1  0.005909  -0.001374  -0.083832  -0.079693  -0.000561  3.99519  -0.001
C  C116  1  0.70585449  0.80807267  0.66120350  1  -0.054803  -0.0021  -0.025718  -0.051227  -0.001147  4.009343  -0.001
C  C117  1  0.29413642  0.69191219  0.16120509  1  -0.054312  -0.0021  -0.025508  -0.051076  -0.001148  4.009252  -0.001
C  C118  1  0.29413748  0.19191581  0.33880296  1  -0.054137  -0.002099  -0.025709  -0.051185  -0.001147  4.009383  -0.001
C  C119  1  0.70586312  0.30807633  0.83878943  1  -0.05467  -0.0021  -0.025652  -0.051203  -0.001147  4.009223  -0.001
C  C120  1  0.59216518  0.80651828  0.63867050  1  0.046319  -0.001447  -0.085059  -0.075992  -0.000677  3.989791  -0.001
C  C121  1  0.40782237  0.69347094  0.13867598  1  0.046012  -0.001448  -0.085143  -0.076028  -0.000678  3.989308  -0.001
C  C122  1  0.40783113  0.19347607  0.36133476  1  0.045759  -0.001447  -0.08511  -0.076228  -0.000677  3.989877  -0.001
C  C123  1  0.59217045  0.30651754  0.86132272  1  0.045976  -0.001448  -0.085152  -0.076187  -0.000678  3.989379  -0.001
C  C124  1  0.53086994  0.88495319  0.66934256  1  -0.072001  -8.4e-05  -0.103884  -0.213935  5.3e-05  4.016092  0.0
C  C125  1  0.46911924  0.61503159  0.16935714  1  -0.072111  -8.3e-05  -0.103847  -0.214119  5.3e-05  4.016096  0.0
C  C126  1  0.46912846  0.11504868  0.33066091  1  -0.072079  -8.4e-05  -0.103935  -0.213811  5.3e-05  4.016138  0.0
C  C127  1  0.53087751  0.38495024  0.83064216  1  -0.071939  -8.4e-05  -0.103901  -0.214003  5.3e-05  4.016023  0.0
C  C128  1  0.77408444  0.72853661  0.62593699  1  1.530667  0.004215  0.194581  0.545854  0.005537  4.220073  0.005
C  C129  1  0.22591158  0.77145778  0.12593965  1  1.530469  0.004214  0.194625  0.545921  0.005535  4.219956  0.005
C  C130  1  0.22591452  0.27145858  0.37407006  1  1.529689  0.004218  0.194638  0.545919  0.005535  4.220316  0.005
C  C131  1  0.77408766  0.22853908  0.87406025  1  1.530661  0.004214  0.19454  0.545847  0.005535  4.220152  0.005
C  C132  1  0.96790191  0.66958764  0.98444736  1  0.461357  0.010058  0.048611  0.096888  0.010615  3.95154  0.006
C  C133  1  0.03210158  0.83041685  0.48444551  1  0.461525  0.010058  0.048668  0.096965  0.010615  3.951374  0.006
C  C134  1  0.03210727  0.33041846  0.01555552  1  0.461403  0.010062  0.04862  0.096902  0.010619  3.951103  0.006
C  C135  1  0.96789542  0.16958168  0.51555677  1  0.461518  0.010061  0.048595  0.096925  0.010618  3.95131  0.006
C  C136  1  0.88775074  0.57246929  0.97785425  1  -0.062025  -0.005229  -0.082713  -0.179182  -0.002281  3.956062  -0.004
C  C137  1  0.11225699  0.92753528  0.47785302  1  -0.062356  -0.005229  -0.08276  -0.179246  -0.002281  3.955902  -0.004
C  C138  1  0.11226361  0.42753767  0.02214147  1  -0.062158  -0.005229  -0.082825  -0.179279  -0.00228  3.955826  -0.004
C  C139  1  0.88774562  0.07245660  0.52214627  1  -0.062113  -0.005231  -0.082833  -0.179391  -0.002282  3.956034  -0.004
C  C140  1  0.81748589  0.53617065  0.04324424  1  0.02688  0.012722  0.003161  0.105344  0.013257  4.037665  0.008
C  C141  1  0.18251891  0.96383373  0.54324218  1  0.026992  0.012719  0.003172  0.10539  0.013254  4.038027  0.008
C  C142  1  0.18251977  0.46383960  0.95675147  1  0.027152  0.012726  0.003131  0.105199  0.013261  4.037773  0.008
C  C143  1  0.81748706  0.03615817  0.45675294  1  0.027893  0.012726  0.003134  0.105337  0.013262  4.037828  0.008
C  C144  1  0.83672154  0.59733372  0.11466130  1  -0.044757  -0.004836  -0.082176  -0.168558  -0.002258  3.927582  -0.004
C  C145  1  0.16327973  0.90266665  0.61465833  1  -0.044752  -0.004835  -0.082209  -0.168588  -0.002257  3.927859  -0.004
C  C146  1  0.16328105  0.40266817  0.88533620  1  -0.044666  -0.004835  -0.082099  -0.168348  -0.002257  3.927501  -0.004
C  C147  1  0.83672260  0.09732856  0.38533799  1  -0.045472  -0.004834  -0.082154  -0.16845  -0.002257  3.927618  -0.004
C  C148  1  0.92026657  0.69168257  0.11647863  1  0.441879  0.007659  0.044682  0.090672  0.008069  3.951547  0.005
C  C149  1  0.07973608  0.80832113  0.61647801  1  0.441918  0.007658  0.044559  0.090418  0.008068  3.951617  0.005
C  C150  1  0.07973700  0.30832016  0.88352126  1  0.441725  0.00766  0.04457  0.09037  0.00807  3.951609  0.005
C  C151  1  0.92026218  0.19167990  0.38352486  1  0.442409  0.007659  0.044565  0.090425  0.008069  3.95143  0.005
C  C152  1  0.72834319  0.43893172  0.03477508  1  0.597431  -1.1e-05  0.065887  0.016923  0.000908  3.919846  -0.001
C  C153  1  0.27165879  0.06107491  0.53477730  1  0.596861  -1.1e-05  0.065921  0.016971  0.000908  3.919877  -0.001
C  C154  1  0.27166331  0.56107854  0.96520990  1  0.594911  -5e-06  0.066028  0.017287  0.000911  3.919906  -0.001
C  C155  1  0.72834789  0.93891615  0.46522498  1  0.594458  -7e-06  0.065852  0.016983  0.000909  3.919668  -0.001
C  C156  1  0.46650225  0.32932903  0.07923405  1  0.624446  0.000255  0.070319  0.021482  0.00115  3.931141  -0.001
C  C157  1  0.53349694  0.17067217  0.57922804  1  0.624602  0.000252  0.070388  0.021472  0.001147  3.930781  -0.001
C  C158  1  0.53349966  0.67066869  0.92076167  1  0.624451  0.000256  0.070244  0.021308  0.001151  3.931122  -0.001
C  C159  1  0.46650159  0.82933053  0.42077066  1  0.624477  0.000258  0.070311  0.021507  0.001153  3.93097  -0.001
C  C160  1  0.38070618  0.22884379  0.07362343  1  -0.043439  0.014215  0.004555  0.105836  0.014773  4.033467  0.009
C  C161  1  0.61929332  0.27115913  0.57361921  1  -0.043777  0.014219  0.004499  0.105815  0.014777  4.033469  0.009
C  C162  1  0.61929432  0.77115558  0.92636990  1  -0.043427  0.014226  0.00451  0.105949  0.014784  4.033346  0.009
C  C163  1  0.38070619  0.72884442  0.42638009  1  -0.043568  0.01422  0.004524  0.105751  0.014778  4.033458  0.009
C  C164  1  0.40627410  0.12722448  0.04477682  1  -0.015457  -0.004828  -0.081629  -0.166788  -0.002212  3.940963  -0.004
C  C165  1  0.59372544  0.37278288  0.54477168  1  -0.015591  -0.00483  -0.08162  -0.1668  -0.002213  3.940967  -0.004
C  C166  1  0.59372850  0.87277741  0.95521949  1  -0.015486  -0.004828  -0.081566  -0.1667  -0.002212  3.940917  -0.004
C  C167  1  0.40626805  0.62721980  0.45522463  1  -0.015565  -0.004828  -0.081634  -0.166764  -0.002212  3.940826  -0.004
C  C168  1  0.32141416  0.03410068  0.04218878  1  0.42992  0.009141  0.040051  0.089504  0.009454  3.94686  0.006
C  C169  1  0.67858498  0.46590420  0.54218248  1  0.430011  0.009142  0.039967  0.089429  0.009455  3.946947  0.006
C  C170  1  0.67858858  0.96589704  0.95781230  1  0.430113  0.009143  0.039991  0.089392  0.009457  3.946907  0.006
C  C171  1  0.32140571  0.53409679  0.45781324  1  0.430005  0.009142  0.040094  0.089598  0.009455  3.946681  0.006
C  C172  1  0.18815719  0.13309143  0.09300794  1  0.459657  0.010796  0.046897  0.100404  0.011498  3.941833  0.007
C  C173  1  0.81184681  0.36690883  0.59299631  1  0.459983  0.0108  0.04687  0.10051  0.011502  3.941573  0.007
C  C174  1  0.81185059  0.86690631  0.90700209  1  0.459864  0.010802  0.046884  0.100426  0.011505  3.941939  0.007
C  C175  1  0.18814894  0.63308718  0.40700060  1  0.459989  0.010799  0.046942  0.100497  0.011501  3.941687  0.007
C  C176  1  0.26823464  0.23039296  0.09754483  1  -0.016555  -0.005469  -0.078704  -0.160964  -0.002456  3.92489  -0.004
C  C177  1  0.73176695  0.26960808  0.59753377  1  -0.016534  -0.005472  -0.0788  -0.161169  -0.002457  3.924921  -0.004
C  C178  1  0.73177105  0.76960728  0.90245984  1  -0.016953  -0.005472  -0.078688  -0.160948  -0.002457  3.924804  -0.004
C  C179  1  0.26823145  0.73038878  0.40246076  1  -0.016723  -0.005472  -0.078749  -0.161016  -0.002457  3.924722  -0.004
N  N180  1  0.98311936  0.73002139  0.05196785  1  -1.203141  -0.049765  -0.323471  -0.235855  -0.026659  3.561616  -0.046
N  N181  1  0.01688301  0.76998373  0.55196336  1  -1.202784  -0.049752  -0.323385  -0.235642  -0.026658  3.561347  -0.046
N  N182  1  0.01688380  0.26997883  0.94803622  1  -1.202678  -0.049755  -0.323369  -0.235611  -0.02666  3.561076  -0.046
N  N183  1  0.98311552  0.23001897  0.44804011  1  -1.202673  -0.049759  -0.323292  -0.235579  -0.026661  3.561225  -0.046
N  N184  1  0.65008083  0.41591482  0.08850783  1  -0.735096  0.012062  -0.184285  -0.121656  0.012482  3.416089  0.009
N  N185  1  0.34991464  0.08409462  0.58850858  1  -0.734703  0.012059  -0.184185  -0.121559  0.012479  3.415949  0.009
N  N186  1  0.34992037  0.58408373  0.91148371  1  -0.733109  0.01206  -0.184374  -0.121825  0.012481  3.416415  0.009
N  N187  1  0.65007830  0.91590471  0.41148893  1  -0.732896  0.012072  -0.184145  -0.121586  0.012494  3.415657  0.009
N  N188  1  0.57337721  0.32182536  0.07910209  1  -0.73087  0.012437  -0.180187  -0.109006  0.012879  3.412996  0.009
N  N189  1  0.42661636  0.17818248  0.57910408  1  -0.730955  0.012442  -0.180293  -0.109031  0.012884  3.412558  0.009
N  N190  1  0.42662439  0.67818070  0.92088945  1  -0.730835  0.012446  -0.180203  -0.109049  0.012888  3.412763  0.009
N  N191  1  0.57337517  0.82181852  0.42089581  1  -0.730983  0.012444  -0.18024  -0.109043  0.012886  3.412771  0.009
N  N192  1  0.21300172  0.03544187  0.06607737  1  -1.207433  -0.046637  -0.323723  -0.258862  -0.024284  3.570809  -0.046
N  N193  1  0.78700147  0.46456281  0.56606900  1  -1.207354  -0.046639  -0.323735  -0.25897  -0.024284  3.570389  -0.046
N  N194  1  0.78700578  0.96455922  0.93392730  1  -1.207415  -0.046635  -0.323785  -0.258903  -0.024283  3.570637  -0.046
N  N195  1  0.21299595  0.53543822  0.43392492  1  -1.20759  -0.046636  -0.323761  -0.258964  -0.024284  3.570674  -0.046
O  O196  1  0.07177263  0.90602730  0.94412293  1  -1.177477  -0.099745  -0.320112  -0.577476  -0.051233  2.475045  -0.081
O  O197  1  0.92823140  0.59397923  0.44411853  1  -1.177132  -0.099751  -0.320108  -0.577463  -0.051235  2.47527  -0.081
O  O198  1  0.92824256  0.09398468  0.05588233  1  -1.177131  -0.09976  -0.320105  -0.577492  -0.051239  2.474925  -0.081
O  O199  1  0.07176279  0.40602261  0.55588017  1  -1.17755  -0.099758  -0.320108  -0.577493  -0.051238  2.475093  -0.081
O  O200  1  0.03315356  0.05791917  0.87960263  1  -1.14862  -0.094925  -0.303968  -0.535095  -0.050048  2.379868  -0.079
O  O201  1  0.96683752  0.44207755  0.37960695  1  -1.148502  -0.094928  -0.303894  -0.535016  -0.050049  2.379769  -0.079
O  O202  1  0.96684245  0.94208352  0.12040204  1  -1.148625  -0.094904  -0.30388  -0.534984  -0.050035  2.379898  -0.079
O  O203  1  0.03315780  0.55792096  0.62039831  1  -1.148646  -0.094903  -0.303958  -0.53512  -0.050038  2.379839  -0.079
O  O204  1  0.53186081  0.05285006  0.74868917  1  -1.099536  -0.000697  -0.148747  -0.211202  -0.000322  2.584902  -0.001
O  O205  1  0.46812482  0.44714532  0.24871202  1  -1.099881  -0.000696  -0.148508  -0.210776  -0.000322  2.584615  -0.001
O  O206  1  0.46814206  0.94715350  0.25130834  1  -1.099547  -0.000697  -0.148677  -0.211244  -0.000322  2.585073  -0.001
O  O207  1  0.53187121  0.55284735  0.75129085  1  -1.099794  -0.000697  -0.148646  -0.211104  -0.000323  2.584786  -0.001
O  O208  1  0.76436233  0.70658588  0.55126281  1  -1.156548  -0.079073  -0.30969  -0.550635  -0.041213  2.24948  -0.068
O  O209  1  0.23563516  0.79341005  0.05126775  1  -1.156412  -0.07907  -0.309768  -0.550647  -0.041212  2.249323  -0.068
O  O210  1  0.23563285  0.29341180  0.44874424  1  -1.156587  -0.079068  -0.309798  -0.550726  -0.041213  2.249676  -0.068
O  O211  1  0.76436647  0.20658600  0.94873453  1  -1.156445  -0.079078  -0.309716  -0.550635  -0.041215  2.249276  -0.068
O  O212  1  0.84483565  0.68645853  0.66860643  1  -1.148345  -0.075695  -0.312038  -0.539229  -0.039363  2.199505  -0.065
O  O213  1  0.15516513  0.81354051  0.16860851  1  -1.148436  -0.075701  -0.312046  -0.539293  -0.039365  2.199554  -0.065
O  O214  1  0.15515912  0.31353163  0.33139943  1  -1.147668  -0.07571  -0.311967  -0.539214  -0.039367  2.199586  -0.065
O  O215  1  0.84483971  0.18645973  0.83139317  1  -1.148452  -0.075703  -0.312006  -0.539211  -0.039367  2.199658  -0.065
