# generated using pymatgen
data_Zr6H13C52S10N7O46
_symmetry_space_group_name_H-M   'P 1'
_cell_length_a   16.42544175
_cell_length_b   16.44305422
_cell_length_c   16.50696692
_cell_angle_alpha   61.85025875
_cell_angle_beta   59.86741418
_cell_angle_gamma   60.32576178
_symmetry_Int_Tables_number   1
_chemical_formula_structural   Zr6H13C52S10N7O46
_chemical_formula_sum   'Zr6 H13 C52 S10 N7 O46'
_cell_volume   3198.86842582
_cell_formula_units_Z   1
loop_
 _symmetry_equiv_pos_site_id
 _symmetry_equiv_pos_as_xyz
  1  'x, y, z'
loop_
 _atom_site_type_symbol
 _atom_site_label
 _atom_site_symmetry_multiplicity
 _atom_site_fract_x
 _atom_site_fract_y
 _atom_site_fract_z
 _atom_site_occupancy
 _atom_site_pbe_bader_charge
 _atom_site_pbe_bader_spin_density
 _atom_site_pbe_cm5_charge
 _atom_site_pbe_ddec_charge
 _atom_site_pbe_ddec_spin_density
 _atom_site_pbe_ddec_sum_bond_order
 _atom_site_pbe_magmom
Zr  Zr0  1  0.88788865  0.90177854  0.59644822  1  2.636345  0  1.632713  2.37387  0  2.78282  0
Zr  Zr1  1  0.11190029  0.10124447  0.39833863  1  2.635627  0  1.633237  2.37363  0  2.778638  0
Zr  Zr2  1  0.10100543  0.89377335  0.60777571  1  2.63994  0  1.629759  2.378513  0  2.730618  0
Zr  Zr3  1  0.89797767  0.11005761  0.38768459  1  2.636724  0  1.624511  2.374319  0  2.7415  0
Zr  Zr4  1  0.11007613  0.89196661  0.38866208  1  2.635146  0  1.620723  2.379047  0  2.715625  0
Zr  Zr5  1  0.88898396  0.11163731  0.60625772  1  2.638237  0  1.622399  2.378517  0  2.720898  0
H  H6  1  0.07849381  0.75189851  0.57680877  1  0.589019  0  0.331908  0.425483  0  0.855462  0
H  H7  1  0.09431982  0.07992298  0.24743833  1  0.62184  0  0.332212  0.425217  0  0.856445  0
H  H8  1  0.08125718  0.08219998  0.59064639  1  0.610776  0  0.332636  0.426646  0  0.853066  0
H  H9  1  0.74475874  0.09319831  0.57539401  1  0.62386  0  0.332243  0.426183  0  0.850368  0
H  H10  1  0.12445576  0.61324401  0.35721834  1  0.135232  0  0.129208  0.157285  0  0.957196  0
H  H11  1  0.60712346  0.12959500  0.89401604  1  0.13761  0  0.128724  0.156931  0  0.958689  0
H  H12  1  0.87845879  0.13308987  0.10880981  1  0.123684  0  0.126736  0.156522  0  0.961696  0
H  H13  1  0.61528998  0.39068845  0.36656790  1  0.134586  0  0.123272  0.150164  0  0.967602  0
H  H14  1  0.09732995  0.64094446  0.87383433  1  0.208263  0  0.119839  0.135447  0  1.017889  0
H  H15  1  0.83889298  0.65611527  0.85401310  1  0.160541  0  0.124407  0.140896  0  0.987505  0
H  H16  1  0.89485197  0.37141608  0.13078791  1  0.146159  0  0.116487  0.130848  0  1.018854  0
H  H17  1  0.14303662  0.36625018  0.15984475  1  0.136047  0  0.125663  0.143686  0  0.982338  0
H  H18  1  0.61993292  0.87768786  0.61240866  1  0.118369  0  0.126646  0.15386  0  0.964564  0
C  C19  1  0.99564954  0.73793694  0.48330506  1  1.571215  0  0.226392  0.641615  0  4.159222  0
C  C20  1  0.28324301  0.98774559  0.23547516  1  1.588723  0  0.227301  0.653685  0  4.154677  0
C  C21  1  0.99757235  0.27255145  0.50305977  1  1.599024  0  0.227675  0.652754  0  4.159884  0
C  C22  1  0.72365504  0.00744252  0.76673408  1  1.566888  0  0.227202  0.643637  0  4.157982  0
C  C23  1  0.97924066  0.74183982  0.76618573  1  1.569245  0  0.239551  0.640942  0  4.09882  0
C  C24  1  0.73264030  0.00469920  0.48391082  1  1.585968  0  0.226966  0.644677  0  4.156769  0
C  C25  1  0.01241333  0.27030009  0.23749503  1  1.560799  0  0.238898  0.640821  0  4.102166  0
C  C26  1  0.27382618  0.99091906  0.50449315  1  1.604608  0  0.229592  0.653451  0  4.155212  0
C  C27  1  0.27443823  0.73177167  0.49654042  1  1.593766  0  0.230076  0.652661  0  4.143992  0
C  C28  1  0.98633425  0.99906904  0.77805004  1  1.604334  0  0.226945  0.652294  0  4.153466  0
C  C29  1  0.73352558  0.27997373  0.49111108  1  1.566055  0  0.228193  0.648948  0  4.142551  0
C  C30  1  0.00278150  0.99890262  0.22474334  1  1.578208  0  0.228157  0.646342  0  4.147945  0
C  C31  1  0.92773833  0.42244354  0.56042461  1  0.233975  0  0.075418  0.032935  0  3.972262  0
C  C32  1  0.06132795  0.59386910  0.41959077  1  0.067114  0  -0.080834  -0.12584  0  3.947614  0
C  C33  1  0.99517078  0.36511935  0.49793393  1  -0.081218  0  -0.017259  -0.179366  0  3.951785  0
C  C34  1  0.99410899  0.64920958  0.48379793  1  -0.186649  0  -0.0195  -0.117844  0  3.967634  0
C  C35  1  0.03614270  0.51143388  0.44758393  1  -0.128584  0  -0.014308  -0.002776  0  4.061385  0
C  C36  1  0.94985779  0.50634622  0.53298418  1  -0.139461  0  -0.018629  -0.071735  0  4.071188  0
C  C37  1  0.42555475  0.92400904  0.09054298  1  0.311691  0  0.076585  0.035108  0  3.96573  0
C  C38  1  0.58761273  0.06633443  0.91504831  1  0.102454  0  -0.081561  -0.127405  0  3.95321  0
C  C39  1  0.37289448  0.98776480  0.14669097  1  -0.131867  0  -0.017231  -0.1801  0  3.948201  0
C  C40  1  0.63861807  0.00242731  0.85959654  1  -0.207955  0  -0.019243  -0.118396  0  3.970977  0
C  C41  1  0.50945972  0.03746547  0.99910157  1  -0.170761  0  -0.014826  -0.003644  0  4.065672  0
C  C42  1  0.50344828  0.95156951  0.00548834  1  -0.116098  0  -0.017838  -0.072435  0  4.068805  0
C  C43  1  0.04827839  0.92698857  0.92101685  1  0.275933  0  0.07658  0.032775  0  3.969217  0
C  C44  1  0.93459937  0.06734865  0.08798549  1  0.081411  0  -0.083408  -0.129694  0  3.951444  0
C  C45  1  0.98554429  0.99726509  0.86838829  1  -0.09974  0  -0.018501  -0.180363  0  3.941237  0
C  C46  1  0.99909038  0.99686448  0.13844042  1  -0.165176  0  -0.019145  -0.121208  0  3.958352  0
C  C47  1  0.95332575  0.04161656  0.00832614  1  -0.15926  0  -0.014368  0.001491  0  4.057292  0
C  C48  1  0.03176964  0.95128774  0.00053777  1  -0.150186  0  -0.017782  -0.075716  0  4.06493  0
C  C49  1  0.42413249  0.59870118  0.55510253  1  0.246894  0  0.078066  0.031982  0  3.941685  0
C  C50  1  0.59341089  0.41643803  0.42671993  1  0.059943  0  -0.08689  -0.130605  0  3.955455  0
C  C51  1  0.36866127  0.64717615  0.49342898  1  -0.082555  0  -0.008672  -0.160717  0  3.890256  0
C  C52  1  0.64514434  0.36969948  0.49086113  1  -0.208281  0  -0.022707  -0.13018  0  3.963865  0
C  C53  1  0.51095085  0.49909016  0.45182815  1  -0.165297  0  -0.017923  -0.00722  0  4.0624  0
C  C54  1  0.50330217  0.51304417  0.53376505  1  -0.081754  0  -0.017076  -0.075441  0  4.090187  0
C  C55  1  0.03919154  0.61063148  0.90211181  1  -0.041719  0  -0.057092  -0.095991  0  3.867386  0
C  C56  1  0.89319341  0.61930722  0.89044240  1  0.050235  0  -0.063608  -0.125662  0  3.940619  0
C  C57  1  0.88809227  0.53675213  0.96950406  1  0.156987  0  0.083789  0.029771  0  3.904421  0
C  C58  1  0.95676039  0.48680109  0.02048555  1  0.04073  0  0.011205  0.047499  0  3.954965  0
C  C59  1  0.95087891  0.40376904  0.10401022  1  -0.0081  0  -0.066446  -0.116217  0  3.902003  0
C  C60  1  0.09181427  0.39990284  0.12047348  1  0.042463  0  -0.064734  -0.130765  0  3.93558  0
C  C61  1  0.09950632  0.47961198  0.03849242  1  0.187045  0  0.087255  0.038382  0  3.899622  0
C  C62  1  0.03366561  0.52675703  0.98491875  1  0.017963  0  0.012392  0.044718  0  3.943743  0
C  C63  1  0.97065830  0.65539564  0.85562997  1  0.004966  0  -0.007102  -0.01904  0  3.961393  0
C  C64  1  0.01740156  0.36087593  0.15232811  1  -0.010952  0  -0.006915  -0.013865  0  3.966853  0
C  C65  1  0.41551045  0.05621438  0.43303238  1  0.217735  0  0.074257  0.03127  0  3.973723  0
C  C66  1  0.59514622  0.93595660  0.55269673  1  0.129883  0  -0.082334  -0.124837  0  3.956261  0
C  C67  1  0.36470288  0.99074847  0.50126667  1  -0.02519  0  -0.016037  -0.180801  0  3.945208  0
C  C68  1  0.64451922  0.00217357  0.48421320  1  -0.20189  0  -0.021041  -0.120194  0  3.97157  0
C  C69  1  0.51145669  0.95598435  0.53359089  1  -0.167911  0  -0.014516  -0.007641  0  4.069677  0
C  C70  1  0.49974068  0.03746439  0.45003941  1  -0.145686  0  -0.019032  -0.072346  0  4.076573  0
S  S71  1  0.08750270  0.41369805  0.40360645  1  0.337692  0  0.129851  0.201869  0  2.74512  0
S  S72  1  0.89968862  0.60286142  0.57811512  1  0.291075  0  0.098711  0.157084  0  2.736729  0
S  S73  1  0.41926346  0.08249222  0.09619667  1  0.334643  0  0.127471  0.201288  0  2.771046  0
S  S74  1  0.59330777  0.90687883  0.90820860  1  0.290277  0  0.105264  0.16738  0  2.73558  0
S  S75  1  0.90378658  0.09476953  0.91711924  1  0.325809  0  0.120988  0.18589  0  2.720729  0
S  S76  1  0.08296480  0.89908978  0.09007393  1  0.29844  0  0.113499  0.181908  0  2.721719  0
S  S77  1  0.41709568  0.58885498  0.40641533  1  0.332387  0  0.132688  0.203559  0  2.753248  0
S  S78  1  0.59462636  0.42447968  0.58171096  1  0.362715  0  0.122194  0.200009  0  2.828991  0
S  S79  1  0.42006541  0.90454603  0.58816366  1  0.366734  0  0.143852  0.227144  0  2.770833  0
S  S80  1  0.59102475  0.08902352  0.39564225  1  0.266114  0  0.098752  0.156976  0  2.719031  0
N  N81  1  0.84255599  0.39870564  0.64749305  1  0.423336  0  0.066065  0.542491  0  4.219299  0
N  N82  1  0.40357718  0.83682959  0.11526765  1  0.406148  0  0.066231  0.541881  0  4.218149  0
N  N83  1  0.12420118  0.83519932  0.89874541  1  0.43531  0  0.067975  0.538671  0  4.224656  0
N  N84  1  0.41273378  0.62927117  0.63118857  1  0.364894  0  0.060559  0.532467  0  4.207634  0
N  N85  1  0.38655229  0.13813359  0.35105426  1  0.392971  0  0.06569  0.546396  0  4.215817  0
N  N86  1  0.18215346  0.51390805  0.00604054  1  0.414561  0  0.060372  0.518215  0  4.205879  0
N  N87  1  0.80727849  0.50126833  0.99933376  1  0.397055  0  0.058863  0.520466  0  4.202077  0
O  O88  1  0.92420320  0.77564753  0.55142080  1  -1.167151  0  -0.357108  -0.616297  0  2.295923  0
O  O89  1  0.24870476  0.05596887  0.27282146  1  -1.171441  0  -0.352167  -0.606739  0  2.28247  0
O  O90  1  0.07084369  0.23286476  0.43726600  1  -1.177308  0  -0.35445  -0.609157  0  2.291144  0
O  O91  1  0.75663835  0.94120725  0.72710322  1  -1.173771  0  -0.358209  -0.618573  0  2.291079  0
O  O92  1  0.05066872  0.77198747  0.73542724  1  -1.171896  0  -0.343224  -0.598024  0  2.27491  0
O  O93  1  0.76856042  0.07222070  0.41735843  1  -1.181391  0  -0.352357  -0.615733  0  2.258022  0
O  O94  1  0.94234824  0.23897924  0.26628897  1  -1.175135  0  -0.345018  -0.606678  0  2.272109  0
O  O95  1  0.23558572  0.92598974  0.57302363  1  -1.172379  0  -0.343218  -0.593391  0  2.256958  0
O  O96  1  0.24299222  0.76324025  0.42656855  1  -1.166308  0  -0.347746  -0.610275  0  2.248654  0
O  O97  1  0.91978002  0.07018085  0.74267228  1  -1.183129  0  -0.349171  -0.608723  0  2.248522  0
O  O98  1  0.76558689  0.24549754  0.56141010  1  -1.176198  0  -0.354527  -0.616052  0  2.264776  0
O  O99  1  0.07098632  0.92928671  0.25880821  1  -1.174994  0  -0.350871  -0.613211  0  2.255255  0
O  O100  1  0.05575872  0.92966124  0.74154810  1  -1.172416  0  -0.355392  -0.608662  0  2.285645  0
O  O101  1  0.77061568  0.24282616  0.42191787  1  -1.180018  0  -0.35998  -0.614326  0  2.257804  0
O  O102  1  0.93714883  0.07158063  0.25804826  1  -1.182235  0  -0.360941  -0.614316  0  2.263751  0
O  O103  1  0.23057010  0.76439066  0.56985270  1  -1.168708  0  -0.354982  -0.60257  0  2.306414  0
O  O104  1  0.91428176  0.77740746  0.72647221  1  -1.17251  0  -0.356794  -0.614249  0  2.295387  0
O  O105  1  0.24004513  0.05923548  0.43677969  1  -1.179296  0  -0.363005  -0.61188  0  2.312743  0
O  O106  1  0.08131551  0.23037373  0.27327607  1  -1.173071  0  -0.35582  -0.611008  0  2.297421  0
O  O107  1  0.76496281  0.93834895  0.55314250  1  -1.175608  0  -0.364106  -0.61254  0  2.292305  0
O  O108  1  0.75706547  0.07705463  0.73292026  1  -1.172312  0  -0.355488  -0.607243  0  2.254648  0
O  O109  1  0.06815969  0.76876076  0.41738136  1  -1.177743  0  -0.354959  -0.607378  0  2.250454  0
O  O110  1  0.24604648  0.92174992  0.26605965  1  -1.168982  0  -0.354998  -0.606378  0  2.275259  0
O  O111  1  0.92766515  0.23948488  0.57229228  1  -1.175055  0  -0.352913  -0.604481  0  2.265892  0
O  O112  1  0.81727821  0.06782971  0.55263644  1  -1.253718  0  -0.693422  -1.070318  0  2.352986  0
O  O113  1  0.05752769  0.05910815  0.56493156  1  -1.240457  0  -0.692774  -1.072366  0  2.354253  0
O  O114  1  0.06787669  0.05735064  0.31851341  1  -1.247853  0  -0.693348  -1.072936  0  2.360558  0
O  O115  1  0.05582020  0.82293358  0.55381143  1  -1.215798  0  -0.693677  -1.074348  0  2.361252  0
O  O116  1  0.13420483  0.95241398  0.45695590  1  -1.200268  0  -0.788169  -1.150338  0  2.117807  0
O  O117  1  0.95725137  0.95982064  0.44757526  1  -1.200276  0  -0.78952  -1.148012  0  2.12067  0
O  O118  1  0.95817644  0.13350422  0.45605521  1  -1.195756  0  -0.789201  -1.149802  0  2.120702  0
O  O119  1  0.94941009  0.96128166  0.62930104  1  -1.199944  0  -0.789051  -1.151831  0  2.122114  0
O  O120  1  0.85790937  0.35033370  0.72582645  1  -0.428248  0  -0.124042  -0.319187  0  1.861026  0
O  O121  1  0.76235408  0.43169937  0.63544916  1  -0.418148  0  -0.115997  -0.31304  0  1.902645  0
O  O122  1  0.36217235  0.84308865  0.06634562  1  -0.421953  0  -0.124098  -0.317418  0  1.851678  0
O  O123  1  0.43078614  0.76411271  0.18028345  1  -0.422095  0  -0.120035  -0.317561  0  1.899128  0
O  O124  1  0.21181532  0.83274398  0.85601646  1  -0.415092  0  -0.109901  -0.298921  0  1.858339  0
O  O125  1  0.09387863  0.76727527  0.92807919  1  -0.440369  0  -0.11622  -0.310023  0  1.902155  0
O  O126  1  0.43299558  0.56157550  0.70327005  1  -0.429763  0  -0.129464  -0.319116  0  1.87571  0
O  O127  1  0.38984246  0.71735240  0.61711062  1  -0.414005  0  -0.120308  -0.323127  0  1.993391  0
O  O128  1  0.32870426  0.21744346  0.36750463  1  -0.425903  0  -0.123237  -0.32163  0  1.880514  0
O  O129  1  0.42609768  0.12187254  0.27136156  1  -0.417505  0  -0.12363  -0.325352  0  1.905545  0
O  O130  1  0.23428645  0.53067339  0.91783639  1  -0.433937  0  -0.119251  -0.312332  0  1.905305  0
O  O131  1  0.19464829  0.52053099  0.07040266  1  -0.444268  0  -0.134772  -0.329776  0  1.85731  0
O  O132  1  0.82693396  0.41137232  0.02477436  1  -0.451046  0  -0.137337  -0.336774  0  1.882982  0
O  O133  1  0.72537105  0.56414114  0.99507768  1  -0.442679  0  -0.133386  -0.32838  0  1.858695  0
