# generated using pymatgen
data_VH4C8O5
_symmetry_space_group_name_H-M   'P 1'
_cell_length_a   12.15603693
_cell_length_b   12.30174886
_cell_length_c   12.30180572
_cell_angle_alpha   75.87160764
_cell_angle_beta   60.39246058
_cell_angle_gamma   60.39133075
_symmetry_Int_Tables_number   1
_chemical_formula_structural   VH4C8O5
_chemical_formula_sum   'V4 H16 C32 O20'
_cell_volume   1390.56736774
_cell_formula_units_Z   4
loop_
 _symmetry_equiv_pos_site_id
 _symmetry_equiv_pos_as_xyz
  1  'x, y, z'
loop_
 _atom_site_type_symbol
 _atom_site_label
 _atom_site_symmetry_multiplicity
 _atom_site_fract_x
 _atom_site_fract_y
 _atom_site_fract_z
 _atom_site_occupancy
 _atom_site_pbe_cm5_charge
 _atom_site_pbe_ddec_charge
 _atom_site_pbe_ddec_spin_density
 _atom_site_pbe_ddec_sum_bond_order
 _atom_site_pbe_magmom
V  V0  1  0.68921581  0.00000563  0.62155573  1  1.225471  1.71261  1.800976  2.599553  1.758
V  V1  1  0.31077705  0.00001628  0.37843679  1  1.225299  1.712636  1.801276  2.600406  1.758
V  V2  1  0.06076959  0.87847540  0.49999024  1  1.225431  1.71265  1.800803  2.599663  1.757
V  V3  1  0.43922859  0.12153008  0.50001622  1  1.225286  1.712608  1.800831  2.600796  1.757
H  H4  1  0.87499776  0.06346704  0.43651068  1  0.318287  0.419702  0.005201  0.869166  0.007
H  H5  1  0.37499451  0.93650618  0.56346016  1  0.318329  0.419691  0.005201  0.869217  0.007
H  H6  1  0.06149935  0.06351352  0.56349901  1  0.318156  0.420024  0.005196  0.86878  0.007
H  H7  1  0.68844183  0.93655632  0.43656040  1  0.31824  0.420098  0.005216  0.868814  0.007
H  H8  1  0.13295200  0.49998590  0.49999790  1  0.119059  0.132726  -0.000198  0.982455  0.0
H  H9  1  0.38290101  0.00001311  0.00001175  1  0.11899  0.132599  -0.000198  0.982793  0.0
H  H10  1  0.61708867  0.99999647  0.99994728  1  0.119015  0.132634  -0.000198  0.982354  0.0
H  H11  1  0.36705631  0.50000238  0.50001885  1  0.118968  0.132445  -0.000197  0.982707  0.0
H  H12  1  0.70104005  0.69306073  0.55943440  1  0.106631  0.110654  8.5e-05  1.012205  0.0
H  H13  1  0.95355614  0.30689676  0.44057653  1  0.107312  0.111329  8.2e-05  1.011968  0.0
H  H14  1  0.01045492  0.94055476  0.19309337  1  0.106579  0.110296  8.6e-05  1.012219  0.0
H  H15  1  0.14410607  0.05941311  0.80691495  1  0.106637  0.110987  8.4e-05  1.011994  0.0
H  H16  1  0.79646608  0.05942381  0.19304611  1  0.10737  0.111457  8.4e-05  1.011955  0.0
H  H17  1  0.04898319  0.94057838  0.80687436  1  0.106734  0.110712  8.4e-05  1.012153  0.0
H  H18  1  0.60588368  0.69308491  0.44056987  1  0.10665  0.11104  8.4e-05  1.012306  0.0
H  H19  1  0.73954160  0.30691533  0.55943499  1  0.1066  0.110314  8.5e-05  1.012191  0.0
C  C20  1  0.04334187  0.49998458  0.50002193  1  -0.06418  -0.088569  0.019197  3.887109  0.013
C  C21  1  0.29331503  0.00000733  0.00001147  1  -0.064758  -0.088328  0.019195  3.886506  0.013
C  C22  1  0.70665973  0.00002456  0.99996142  1  -0.064041  -0.088074  0.019189  3.887233  0.013
C  C23  1  0.45664575  0.50001284  0.50003876  1  -0.064838  -0.088213  0.01919  3.886559  0.013
C  C24  1  0.81082457  0.49998920  0.50001553  1  -0.004166  0.067907  -0.005428  4.019374  -0.005
C  C25  1  0.06080716  0.99998077  0.99999258  1  -0.00526  0.067169  -0.005428  4.020345  -0.005
C  C26  1  0.93918861  0.00000946  0.99997019  1  -0.004281  0.06789  -0.005425  4.019826  -0.005
C  C27  1  0.68918084  0.50000173  0.50001013  1  -0.005249  0.066994  -0.005427  4.020427  -0.005
C  C28  1  0.91646172  0.60926479  0.52809059  1  -0.015107  -0.0326  -0.009618  3.990727  -0.009
C  C29  1  0.05380650  0.39070540  0.47196059  1  -0.015177  -0.034239  -0.009613  3.995149  -0.009
C  C30  1  0.19452618  0.97190228  0.10927669  1  -0.015769  -0.034254  -0.009612  3.993885  -0.009
C  C31  1  0.27571181  0.02808657  0.89073685  1  -0.013556  -0.03277  -0.00961  3.991913  -0.009
C  C32  1  0.69618973  0.02811854  0.10923058  1  -0.015266  -0.034551  -0.009614  3.995288  -0.009
C  C33  1  0.83354169  0.97194035  0.89069731  1  -0.015259  -0.032879  -0.009613  3.990916  -0.009
C  C34  1  0.47424826  0.60928724  0.47195530  1  -0.013392  -0.032672  -0.00961  3.99171  -0.009
C  C35  1  0.55544983  0.39073700  0.52810605  1  -0.015712  -0.034202  -0.00961  3.994304  -0.009
C  C36  1  0.90452877  0.72902815  0.55041968  1  0.231219  0.627363  0.048729  4.115555  0.04
C  C37  1  0.18396907  0.27097339  0.44959290  1  0.231711  0.628682  0.048759  4.113206  0.04
C  C38  1  0.20496791  0.94956628  0.22901686  1  0.230132  0.62574  0.048765  4.116606  0.04
C  C39  1  0.38353376  0.05042238  0.77100389  1  0.228869  0.623955  0.048737  4.116529  0.04
C  C40  1  0.56603435  0.05043945  0.22901134  1  0.231582  0.628335  0.048722  4.113149  0.04
C  C41  1  0.84547730  0.94957393  0.77095235  1  0.231182  0.627242  0.048849  4.115641  0.04
C  C42  1  0.36644893  0.72904550  0.44958478  1  0.229144  0.624329  0.04877  4.115273  0.04
C  C43  1  0.54506411  0.27097290  0.55044316  1  0.229964  0.625439  0.048742  4.116868  0.04
C  C44  1  0.80030511  0.60800172  0.53137450  1  -0.075725  -0.13082  0.021331  3.911852  0.014
C  C45  1  0.93967666  0.39195474  0.46866377  1  -0.076215  -0.130906  0.021339  3.914198  0.014
C  C46  1  0.08165068  0.96860821  0.10801571  1  -0.075424  -0.129733  0.02135  3.913021  0.014
C  C47  1  0.15829854  0.03135013  0.89199002  1  -0.075897  -0.130966  0.021334  3.913409  0.014
C  C48  1  0.81033555  0.03138269  0.10797462  1  -0.076181  -0.130989  0.02133  3.914756  0.014
C  C49  1  0.94971641  0.96866101  0.89194144  1  -0.075742  -0.130754  0.021338  3.911232  0.014
C  C50  1  0.59167968  0.60803217  0.46866110  1  -0.075979  -0.131015  0.021338  3.913964  0.014
C  C51  1  0.66834814  0.39198510  0.53137065  1  -0.075563  -0.129785  0.021336  3.913469  0.014
O  O52  1  0.87499840  0.99915743  0.50075136  1  -0.669499  -0.995672  0.023724  2.160797  -0.025
O  O53  1  0.37507405  0.00075400  0.49915590  1  -0.6697  -0.995812  0.02372  2.160664  -0.025
O  O54  1  0.12577199  0.99924624  0.49921063  1  -0.668787  -0.996204  0.02377  2.160337  -0.025
O  O55  1  0.62416028  0.00082112  0.50084130  1  -0.66893  -0.99603  0.02368  2.161234  -0.025
O  O56  1  0.77992883  0.81535545  0.60817309  1  -0.362461  -0.611674  0.006996  2.35505  -0.014
O  O57  1  0.20349789  0.18466604  0.39177730  1  -0.361917  -0.611124  0.00699  2.35516  -0.014
O  O58  1  0.13816411  0.89178965  0.31535089  1  -0.361493  -0.610067  0.006963  2.356594  -0.014
O  O59  1  0.34527823  0.10817098  0.68466656  1  -0.361442  -0.609495  0.006991  2.35383  -0.014
O  O60  1  0.54653443  0.10822113  0.31533683  1  -0.361932  -0.61111  0.007028  2.354631  -0.014
O  O61  1  0.97006416  0.89174667  0.68463670  1  -0.362385  -0.611588  0.006979  2.354929  -0.014
O  O62  1  0.40473499  0.81535330  0.39176734  1  -0.361648  -0.609658  0.006987  2.353283  -0.014
O  O63  1  0.61188153  0.18466338  0.60823305  1  -0.361269  -0.609891  0.006975  2.356483  -0.014
O  O64  1  0.01902479  0.73811409  0.50689499  1  -0.347531  -0.587293  0.010762  2.342489  -0.012
O  O65  1  0.26400656  0.26187089  0.49315715  1  -0.348408  -0.588534  0.010744  2.341082  -0.012
O  O66  1  0.27592396  0.99313123  0.23808001  1  -0.345935  -0.585997  0.01067  2.33997  -0.012
O  O67  1  0.50711086  0.00688146  0.76194059  1  -0.345417  -0.585048  0.010673  2.34134  -0.012
O  O68  1  0.48601234  0.00685969  0.23810246  1  -0.348211  -0.588099  0.010737  2.341179  -0.012
O  O69  1  0.73096642  0.99314838  0.76186700  1  -0.347601  -0.587429  0.01074  2.342925  -0.012
O  O70  1  0.24285362  0.73814173  0.49312025  1  -0.345559  -0.585281  0.010681  2.341202  -0.012
O  O71  1  0.47411995  0.26186649  0.50689290  1  -0.345985  -0.585932  0.010673  2.339692  -0.012
