# generated using pymatgen
data_AlH4C10SNO7
_symmetry_space_group_name_H-M   'P 1'
_cell_length_a   6.62578419
_cell_length_b   11.20199491
_cell_length_c   12.64890335
_cell_angle_alpha   81.50912209
_cell_angle_beta   75.89596212
_cell_angle_gamma   71.53041885
_symmetry_Int_Tables_number   1
_chemical_formula_structural   AlH4C10SNO7
_chemical_formula_sum   'Al2 H8 C20 S2 N2 O14'
_cell_volume   861.08986224
_cell_formula_units_Z   2
loop_
 _symmetry_equiv_pos_site_id
 _symmetry_equiv_pos_as_xyz
  1  'x, y, z'
loop_
 _atom_site_type_symbol
 _atom_site_label
 _atom_site_symmetry_multiplicity
 _atom_site_fract_x
 _atom_site_fract_y
 _atom_site_fract_z
 _atom_site_occupancy
 _atom_site_pbe_bader_charge
 _atom_site_pbe_bader_spin_density
 _atom_site_pbe_cm5_charge
 _atom_site_pbe_ddec_charge
 _atom_site_pbe_ddec_spin_density
 _atom_site_pbe_ddec_sum_bond_order
 _atom_site_pbe_magmom
Al  Al0  1  0.48854731  0.49996442  0.50064576  1  2.502646  0  0.39438  1.644143  0  2.582822  0
Al  Al1  1  0.98773719  0.50307398  0.49796144  1  2.503006  0  0.394358  1.643595  0  2.570542  0
H  H2  1  0.26247457  0.36484765  0.59307161  1  0.632212  0  0.359098  0.438038  0  0.839721  0
H  H3  1  0.75462440  0.58248610  0.36988391  1  0.606038  0  0.34206  0.421375  0  0.883133  0
H  H4  1  0.29806312  0.44632444  0.84805267  1  0.123905  0  0.115321  0.136862  0  0.994559  0
H  H5  1  0.67331215  0.57461910  0.14831461  1  0.136059  0  0.115319  0.139891  0  0.999205  0
H  H6  1  0.25050838  0.23570641  0.34790636  1  0.118525  0  0.123921  0.142164  0  1.007778  0
H  H7  1  0.48408402  0.76591485  0.38508292  1  0.147493  0  0.127414  0.136976  0  1.041174  0
H  H8  1  0.73728530  0.88388342  0.57554819  1  0.101481  0  0.118591  0.126482  0  0.970865  0
H  H9  1  0.62505659  0.12008026  0.56548769  1  0.12805  0  0.116139  0.11974  0  0.978212  0
C  C10  1  0.85836041  0.27467162  0.48567099  1  1.607713  0  0.269855  0.645719  0  4.092493  0
C  C11  1  0.65498479  0.50105182  0.69438292  1  1.612776  0  0.259818  0.648382  0  4.142326  0
C  C12  1  0.12832940  0.72713286  0.50307801  1  1.559838  0  0.270535  0.640238  0  4.100277  0
C  C13  1  0.32065897  0.51017401  0.30209285  1  1.59619  0  0.261582  0.651146  0  4.133695  0
C  C14  1  0.41139239  0.47599000  0.87993093  1  0.010796  0  -0.085763  -0.130255  0  3.973201  0
C  C15  1  0.56088596  0.54388979  0.11661859  1  0.066021  0  -0.082714  -0.12492  0  3.949626  0
C  C16  1  0.59092426  0.50575037  0.81317001  1  -0.176074  0  -0.021714  -0.128136  0  3.988043  0
C  C17  1  0.38295025  0.51219193  0.18301440  1  -0.162777  0  -0.018865  -0.118262  0  3.981621  0
C  C18  1  0.57153840  0.53073661  0.00611710  1  -0.193065  0  -0.016832  -0.00013  0  4.045578  0
C  C19  1  0.40064537  0.48942404  0.99027356  1  -0.134929  0  -0.018195  -0.005639  0  4.060866  0
C  C20  1  0.93648085  0.13469419  0.47830333  1  0.046698  0  0.00205  -0.061981  0  3.896356  0
C  C21  1  0.15163387  0.06931196  0.42492438  1  -0.078322  0  0.014473  0.077597  0  3.92006  0
C  C22  1  0.79056969  0.06770632  0.52885704  1  -0.157431  0  -0.068589  -0.074822  0  3.96393  0
C  C23  1  0.29845369  0.13302209  0.35826629  1  0.043168  0  -0.06273  -0.142589  0  3.879184  0
C  C24  1  0.49753504  0.06597784  0.30148657  1  0.182917  0  0.085559  0.032736  0  3.949612  0
C  C25  1  0.06493682  0.86824199  0.49108442  1  0.008927  0  0.00496  -0.055688  0  3.907539  0
C  C26  1  0.85343187  0.93531869  0.53494301  1  0.091884  0  -0.071046  -0.087654  0  3.972479  0
C  C27  1  0.21665359  0.93368980  0.43241866  1  0.097718  0  0.0133  0.074946  0  3.923656  0
C  C28  1  0.42700254  0.86819676  0.37612344  1  0.100152  0  -0.056306  -0.124804  0  3.883507  0
C  C29  1  0.56402905  0.93225684  0.31192751  1  0.260481  0  0.084037  0.023525  0  3.94261  0
S  S30  1  0.74619472  0.55116896  0.88390361  1  0.251546  0  0.090853  0.125556  0  2.736357  0
S  S31  1  0.22744140  0.46737556  0.11223743  1  0.264808  0  0.094932  0.138094  0  2.765546  0
N  N32  1  0.62580511  0.13660621  0.21958256  1  0.392896  0  0.057783  0.512488  0  4.250719  0
N  N33  1  0.78585751  0.85749220  0.26413777  1  0.394393  0  0.063298  0.526446  0  4.202995  0
O  O34  1  0.66195993  0.32851030  0.47798371  1  -1.249999  0  -0.230287  -0.588551  0  2.360733  0
O  O35  1  0.83586002  0.52136143  0.64653825  1  -1.264037  0  -0.240062  -0.590802  0  2.325811  0
O  O36  1  0.99341793  0.67582820  0.48733598  1  -1.246399  0  -0.226144  -0.571781  0  2.329909  0
O  O37  1  0.44995755  0.53149351  0.35216103  1  -1.265136  0  -0.238566  -0.593881  0  2.338075  0
O  O38  1  0.31223293  0.67023235  0.52708274  1  -1.25243  0  -0.231475  -0.575632  0  2.344596  0
O  O39  1  0.14032645  0.48731590  0.34766239  1  -1.265189  0  -0.243135  -0.604684  0  2.351174  0
O  O40  1  0.99029594  0.32706197  0.50396145  1  -1.256781  0  -0.236786  -0.597234  0  2.337225  0
O  O41  1  0.52571784  0.47547722  0.64714531  1  -1.269926  0  -0.237317  -0.590293  0  2.336041  0
O  O42  1  0.24637070  0.44209723  0.54598239  1  -1.434964  0  -0.44837  -0.994786  0  2.21949  0
O  O43  1  0.73059675  0.55913036  0.44813297  1  -1.407629  0  -0.449286  -0.992465  0  2.207461  0
O  O44  1  0.65516260  0.22932026  0.24871475  1  -0.437746  0  -0.116436  -0.311739  0  1.939803  0
O  O45  1  0.68705613  0.09949846  0.12636783  1  -0.42465  0  -0.133277  -0.324754  0  1.872028  0
O  O46  1  0.81156740  0.74961638  0.23946832  1  -0.469064  0  -0.124543  -0.336404  0  1.938814  0
O  O47  1  0.93395265  0.90589258  0.25501426  1  -0.441788  0  -0.121199  -0.318254  0  1.921635  0
