# generated using pymatgen
data_Tb2Zn3H36(C2O3)12
_symmetry_space_group_name_H-M   'P 1'
_cell_length_a   14.70945018
_cell_length_b   14.70944350
_cell_length_c   15.91571448
_cell_angle_alpha   89.99996838
_cell_angle_beta   89.99997084
_cell_angle_gamma   120.00011619
_symmetry_Int_Tables_number   1
_chemical_formula_structural   Tb2Zn3H36(C2O3)12
_chemical_formula_sum   'Tb4 Zn6 H72 C48 O72'
_cell_volume   2982.28363252
_cell_formula_units_Z   2
loop_
 _symmetry_equiv_pos_site_id
 _symmetry_equiv_pos_as_xyz
  1  'x, y, z'
loop_
 _atom_site_type_symbol
 _atom_site_label
 _atom_site_symmetry_multiplicity
 _atom_site_fract_x
 _atom_site_fract_y
 _atom_site_fract_z
 _atom_site_occupancy
 _atom_site_pbe_bader_charge
 _atom_site_pbe_bader_spin_density
 _atom_site_pbe_cm5_charge
 _atom_site_pbe_ddec_charge
 _atom_site_pbe_ddec_spin_density
 _atom_site_pbe_ddec_sum_bond_order
 _atom_site_pbe_magmom
Tb  Tb0  1  0.33333450  0.66666608  0.74999813  1  2.208758  0  1.489321  1.969333  0  2.209784  0
Tb  Tb1  1  0.66666619  0.33333409  0.74999813  1  2.20877  0  1.489305  1.969338  0  2.209734  0
Tb  Tb2  1  0.66666579  0.33333370  0.25000173  1  2.208771  0  1.489311  1.969333  0  2.209781  0
Tb  Tb3  1  0.33333371  0.66666609  0.25000172  1  2.208761  0  1.489315  1.969339  0  2.209773  0
Zn  Zn4  1  0.49999961  0.49999975  0.49999993  1  1.368089  0  0.666881  0.996348  0  2.206874  0
Zn  Zn5  1  0.50000005  0.00000018  0.49999980  1  1.366765  0  0.666882  0.99638  0  2.206838  0
Zn  Zn6  1  0.00000055  0.49999975  0.50000005  1  1.363778  0  0.666926  0.996433  0  2.206741  0
Zn  Zn7  1  0.50000000  0.50000014  0.99999947  1  1.368061  0  0.666939  0.996531  0  2.206721  0
Zn  Zn8  1  0.99999945  0.49999975  0.99999998  1  1.366775  0  0.666918  0.996498  0  2.206738  0
Zn  Zn9  1  0.50000072  0.00000008  0.00000026  1  1.363848  0  0.666918  0.996505  0  2.206767  0
H  H10  1  0.64002687  0.71950103  0.73212828  1  0.056212  0  0.110409  0.090351  0  0.9941  0
H  H11  1  0.28050020  0.92052409  0.73212706  1  0.072515  0  0.1104  0.090349  0  0.994037  0
H  H12  1  0.07947557  0.35997541  0.73212850  1  0.06281  0  0.110397  0.090315  0  0.994048  0
H  H13  1  0.35997384  0.28049917  0.73212909  1  0.056223  0  0.110389  0.090303  0  0.99409  0
H  H14  1  0.71949983  0.07947542  0.73212717  1  0.072506  0  0.110405  0.090364  0  0.994007  0
H  H15  1  0.92052474  0.64002518  0.73212949  1  0.061633  0  0.110392  0.090334  0  0.994125  0
H  H16  1  0.71949939  0.64003111  0.76787346  1  0.055874  0  0.11043  0.090338  0  0.994097  0
H  H17  1  0.92053054  0.28049992  0.76787224  1  0.072623  0  0.110435  0.090342  0  0.994071  0
H  H18  1  0.35996841  0.07946868  0.76787243  1  0.062735  0  0.110425  0.090325  0  0.9941  0
H  H19  1  0.28050020  0.35996876  0.76787300  1  0.055874  0  0.110423  0.090306  0  0.994154  0
H  H20  1  0.07946905  0.71949995  0.76787296  1  0.072621  0  0.110426  0.090308  0  0.994158  0
H  H21  1  0.64003050  0.92053051  0.76787152  1  0.062747  0  0.11043  0.090327  0  0.994136  0
H  H22  1  0.35997303  0.28049915  0.26787158  1  0.056209  0  0.110405  0.09033  0  0.994106  0
H  H23  1  0.71949941  0.07947501  0.26787217  1  0.07249  0  0.110384  0.090314  0  0.994075  0
H  H24  1  0.92052500  0.64002545  0.26787135  1  0.062811  0  0.11038  0.090315  0  0.994051  0
H  H25  1  0.64002645  0.71950062  0.26787140  1  0.056207  0  0.11042  0.09036  0  0.99416  0
H  H26  1  0.28050046  0.92052436  0.26787269  1  0.072504  0  0.110396  0.090328  0  0.99404  0
H  H27  1  0.07947516  0.35997500  0.26787099  1  0.062805  0  0.110382  0.090312  0  0.994039  0
H  H28  1  0.28050050  0.35996907  0.23212640  1  0.055879  0  0.11043  0.090322  0  0.994131  0
H  H29  1  0.07946935  0.71950026  0.23212761  1  0.07262  0  0.110428  0.09035  0  0.994081  0
H  H30  1  0.64003120  0.92053043  0.23212806  1  0.062751  0  0.110416  0.090302  0  0.994144  0
H  H31  1  0.71950009  0.64003103  0.23212685  1  0.055877  0  0.110425  0.090304  0  0.994156  0
H  H32  1  0.92053017  0.28049955  0.23212752  1  0.072626  0  0.110419  0.090318  0  0.994139  0
H  H33  1  0.35996871  0.07946899  0.23212771  1  0.062745  0  0.11042  0.090315  0  0.994132  0
H  H34  1  0.63918750  0.80788306  0.65482856  1  0.09731  0  0.121541  0.113417  0  0.943165  0
H  H35  1  0.19211746  0.83130373  0.65482803  1  0.09126  0  0.121549  0.11341  0  0.943138  0
H  H36  1  0.16869605  0.36081291  0.65482878  1  0.082572  0  0.121548  0.113406  0  0.943154  0
H  H37  1  0.36081222  0.19211694  0.65482815  1  0.097306  0  0.121544  0.113407  0  0.943143  0
H  H38  1  0.80788226  0.16869627  0.65482805  1  0.091258  0  0.121542  0.113407  0  0.943173  0
H  H39  1  0.83130406  0.63918670  0.65482918  1  0.082565  0  0.121554  0.113426  0  0.943142  0
H  H40  1  0.80788037  0.63917894  0.84516874  1  0.097391  0  0.121573  0.113431  0  0.943137  0
H  H41  1  0.83129762  0.19211870  0.84516822  1  0.090953  0  0.121579  0.113431  0  0.943114  0
H  H42  1  0.36081994  0.16870087  0.84516834  1  0.082669  0  0.121581  0.113431  0  0.943121  0
H  H43  1  0.19211913  0.36082084  0.84516896  1  0.097403  0  0.12158  0.113445  0  0.943115  0
H  H44  1  0.16870228  0.80788069  0.84516822  1  0.090971  0  0.121587  0.113457  0  0.943104  0
H  H45  1  0.63917957  0.83129891  0.84516873  1  0.082681  0  0.121587  0.113459  0  0.943084  0
H  H46  1  0.36081240  0.19211712  0.34517130  1  0.097317  0  0.121543  0.113412  0  0.943148  0
H  H47  1  0.80788282  0.16869606  0.34517183  1  0.090878  0  0.121549  0.113409  0  0.943145  0
H  H48  1  0.83130423  0.63918688  0.34517108  1  0.082579  0  0.121532  0.11338  0  0.943114  0
H  H49  1  0.63918699  0.80788256  0.34517171  1  0.097312  0  0.121549  0.113436  0  0.943135  0
H  H50  1  0.19211764  0.83130391  0.34517181  1  0.091256  0  0.121538  0.113377  0  0.943178  0
H  H51  1  0.16869516  0.36081280  0.34517130  1  0.082682  0  0.121551  0.113401  0  0.943161  0
H  H52  1  0.19211884  0.36082056  0.15483111  1  0.097383  0  0.12157  0.113425  0  0.943127  0
H  H53  1  0.16870228  0.80788148  0.15483163  1  0.090954  0  0.121578  0.113453  0  0.943108  0
H  H54  1  0.63917996  0.83129931  0.15483152  1  0.082677  0  0.121589  0.113439  0  0.943103  0
H  H55  1  0.80788076  0.63917934  0.15483090  1  0.09739  0  0.121579  0.113441  0  0.943118  0
H  H56  1  0.83129733  0.19211842  0.15483164  1  0.09095  0  0.121577  0.113433  0  0.943115  0
H  H57  1  0.36082033  0.16870127  0.15483112  1  0.082663  0  0.121575  0.113434  0  0.943107  0
H  H58  1  0.35791619  0.53914508  0.55028484  1  0.630108  0  0.293521  0.382507  0  0.949018  0
H  H59  1  0.46085531  0.81877175  0.55028412  1  0.627947  0  0.293512  0.382475  0  0.949082  0
H  H60  1  0.18122812  0.64208463  0.55028486  1  0.629271  0  0.293532  0.382467  0  0.949082  0
H  H61  1  0.64208393  0.46085612  0.55028417  1  0.630084  0  0.293522  0.382448  0  0.949113  0
H  H62  1  0.53914453  0.18122838  0.55028489  1  0.627938  0  0.293492  0.382441  0  0.949131  0
H  H63  1  0.81877279  0.35791578  0.55028415  1  0.629269  0  0.293525  0.38245  0  0.94911  0
H  H64  1  0.53914367  0.35791425  0.94971524  1  0.630113  0  0.293513  0.382427  0  0.949135  0
H  H65  1  0.81877107  0.46085656  0.94971514  1  0.627932  0  0.293536  0.382453  0  0.949103  0
H  H66  1  0.64208622  0.18122836  0.94971526  1  0.629271  0  0.293507  0.382403  0  0.949159  0
H  H67  1  0.46085678  0.64208569  0.94971518  1  0.63012  0  0.293529  0.382444  0  0.949108  0
H  H68  1  0.18122900  0.53914377  0.94971527  1  0.627933  0  0.293515  0.382421  0  0.94915  0
H  H69  1  0.35791384  0.81877197  0.94971516  1  0.629278  0  0.293521  0.382429  0  0.949123  0
H  H70  1  0.64208370  0.46085510  0.44971501  1  0.630108  0  0.293516  0.382449  0  0.949103  0
H  H71  1  0.53914459  0.18122843  0.44971574  1  0.627937  0  0.293522  0.382477  0  0.949079  0
H  H72  1  0.81877178  0.35791555  0.44971500  1  0.629274  0  0.293506  0.382425  0  0.949135  0
H  H73  1  0.35791596  0.53914406  0.44971569  1  0.630063  0  0.293521  0.382497  0  0.949039  0
H  H74  1  0.46085508  0.81877073  0.44971559  1  0.627931  0  0.293527  0.382495  0  0.949056  0
H  H75  1  0.18122710  0.64208440  0.44971570  1  0.62933  0  0.293518  0.382455  0  0.949108  0
H  H76  1  0.46085661  0.64208553  0.05028525  1  0.630113  0  0.293518  0.38243  0  0.949129  0
H  H77  1  0.18122883  0.53914362  0.05028534  1  0.627936  0  0.293527  0.382445  0  0.949115  0
H  H78  1  0.35791367  0.81877182  0.05028460  1  0.629274  0  0.29351  0.382414  0  0.949144  0
H  H79  1  0.53914350  0.35791410  0.05028530  1  0.630116  0  0.293534  0.382464  0  0.949077  0
H  H80  1  0.81877090  0.46085641  0.05028521  1  0.627931  0  0.293515  0.382422  0  0.94915  0
H  H81  1  0.64208605  0.18122821  0.05028470  1  0.629276  0  0.293521  0.382433  0  0.949116  0
C  C82  1  0.58923154  0.74010353  0.69542620  1  0.41008  0  -0.057338  -0.114051  0  3.917833  0
C  C83  1  0.25989783  0.84912557  0.69542499  1  0.397843  0  -0.057276  -0.113983  0  3.917769  0
C  C84  1  0.15087332  0.41077149  0.69542513  1  0.423761  0  -0.057275  -0.113908  0  3.917787  0
C  C85  1  0.41076852  0.25989603  0.69542636  1  0.410081  0  -0.057329  -0.113988  0  3.917806  0
C  C86  1  0.74010223  0.15087399  0.69542443  1  0.397827  0  -0.057297  -0.114003  0  3.917839  0
C  C87  1  0.84912693  0.58923061  0.69542680  1  0.424906  0  -0.057334  -0.114022  0  3.917906  0
C  C88  1  0.74010185  0.58923024  0.80457116  1  0.410054  0  -0.05736  -0.114006  0  3.917775  0
C  C89  1  0.84912762  0.25989784  0.80457059  1  0.398416  0  -0.057357  -0.11398  0  3.917684  0
C  C90  1  0.41076920  0.15087117  0.80457009  1  0.423703  0  -0.057392  -0.114054  0  3.91773  0
C  C91  1  0.25989838  0.41077027  0.80457069  1  0.410057  0  -0.057356  -0.114007  0  3.917793  0
C  C92  1  0.15087164  0.74010091  0.80457063  1  0.398394  0  -0.057363  -0.114015  0  3.917769  0
C  C93  1  0.58922996  0.84912904  0.80457050  1  0.423662  0  -0.057386  -0.11405  0  3.917749  0
C  C94  1  0.41076875  0.25989625  0.30457303  1  0.410092  0  -0.057334  -0.113999  0  3.917841  0
C  C95  1  0.74010285  0.15087382  0.30457424  1  0.398228  0  -0.057267  -0.113955  0  3.917798  0
C  C96  1  0.84912696  0.58922830  0.30457473  1  0.423752  0  -0.057247  -0.113902  0  3.917734  0
C  C97  1  0.58923176  0.74010376  0.30457350  1  0.410081  0  -0.057393  -0.114147  0  3.917959  0
C  C98  1  0.25989766  0.84912619  0.30457543  1  0.397827  0  -0.057263  -0.113884  0  3.917729  0
C  C99  1  0.15087354  0.41077172  0.30457494  1  0.423661  0  -0.057263  -0.113899  0  3.917772  0
C  C100  1  0.25989804  0.41076994  0.19542870  1  0.410064  0  -0.057358  -0.113994  0  3.917778  0
C  C101  1  0.15087159  0.74010166  0.19542927  1  0.398414  0  -0.05741  -0.11411  0  3.917747  0
C  C102  1  0.58922962  0.84912872  0.19542914  1  0.423693  0  -0.057352  -0.113965  0  3.917736  0
C  C103  1  0.74010152  0.58922991  0.19542917  1  0.410065  0  -0.057356  -0.113994  0  3.917789  0
C  C104  1  0.84912797  0.25989820  0.19542923  1  0.398415  0  -0.057349  -0.113998  0  3.917735  0
C  C105  1  0.41076954  0.15087153  0.19542936  1  0.423704  0  -0.05736  -0.114017  0  3.917758  0
C  C106  1  0.51639116  0.64863023  0.64013246  1  1.616797  0  0.224632  0.633308  0  4.165301  0
C  C107  1  0.35136693  0.86775873  0.64013181  1  1.61757  0  0.224671  0.633458  0  4.164926  0
C  C108  1  0.13224130  0.48360833  0.64013196  1  1.613453  0  0.224631  0.633321  0  4.165161  0
C  C109  1  0.48360751  0.35136950  0.64013191  1  1.616827  0  0.224609  0.633282  0  4.165288  0
C  C110  1  0.64863445  0.13224372  0.64013130  1  1.617594  0  0.224659  0.633365  0  4.165131  0
C  C111  1  0.86776058  0.51639226  0.64013241  1  1.613883  0  0.224603  0.633258  0  4.165307  0
C  C112  1  0.64862774  0.51639056  0.85986184  1  1.616889  0  0.224648  0.633259  0  4.165395  0
C  C113  1  0.86776227  0.35137083  0.85986183  1  1.617394  0  0.224713  0.633329  0  4.165316  0
C  C114  1  0.48360964  0.13223806  0.85986197  1  1.613406  0  0.224737  0.633421  0  4.165259  0
C  C115  1  0.35137165  0.48361067  0.85986191  1  1.616886  0  0.224663  0.633311  0  4.165318  0
C  C116  1  0.13223721  0.64862894  0.85986192  1  1.617402  0  0.224672  0.633305  0  4.16517  0
C  C117  1  0.51639063  0.86776092  0.85985989  1  1.613081  0  0.224782  0.633426  0  4.165311  0
C  C118  1  0.48360874  0.35136995  0.35986740  1  1.616827  0  0.224666  0.633353  0  4.165271  0
C  C119  1  0.64863267  0.13224038  0.35986804  1  1.617574  0  0.224638  0.633407  0  4.164995  0
C  C120  1  0.86775967  0.51639213  0.35986727  1  1.61341  0  0.224684  0.63343  0  4.16503  0
C  C121  1  0.51639317  0.64862990  0.35986857  1  1.616834  0  0.224591  0.633267  0  4.165392  0
C  C122  1  0.35136545  0.86775646  0.35986918  1  1.617601  0  0.224646  0.633399  0  4.165006  0
C  C123  1  0.13224146  0.48360850  0.35986808  1  1.613447  0  0.224628  0.633333  0  4.165171  0
C  C124  1  0.35137137  0.48361041  0.14013802  1  1.616881  0  0.224652  0.633229  0  4.165353  0
C  C125  1  0.13223694  0.64862868  0.14013866  1  1.617368  0  0.224735  0.633367  0  4.165252  0
C  C126  1  0.51639172  0.86776202  0.14013851  1  1.613764  0  0.224793  0.633456  0  4.165241  0
C  C127  1  0.64862825  0.51638951  0.14013794  1  1.616883  0  0.224685  0.633311  0  4.165301  0
C  C128  1  0.86776200  0.35137056  0.14013730  1  1.617398  0  0.224692  0.633372  0  4.165296  0
C  C129  1  0.48360937  0.13223780  0.14013808  1  1.61339  0  0.224737  0.633454  0  4.165269  0
O  O130  1  0.52773048  0.76386821  0.74999554  1  -1.094978  0  -0.269946  -0.256616  0  2.769148  0
O  O131  1  0.23613107  0.76386145  0.74999561  1  -1.103075  0  -0.269948  -0.256619  0  2.769208  0
O  O132  1  0.23613862  0.47226920  0.74999631  1  -1.094994  0  -0.269949  -0.256629  0  2.769221  0
O  O133  1  0.47226884  0.23613061  0.74999632  1  -1.095009  0  -0.269929  -0.256587  0  2.769221  0
O  O134  1  0.76386855  0.23613844  0.74999562  1  -1.103071  0  -0.269966  -0.256678  0  2.76925  0
O  O135  1  0.76386099  0.52773069  0.74999618  1  -1.094996  0  -0.269951  -0.256634  0  2.76925  0
O  O136  1  0.47226913  0.23613090  0.25000369  1  -1.095017  0  -0.269945  -0.256626  0  2.769269  0
O  O137  1  0.76386883  0.23613873  0.25000424  1  -1.103078  0  -0.269957  -0.256643  0  2.769239  0
O  O138  1  0.76386127  0.52773098  0.25000417  1  -1.094986  0  -0.26995  -0.25664  0  2.769235  0
O  O139  1  0.52773076  0.76386850  0.25000417  1  -1.095  0  -0.269938  -0.256595  0  2.76923  0
O  O140  1  0.23613174  0.76386134  0.25000486  1  -1.103064  0  -0.269908  -0.256602  0  2.769204  0
O  O141  1  0.23613891  0.47226949  0.25000368  1  -1.094989  0  -0.269947  -0.256632  0  2.769208  0
O  O142  1  0.41756105  0.61455914  0.64609578  1  -1.195229  0  -0.377551  -0.650563  0  2.277836  0
O  O143  1  0.38544264  0.80299516  0.64609448  1  -1.189019  0  -0.377659  -0.650757  0  2.277517  0
O  O144  1  0.19700417  0.58244675  0.64609521  1  -1.196993  0  -0.377647  -0.650687  0  2.277617  0
O  O145  1  0.58243975  0.38544116  0.64609580  1  -1.195216  0  -0.377525  -0.650547  0  2.277782  0
O  O146  1  0.61455748  0.19700446  0.64609458  1  -1.189007  0  -0.377622  -0.650642  0  2.277657  0
O  O147  1  0.80299914  0.41755920  0.64609574  1  -1.197346  0  -0.377556  -0.650596  0  2.277756  0
O  O148  1  0.61455536  0.41756305  0.85390047  1  -1.195476  0  -0.377585  -0.650579  0  2.277992  0
O  O149  1  0.80300726  0.38544487  0.85389917  1  -1.188914  0  -0.377577  -0.650575  0  2.277974  0
O  O150  1  0.58243626  0.19699232  0.85389990  1  -1.19769  0  -0.377586  -0.650596  0  2.277984  0
O  O151  1  0.38544413  0.58243672  0.85390048  1  -1.195497  0  -0.377544  -0.650515  0  2.278014  0
O  O152  1  0.19699477  0.61455508  0.85389926  1  -1.188939  0  -0.377571  -0.650562  0  2.277701  0
O  O153  1  0.41756080  0.80300581  0.85389916  1  -1.197305  0  -0.377606  -0.650585  0  2.277941  0
O  O154  1  0.58243885  0.38544104  0.35390408  1  -1.195232  0  -0.377567  -0.650582  0  2.277815  0
O  O155  1  0.61455804  0.19700424  0.35390412  1  -1.188976  0  -0.377658  -0.650739  0  2.27757  0
O  O156  1  0.80299641  0.41755411  0.35390527  1  -1.196973  0  -0.37763  -0.650689  0  2.277612  0
O  O157  1  0.41756014  0.61455902  0.35390406  1  -1.195187  0  -0.377539  -0.650566  0  2.277733  0
O  O158  1  0.38544281  0.80299533  0.35390527  1  -1.18901  0  -0.377632  -0.650682  0  2.277586  0
O  O159  1  0.19700365  0.58244624  0.35390537  1  -1.196994  0  -0.377648  -0.650697  0  2.277624  0
O  O160  1  0.38544385  0.58243645  0.14609939  1  -1.195497  0  -0.377582  -0.65053  0  2.278035  0
O  O161  1  0.19699263  0.61455531  0.14610068  1  -1.188906  0  -0.377594  -0.650597  0  2.277909  0
O  O162  1  0.41756053  0.80300554  0.14610121  1  -1.197314  0  -0.377625  -0.650631  0  2.277918  0
O  O163  1  0.61455576  0.41756346  0.14609938  1  -1.195493  0  -0.377578  -0.650548  0  2.277995  0
O  O164  1  0.80300659  0.38544500  0.14610060  1  -1.188931  0  -0.377585  -0.650591  0  2.277911  0
O  O165  1  0.58243734  0.19699341  0.14610007  1  -1.197705  0  -0.377602  -0.650646  0  2.278016  0
O  O166  1  0.56163720  0.61590952  0.59234258  1  -1.161462  0  -0.306088  -0.534881  0  2.291251  0
O  O167  1  0.38409183  0.94572352  0.59234254  1  -1.160765  0  -0.306077  -0.534921  0  2.291256  0
O  O168  1  0.05427434  0.43836589  0.59234212  1  -1.158799  0  -0.306057  -0.534891  0  2.291334  0
O  O169  1  0.43836259  0.38409056  0.59234330  1  -1.161504  0  -0.306109  -0.534904  0  2.291297  0
O  O170  1  0.61590835  0.05427617  0.59234145  1  -1.160776  0  -0.306079  -0.53491  0  2.291225  0
O  O171  1  0.94572602  0.56163633  0.59234313  1  -1.15881  0  -0.306064  -0.534836  0  2.291302  0
O  O172  1  0.61590514  0.56163708  0.90766050  1  -1.161287  0  -0.306113  -0.534924  0  2.29107  0
O  O173  1  0.94572961  0.38409438  0.90765984  1  -1.160648  0  -0.306167  -0.534983  0  2.291046  0
O  O174  1  0.43836325  0.05426947  0.90766005  1  -1.158035  0  -0.306175  -0.535023  0  2.291001  0
O  O175  1  0.38409429  0.43836262  0.90766059  1  -1.16126  0  -0.306159  -0.535016  0  2.291031  0
O  O176  1  0.05426993  0.61590386  0.90765811  1  -1.160607  0  -0.306129  -0.534953  0  2.291178  0
O  O177  1  0.56163540  0.94573102  0.90765853  1  -1.158096  0  -0.306219  -0.535073  0  2.291064  0
O  O178  1  0.43836270  0.38409066  0.40765728  1  -1.161489  0  -0.306122  -0.534941  0  2.291296  0
O  O179  1  0.61590982  0.05427763  0.40765732  1  -1.16077  0  -0.306031  -0.534865  0  2.29129  0
O  O180  1  0.94572809  0.56163447  0.40765711  1  -1.158774  0  -0.306123  -0.534976  0  2.291254  0
O  O181  1  0.56163730  0.61590962  0.40765656  1  -1.161527  0  -0.306053  -0.534827  0  2.291449  0
O  O182  1  0.38409193  0.94572362  0.40765840  1  -1.160787  0  -0.306079  -0.534951  0  2.291223  0
O  O183  1  0.05427484  0.43836560  0.40765798  1  -1.158791  0  -0.306054  -0.534893  0  2.291343  0
O  O184  1  0.38409475  0.43836310  0.09233935  1  -1.161258  0  -0.306124  -0.534929  0  2.290956  0
O  O185  1  0.05427028  0.61590580  0.09234001  1  -1.160635  0  -0.306177  -0.534993  0  2.291051  0
O  O186  1  0.56163450  0.94573013  0.09234232  1  -1.158783  0  -0.306201  -0.535069  0  2.291082  0
O  O187  1  0.61590532  0.56163648  0.09233927  1  -1.161258  0  -0.306163  -0.534992  0  2.291012  0
O  O188  1  0.94572939  0.38409417  0.09234049  1  -1.160652  0  -0.306137  -0.534988  0  2.291121  0
O  O189  1  0.43836450  0.05426916  0.09234132  1  -1.15802  0  -0.306163  -0.535025  0  2.291013  0
O  O190  1  0.34932905  0.49588658  0.49999996  1  -1.236179  0  -0.57818  -0.738121  0  2.034566  0
O  O191  1  0.50411306  0.85344234  0.50000047  1  -1.230625  0  -0.578199  -0.738096  0  2.034598  0
O  O192  1  0.14655663  0.65067087  0.49999997  1  -1.232926  0  -0.578208  -0.738049  0  2.034662  0
O  O193  1  0.65067085  0.50411360  0.49999989  1  -1.236179  0  -0.578178  -0.738019  0  2.034685  0
O  O194  1  0.49588683  0.14655784  0.49999939  1  -1.230629  0  -0.578177  -0.738053  0  2.034638  0
O  O195  1  0.85344366  0.34932892  0.50000051  1  -1.232866  0  -0.578186  -0.738006  0  2.034692  0
O  O196  1  0.49588611  0.34932881  0.99999951  1  -1.236204  0  -0.578188  -0.738031  0  2.034662  0
O  O197  1  0.85344334  0.50411368  0.00000030  1  -1.230604  0  -0.578191  -0.738009  0  2.034703  0
O  O198  1  0.65067064  0.14655583  0.99999953  1  -1.232722  0  -0.578166  -0.737956  0  2.034765  0
O  O199  1  0.50411378  0.65067137  0.00000034  1  -1.23621  0  -0.578191  -0.738022  0  2.034686  0
O  O200  1  0.14655695  0.49588611  0.99999956  1  -1.23061  0  -0.578191  -0.738005  0  2.034695  0
O  O201  1  0.34932925  0.85344435  0.00000033  1  -1.232864  0  -0.57817  -0.737962  0  2.034749  0
