# generated using pymatgen
data_MnH17C7Br2NO4
_symmetry_space_group_name_H-M   'P 1'
_cell_length_a   8.28661845
_cell_length_b   8.16221126
_cell_length_c   9.33858534
_cell_angle_alpha   91.03588466
_cell_angle_beta   89.99969282
_cell_angle_gamma   89.99944971
_symmetry_Int_Tables_number   1
_chemical_formula_structural   MnH17C7Br2NO4
_chemical_formula_sum   'Mn2 H34 C14 Br4 N2 O8'
_cell_volume   631.53188491
_cell_formula_units_Z   2
loop_
 _symmetry_equiv_pos_site_id
 _symmetry_equiv_pos_as_xyz
  1  'x, y, z'
loop_
 _atom_site_type_symbol
 _atom_site_label
 _atom_site_symmetry_multiplicity
 _atom_site_fract_x
 _atom_site_fract_y
 _atom_site_fract_z
 _atom_site_occupancy
 _atom_site_hle17_ddec_charge
 _atom_site_hle17_ddec_spin_density
 _atom_site_hle17_ddec_sum_bond_order
 _atom_site_hle17_magmom
 _atom_site_hse06_10hf_ddec_charge
 _atom_site_hse06_10hf_ddec_spin_density
 _atom_site_hse06_10hf_ddec_sum_bond_order
 _atom_site_hse06_10hf_magmom
 _atom_site_hse06_ddec_charge
 _atom_site_hse06_ddec_spin_density
 _atom_site_hse06_ddec_sum_bond_order
 _atom_site_hse06_magmom
 _atom_site_pbe_cm5_charge
 _atom_site_pbe_ddec_charge
 _atom_site_pbe_ddec_spin_density
 _atom_site_pbe_ddec_sum_bond_order
 _atom_site_pbe_magmom
Mn  Mn0  1  0.17768787  0.00181460  0.33472632  1  1.057937  4.771472  1.897318  4.659  0.907738  4.701159  2.387678  4.528  0.972866  4.748519  2.316042  4.593  0.441937  0.856483  4.654216  2.438892  4.465
Mn  Mn1  1  0.67768460  0.99818553  0.66527931  1  1.057845  4.771433  1.89741  4.659  0.907715  4.701122  2.387678  4.528  0.972794  4.748481  2.316135  4.593  0.441889  0.856454  4.654181  2.438902  4.465
H  H2  1  0.99554663  0.08894286  0.85944791  1  0.080284  0.000271  0.960492  0.0  0.078143  0.000698  1.041337  0.0  0.081654  0.000421  1.038894  0.0  0.103688  0.075231  0.000958  1.04357  0.001
H  H3  1  0.49554716  0.91105052  0.14055498  1  0.080242  0.000256  0.960496  0.0  0.078075  0.000698  1.041372  0.0  0.081586  0.00042  1.038931  0.0  0.10366  0.075176  0.000958  1.043599  0.001
H  H4  1  0.00878222  0.42666631  0.72948354  1  0.082934  0.000286  0.94404  0.0  0.097646  0.000642  1.007244  0.0  0.09927  0.000434  1.006833  0.0  0.086175  0.096543  0.000896  1.007521  0.0
H  H5  1  0.50879505  0.57332210  0.27051189  1  0.083034  0.000289  0.943986  0.0  0.097693  0.000642  1.007186  0.0  0.09932  0.000434  1.006784  0.0  0.08625  0.096593  0.000896  1.007459  0.0
H  H6  1  0.89092482  0.35756809  0.87379114  1  0.090279  -0.000194  0.955044  0.0  0.105634  -0.000155  1.01756  0.0  0.107223  -0.000192  1.01748  0.0  0.089996  0.104206  -7.8e-05  1.018131  0.0
H  H7  1  0.39093525  0.64242391  0.12620794  1  0.090339  -0.000199  0.955025  0.0  0.105671  -0.000155  1.017505  0.0  0.107268  -0.000192  1.017425  0.0  0.090002  0.104242  -7.8e-05  1.018084  0.0
H  H8  1  0.15372313  0.55310309  0.92818825  1  0.087315  0.000284  0.954876  0.0  0.102502  0.000631  1.020159  0.0  0.104187  0.000438  1.019669  0.0  0.091306  0.101057  0.000777  1.02089  0.0
H  H9  1  0.65374199  0.44690241  0.07179728  1  0.08737  0.000278  0.954839  0.0  0.102587  0.000631  1.020087  0.0  0.104243  0.000438  1.019622  0.0  0.091309  0.101144  0.000777  1.020818  0.0
H  H10  1  0.12320271  0.38167590  0.03942141  1  0.07675  -0.000168  0.946239  0.0  0.092514  -0.000179  1.011147  0.0  0.093436  -0.000182  1.011866  0.0  0.08909  0.09185  -0.000146  1.01051  0.0
H  H11  1  0.62321579  0.61833711  0.96057622  1  0.076813  -0.000165  0.94612  0.0  0.092504  -0.000179  1.011093  0.0  0.093425  -0.000183  1.011805  0.0  0.089082  0.091843  -0.000146  1.01046  0.0
H  H12  1  0.39567568  0.32705378  0.94772866  1  0.086021  -6.4e-05  0.95254  0.0  0.097622  6.5e-05  1.019698  0.0  0.099316  -3e-05  1.019029  0.0  0.100449  0.09596  0.000218  1.020845  0.0
H  H13  1  0.89568766  0.67295528  0.05227402  1  0.085948  -7.8e-05  0.952682  0.0  0.09747  6.5e-05  1.019862  0.0  0.099177  -3e-05  1.019179  0.0  0.100408  0.095807  0.000218  1.021005  0.0
H  H14  1  0.33848491  0.38874153  0.77174882  1  0.076155  -0.000134  0.923584  0.0  0.096488  -0.000134  0.978207  0.0  0.096813  -0.00014  0.978776  0.0  0.111635  0.095964  -9e-05  0.978253  0.0
H  H15  1  0.83849522  0.61125588  0.22824956  1  0.076165  -0.000137  0.923582  0.0  0.096482  -0.000134  0.978184  0.0  0.096801  -0.00014  0.978759  0.0  0.111651  0.09597  -9e-05  0.97821  0.0
H  H16  1  0.24528623  0.08997671  0.92506221  1  0.280506  -0.000118  0.897504  0.0  0.262959  0.000102  0.96252  0.0  0.27119  -5.8e-05  0.956537  0.0  0.283128  0.256937  0.000309  0.967072  0.0
H  H17  1  0.74528856  0.91002641  0.07494532  1  0.280483  -0.000109  0.897486  0.0  0.262932  0.000101  0.962522  0.0  0.271162  -5.7e-05  0.956539  0.0  0.283109  0.256911  0.000309  0.967065  0.0
H  H18  1  0.30589522  0.10716876  0.75467927  1  0.309802  -0.000681  0.870968  0.0  0.284839  -0.000681  0.94127  0.0  0.293835  -0.000758  0.933694  0.0  0.315289  0.278464  -0.000548  0.946653  0.0
H  H19  1  0.80589548  0.89283009  0.24532786  1  0.309677  -0.000689  0.871079  0.0  0.284774  -0.000681  0.941292  0.0  0.29377  -0.000758  0.933717  0.0  0.315279  0.278398  -0.000548  0.946669  0.0
H  H20  1  0.98458330  0.78385015  0.50852794  1  0.349916  -0.000296  0.916438  0.001  0.324465  0.000237  0.99674  0.001  0.335114  -3.9e-05  0.984994  0.001  0.271462  0.316621  0.000578  1.005328  0.002
H  H21  1  0.48458116  0.21614827  0.49147192  1  0.349912  -0.000306  0.916421  0.001  0.324469  0.000237  0.996715  0.001  0.335116  -4e-05  0.984977  0.001  0.271448  0.316621  0.000578  1.005303  0.002
H  H22  1  0.14955547  0.59123662  0.29588422  1  0.08075  -0.000205  0.957696  0.0  0.095951  -9e-05  1.030813  0.0  0.096481  -0.000148  1.030833  0.0  0.092306  0.095479  -9e-06  1.030795  0.0
H  H23  1  0.64954315  0.40877002  0.70411099  1  0.080724  -0.000208  0.957669  0.0  0.095933  -9.1e-05  1.03078  0.0  0.096461  -0.000148  1.030801  0.0  0.09228  0.095462  -9e-06  1.030757  0.0
H  H24  1  0.03146737  0.52329514  0.44469031  1  0.064248  0.000384  0.957269  0.0  0.081359  0.000734  1.02818  0.001  0.082407  0.000511  1.02641  0.0  0.087385  0.080409  0.000963  1.029846  0.001
H  H25  1  0.53145650  0.47670900  0.55530325  1  0.06422  0.000382  0.957373  0.0  0.081319  0.000733  1.0283  0.001  0.082358  0.000512  1.026531  0.0  0.087392  0.080369  0.000963  1.029968  0.001
H  H26  1  0.22795957  0.60942873  0.47283149  1  0.072063  -0.000294  0.950408  0.0  0.08858  -0.000174  1.019435  0.0  0.089779  -0.000265  1.018454  0.0  0.087179  0.087653  -6.1e-05  1.020287  0.0
H  H27  1  0.72794969  0.39056982  0.52716209  1  0.072065  -0.000289  0.95035  0.0  0.088591  -0.000174  1.019374  0.0  0.089789  -0.000266  1.018394  0.0  0.087202  0.087663  -6.1e-05  1.020221  0.0
H  H28  1  0.89597406  0.10904844  0.42142339  1  0.373187  -0.000445  0.911466  0.0  0.347878  0.000242  0.977148  0.001  0.358843  -2.9e-05  0.966503  0.001  0.302708  0.340193  0.000419  0.984479  0.001
H  H29  1  0.39596974  0.89094961  0.57857795  1  0.373122  -0.000446  0.91157  0.0  0.347808  0.000242  0.977265  0.001  0.358775  -2.9e-05  0.966619  0.001  0.302707  0.340127  0.000419  0.984593  0.001
H  H30  1  0.94334248  0.34692339  0.27931732  1  0.060697  -0.000102  0.974605  0.0  0.076307  0.000102  1.049451  0.0  0.076759  -3e-06  1.049137  0.0  0.0875  0.075994  0.00028  1.04972  0.0
H  H31  1  0.44334684  0.65308027  0.72068821  1  0.060727  -0.000106  0.974588  0.0  0.07631  0.000102  1.04945  0.0  0.076747  -3e-06  1.049151  0.0  0.087511  0.076003  0.00028  1.049714  0.0
H  H32  1  0.74638691  0.25655956  0.25250393  1  0.078149  0.00063  0.945013  0.001  0.093043  0.001133  1.015557  0.001  0.094341  0.000787  1.014472  0.001  0.087092  0.092141  0.001448  1.01631  0.001
H  H33  1  0.24638902  0.74344359  0.74750038  1  0.07809  0.000628  0.94508  0.001  0.093007  0.001133  1.015588  0.001  0.094309  0.000787  1.014505  0.001  0.087091  0.09211  0.001448  1.016341  0.001
H  H34  1  0.90440368  0.21587258  0.12732532  1  0.081166  -0.000148  0.96566  0.0  0.098257  9.8e-05  1.034231  0.0  0.09888  -2e-05  1.034315  0.0  0.089248  0.097514  0.000229  1.03474  0.0
H  H35  1  0.40440224  0.78413642  0.87267625  1  0.081146  -0.000165  0.965694  0.0  0.098227  9.8e-05  1.03425  0.0  0.09885  -2.1e-05  1.034332  0.0  0.08925  0.097484  0.000229  1.034768  0.0
C  C36  1  0.03757613  0.12735145  0.63720141  1  0.66748  0.007877  3.821659  0.008  0.610735  0.013241  4.123388  0.012  0.646533  0.009675  4.115701  0.01  0.230319  0.584971  0.017497  4.128901  0.016
C  C37  1  0.53756623  0.87263412  0.36280345  1  0.667619  0.007871  3.821762  0.008  0.61074  0.01324  4.123732  0.012  0.646543  0.009676  4.116038  0.01  0.230366  0.584985  0.017497  4.129235  0.016
C  C38  1  0.06277872  0.17582420  0.79317671  1  -0.000339  0.000776  3.504221  0.001  -0.018371  0.001759  3.741937  0.001  -0.020391  0.001197  3.752302  0.001  0.006701  -0.016509  0.002343  3.734935  0.002
C  C39  1  0.56278107  0.82417094  0.20682719  1  -0.000232  0.000815  3.504135  0.001  -0.018232  0.001759  3.741845  0.001  -0.020244  0.001199  3.75222  0.001  0.00677  -0.016394  0.002343  3.734844  0.002
C  C40  1  0.01236395  0.35425117  0.82749785  1  -0.141739  0.00066  3.629448  0.001  -0.184164  0.001316  3.879262  0.001  -0.185148  0.000909  3.891254  0.001  -0.163979  -0.183443  0.001741  3.87131  0.001
C  C41  1  0.51237426  0.64574211  0.17249768  1  -0.142025  0.000659  3.629724  0.001  -0.18428  0.001317  3.87932  0.001  -0.185295  0.000909  3.891348  0.001  -0.164036  -0.183551  0.00174  3.87137  0.001
C  C42  1  0.14422291  0.41904233  0.92840027  1  -0.134525  0.000314  3.657626  0.0  -0.172666  0.000663  3.912224  0.001  -0.174654  0.000488  3.925057  0.0  -0.16595  -0.17124  0.000856  3.903395  0.001
C  C43  1  0.64423445  0.58096193  0.07159384  1  -0.134618  0.000299  3.65768  0.0  -0.172759  0.000663  3.912103  0.001  -0.174713  0.000488  3.924947  0.0  -0.165961  -0.171339  0.000856  3.903275  0.001
C  C44  1  0.29570144  0.33524661  0.87170396  1  0.041223  -1.5e-05  3.509336  0.0  -0.017601  0.000155  3.761933  0.0  -0.013654  5.4e-05  3.771745  0.0  -0.063269  -0.0199  0.000308  3.755362  0.0
C  C45  1  0.79571062  0.66475614  0.12829261  1  0.041239  4.4e-05  3.509389  0.0  -0.017403  0.000154  3.761765  0.0  -0.013451  5.7e-05  3.771537  0.0  -0.063263  -0.019705  0.000308  3.755183  0.0
C  C46  1  0.11750816  0.61610681  0.40799240  1  -0.033275  0.000938  3.677551  0.001  -0.133012  0.002289  3.952861  0.002  -0.125715  0.001588  3.955842  0.001  -0.15826  -0.138267  0.003008  3.951157  0.002
C  C47  1  0.61749796  0.38389525  0.59200285  1  -0.033251  0.000933  3.677596  0.001  -0.132994  0.002291  3.952907  0.002  -0.125683  0.001587  3.95589  0.001  -0.158328  -0.138253  0.003008  3.951208  0.002
C  C48  1  0.87736084  0.23790773  0.24082771  1  -0.026375  0.001944  3.641254  0.002  -0.123172  0.003841  3.905901  0.003  -0.116465  0.002877  3.910348  0.002  -0.156559  -0.127874  0.004803  3.90308  0.004
C  C49  1  0.37736271  0.76209536  0.75917706  1  -0.026293  0.001979  3.641227  0.002  -0.123058  0.003842  3.905892  0.003  -0.116336  0.002877  3.910337  0.002  -0.156549  -0.12776  0.004803  3.903075  0.004
Br  Br50  1  0.15360579  0.89231965  0.07454790  1  -0.573476  0.053678  0.978681  0.029  -0.525446  0.065767  1.287119  0.03  -0.548483  0.054923  1.261644  0.023  -0.225984  -0.506576  0.075638  1.305093  0.037
Br  Br51  1  0.65360952  0.10768441  0.92545580  1  -0.573459  0.05368  0.978664  0.029  -0.525462  0.065768  1.287143  0.03  -0.548489  0.054938  1.261671  0.023  -0.22599  -0.506596  0.075642  1.305119  0.037
Br  Br52  1  0.35347987  0.25614369  0.28148764  1  -0.597878  0.057283  0.894702  0.032  -0.540995  0.069377  1.181486  0.034  -0.565819  0.057153  1.156775  0.026  -0.253729  -0.520365  0.081244  1.198566  0.042
Br  Br53  1  0.85346786  0.74384504  0.71850724  1  -0.597905  0.05729  0.894743  0.032  -0.540996  0.069378  1.181465  0.034  -0.565808  0.057152  1.156766  0.026  -0.253742  -0.520394  0.081247  1.198592  0.042
N  N54  1  0.23834121  0.16475015  0.83524456  1  -0.282651  0.000121  3.268944  0.0  -0.216896  0.000661  3.471635  0.001  -0.230398  0.000344  3.478118  0.001  -0.470833  -0.207722  0.001031  3.467193  0.001
N  N55  1  0.73834613  0.83524691  0.16476285  1  -0.282492  9.5e-05  3.268922  0.0  -0.216807  0.000663  3.471537  0.001  -0.230306  0.000341  3.478014  0.001  -0.470836  -0.207644  0.001031  3.467109  0.001
O  O56  1  0.15830974  0.09163635  0.56102006  1  -0.601343  0.029097  2.074974  0.021  -0.540211  0.037617  2.334562  0.027  -0.568253  0.033086  2.321946  0.023  -0.294797  -0.520231  0.042019  2.343418  0.031
O  O57  1  0.65829541  0.90836398  0.43898459  1  -0.601392  0.029094  2.075012  0.021  -0.540331  0.037616  2.334784  0.027  -0.568374  0.033086  2.322171  0.023  -0.294815  -0.520342  0.042018  2.343612  0.031
O  O58  1  0.89086762  0.13015910  0.59272945  1  -0.640245  0.025669  2.126146  0.012  -0.561093  0.032531  2.375214  0.017  -0.593886  0.029287  2.36471  0.014  -0.303604  -0.537464  0.035906  2.382408  0.02
O  O59  1  0.39086212  0.86981575  0.40726813  1  -0.640303  0.025674  2.126354  0.012  -0.561073  0.032532  2.375456  0.017  -0.593877  0.029288  2.364963  0.014  -0.303681  -0.537447  0.035908  2.382639  0.02
O  O60  1  0.04504355  0.77619993  0.41647560  1  -0.518376  0.022809  2.208931  0.015  -0.443104  0.030667  2.46179  0.021  -0.465372  0.027317  2.449522  0.018  -0.398629  -0.42665  0.033912  2.470339  0.024
O  O61  1  0.54503614  0.22380277  0.58352536  1  -0.518372  0.022828  2.208956  0.015  -0.443095  0.030664  2.461765  0.021  -0.465331  0.027316  2.449431  0.018  -0.398557  -0.426638  0.033911  2.470306  0.024
O  O62  1  0.92656714  0.09500411  0.31701321  1  -0.546551  0.028373  2.271032  0.018  -0.465884  0.035705  2.525238  0.023  -0.490653  0.031866  2.514405  0.02  -0.398947  -0.447373  0.039351  2.532121  0.027
O  O63  1  0.42656447  0.90499734  0.68298593  1  -0.546526  0.028369  2.271081  0.018  -0.465858  0.035701  2.525269  0.023  -0.490623  0.031863  2.514434  0.02  -0.398953  -0.447353  0.039347  2.53216  0.027
