# generated using pymatgen
data_CdH12C15(NO)4
_symmetry_space_group_name_H-M   'P 1'
_cell_length_a   7.91568305
_cell_length_b   9.55631575
_cell_length_c   10.91382331
_cell_angle_alpha   101.53243555
_cell_angle_beta   104.63487688
_cell_angle_gamma   104.32688641
_symmetry_Int_Tables_number   1
_chemical_formula_structural   CdH12C15(NO)4
_chemical_formula_sum   'Cd2 H24 C30 N8 O8'
_cell_volume   742.99906510
_cell_formula_units_Z   2
loop_
 _symmetry_equiv_pos_site_id
 _symmetry_equiv_pos_as_xyz
  1  'x, y, z'
loop_
 _atom_site_type_symbol
 _atom_site_label
 _atom_site_symmetry_multiplicity
 _atom_site_fract_x
 _atom_site_fract_y
 _atom_site_fract_z
 _atom_site_occupancy
 _atom_site_hle17_bader_spin_density
 _atom_site_hle17_ddec_charge
 _atom_site_hle17_ddec_spin_density
 _atom_site_hle17_ddec_sum_bond_order
 _atom_site_hle17_magmom
 _atom_site_hse06_10hf_bader_spin_density
 _atom_site_hse06_10hf_ddec_charge
 _atom_site_hse06_10hf_ddec_spin_density
 _atom_site_hse06_10hf_ddec_sum_bond_order
 _atom_site_hse06_10hf_magmom
 _atom_site_hse06_bader_spin_density
 _atom_site_hse06_ddec_charge
 _atom_site_hse06_ddec_spin_density
 _atom_site_hse06_ddec_sum_bond_order
 _atom_site_hse06_magmom
 _atom_site_pbe_bader_spin_density
 _atom_site_pbe_cm5_charge
 _atom_site_pbe_ddec_charge
 _atom_site_pbe_ddec_spin_density
 _atom_site_pbe_ddec_sum_bond_order
 _atom_site_pbe_magmom
Cd  Cd0  1  0.22149172  0.34174233  0.35120841  1  0  1.135958  0  1.685231  0  0  0.947834  0  2.133537  0  0  1.004183  0  2.081943  0  0  0.781392  0.907932  0  2.168565  0
Cd  Cd1  1  0.77850588  0.65825878  0.64879115  1  0  1.135944  0  1.68523  0  0  0.947824  0  2.133531  0  0  1.004174  0  2.081937  0  0  0.781404  0.907927  0  2.168562  0
H  H2  1  0.16468590  0.50833687  0.62535675  1  0  0.121066  0  0.945563  0  0  0.126921  0  1.011934  0  0  0.130115  0  1.007685  0  0  0.140092  0.124048  0  1.015872  0
H  H3  1  0.83531254  0.49166311  0.37464368  1  0  0.121041  0  0.945539  0  0  0.126886  0  1.011929  0  0  0.130079  0  1.007679  0  0  0.140092  0.12401  0  1.015868  0
H  H4  1  0.19421575  0.06528921  0.53619717  1  0  0.101654  0  0.97144  0  0  0.11108  0  1.031695  0  0  0.111978  0  1.033756  0  0  0.114237  0.110428  0  1.030372  0
H  H5  1  0.80578621  0.93471299  0.46380248  1  0  0.10162  0  0.971414  0  0  0.111066  0  1.031651  0  0  0.111966  0  1.033706  0  0  0.114218  0.110386  0  1.030354  0
H  H6  1  0.09819745  0.11932185  0.76423915  1  0  0.127658  0  0.981626  0  0  0.133868  0  1.047147  0  0  0.1373  0  1.045145  0  0  0.116492  0.131296  0  1.048742  0
H  H7  1  0.90180315  0.88067697  0.23576058  1  0  0.127659  0  0.981621  0  0  0.133873  0  1.047136  0  0  0.137303  0  1.045136  0  0  0.116493  0.131296  0  1.04873  0
H  H8  1  0.06854336  0.52731636  0.81247199  1  0  0.107996  0  0.967961  0  0  0.115046  0  1.036405  0  0  0.116989  0  1.03493  0  0  0.134067  0.113625  0  1.037536  0
H  H9  1  0.93145549  0.47268135  0.18752813  1  0  0.108003  0  0.967938  0  0  0.115073  0  1.036385  0  0  0.117014  0  1.034912  0  0  0.134068  0.11365  0  1.037525  0
H  H10  1  0.92210254  0.35551178  0.81778653  1  0  0.076985  0  0.949826  0  0  0.085342  0  1.020521  0  0  0.086247  0  1.019261  0  0  0.124213  0.084598  0  1.02166  0
H  H11  1  0.07790194  0.64448701  0.18221667  1  0  0.076971  0  0.949796  0  0  0.085315  0  1.020534  0  0  0.086227  0  1.019257  0  0  0.124204  0.084575  0  1.021666  0
H  H12  1  0.38727982  0.64851833  0.99876879  1  0  0.122021  0  0.965452  0  0  0.13175  0  1.025734  0  0  0.133826  0  1.025952  0  0  0.122918  0.130426  0  1.025262  0
H  H13  1  0.61272561  0.35148270  0.00123040  1  0  0.121978  0  0.965574  0  0  0.131745  0  1.025808  0  0  0.133821  0  1.026028  0  0  0.122904  0.130423  0  1.025341  0
H  H14  1  0.49442042  0.60326422  0.24792718  1  0  0.10857  0  0.971961  0  0  0.115365  0  1.035909  0  0  0.116954  0  1.036641  0  0  0.117981  0.114179  0  1.035583  0
H  H15  1  0.50558631  0.39674019  0.75207558  1  0  0.108611  0  0.972032  0  0  0.115388  0  1.035982  0  0  0.116978  0  1.036714  0  0  0.117986  0.114203  0  1.035657  0
H  H16  1  0.02636818  0.24105259  0.00374679  1  0  0.10204  0  0.932129  0  0  0.113253  0  0.992846  0  0  0.115339  0  0.990349  0  0  0.140013  0.111697  0  0.994624  0
H  H17  1  0.97363550  0.75895071  0.99625613  1  0  0.102019  0  0.932161  0  0  0.113234  0  0.992872  0  0  0.115319  0  0.990375  0  0  0.139999  0.111674  0  0.994647  0
H  H18  1  0.76597116  0.91707174  0.97415848  1  0  0.097963  0  0.970212  0  0  0.10225  0  1.04364  0  0  0.106007  0  1.041053  0  0  0.09766  0.099724  0  1.045151  0
H  H19  1  0.23402815  0.08292709  0.02584010  1  0  0.097956  0  0.970214  0  0  0.10224  0  1.043651  0  0  0.105996  0  1.041062  0  0  0.097653  0.099713  0  1.045159  0
H  H20  1  0.54870207  0.22014962  0.18653361  1  0  0.111937  0  0.959326  0  0  0.116912  0  1.028504  0  0  0.120771  0  1.025922  0  0  0.10245  0.113916  0  1.031072  0
H  H21  1  0.45129635  0.77984697  0.81346440  1  0  0.111885  0  0.959313  0  0  0.116859  0  1.0285  0  0  0.120719  0  1.025917  0  0  0.102434  0.113864  0  1.031075  0
H  H22  1  0.28563580  0.80101525  0.30034065  1  0  0.08123  0  0.992852  0  0  0.089487  0  1.060162  0  0  0.092801  0  1.058241  0  0  0.094973  0.087039  0  1.061636  0
H  H23  1  0.71436095  0.19898700  0.69965895  1  0  0.081172  0  0.992873  0  0  0.089426  0  1.0602  0  0  0.092742  0  1.05828  0  0  0.094945  0.086982  0  1.061678  0
H  H24  1  0.62041171  0.93269805  0.70605706  1  0  0.097226  0  0.971143  0  0  0.107459  0  1.033523  0  0  0.110388  0  1.032032  0  0  0.101433  0.104781  0  1.035684  0
H  H25  1  0.37958329  0.06730309  0.29394201  1  0  0.097209  0  0.971134  0  0  0.107463  0  1.033501  0  0  0.110375  0  1.032027  0  0  0.101432  0.104783  0  1.035653  0
C  C26  1  0.16157340  0.39522343  0.62917907  1  0  0.191217  0  3.623551  0  0  0.126669  0  3.895623  0  0  0.142657  0  3.905465  0  0  0.149376  0.116198  0  3.889137  0
C  C27  1  0.83842720  0.60477539  0.37082158  1  0  0.19131  0  3.623427  0  0  0.126776  0  3.895483  0  0  0.142765  0  3.905322  0  0  0.149388  0.116305  0  3.889001  0
C  C28  1  0.17463448  0.16594945  0.58846510  1  0  0.002406  0  3.762009  0  0  -0.026884  0  4.022504  0  0  -0.024793  0  4.044839  0  0  -0.004074  -0.028057  0  4.007155  0
C  C29  1  0.82536484  0.83404939  0.41153347  1  0  0.002426  0  3.761959  0  0  -0.026887  0  4.022446  0  0  -0.024795  0  4.04478  0  0  -0.004065  -0.028038  0  4.007109  0
C  C30  1  0.12872738  0.19183975  0.70226064  1  0  -0.074197  0  3.65479  0  0  -0.113388  0  3.911629  0  0  -0.113121  0  3.930763  0  0  -0.005311  -0.113176  0  3.898769  0
C  C31  1  0.87127323  0.80815907  0.29773909  1  0  -0.074174  0  3.654832  0  0  -0.113362  0  3.911669  0  0  -0.113096  0  3.930805  0  0  -0.005328  -0.113147  0  3.898794  0
C  C32  1  0.06383730  0.41689248  0.82828681  1  0  0.084826  0  3.624902  0  0  0.008615  0  3.868309  0  0  0.017858  0  3.875929  0  0  0.056374  0.002212  0  3.863755  0
C  C33  1  0.93616200  0.58310635  0.17171359  1  0  0.084926  0  3.624667  0  0  0.008619  0  3.868233  0  0  0.01786  0  3.875865  0  0  0.056386  0.002213  0  3.863687  0
C  C34  1  0.33104496  0.55848714  0.03799881  1  0  -0.069866  0  3.66782  0  0  -0.10911  0  3.926946  0  0  -0.107759  0  3.945569  0  0  -0.000429  -0.109784  0  3.913921  0
C  C35  1  0.66896080  0.44151163  0.96200646  1  0  -0.069832  0  3.667473  0  0  -0.109113  0  3.926574  0  0  -0.107762  0  3.945195  0  0  -0.00039  -0.109788  0  3.913559  0
C  C36  1  0.38222970  0.53397234  0.15989745  1  0  0.009475  0  3.736566  0  0  -0.023579  0  4.004552  0  0  -0.021049  0  4.024251  0  0  -0.001261  -0.025369  0  3.991366  0
C  C37  1  0.61777102  0.46602987  0.84009647  1  0  0.00952  0  3.736207  0  0  -0.023513  0  4.004232  0  0  -0.020984  0  4.023935  0  0  -0.001253  -0.0253  0  3.991043  0
C  C38  1  0.14093877  0.34470538  0.03858182  1  0  0.154051  0  3.673807  0  0  0.093012  0  3.944797  0  0  0.106268  0  3.958959  0  0  0.141798  0.084204  0  3.934698  0
C  C39  1  0.85906577  0.65529679  0.96142015  1  0  0.154053  0  3.67381  0  0  0.093016  0  3.944795  0  0  0.106271  0  3.958961  0  0  0.141759  0.084226  0  3.934679  0
C  C40  1  0.86653027  0.15879840  0.18590273  1  0  0.616682  0  3.948269  0  0  0.570319  0  4.236136  0  0  0.603996  0  4.230371  0  0  0.188456  0.547413  0  4.239321  0
C  C41  1  0.13346775  0.84120045  0.81409559  1  0  0.616789  0  3.948276  0  0  0.570434  0  4.236131  0  0  0.604109  0  4.230365  0  0  0.188537  0.547533  0  4.239314  0
C  C42  1  0.67677045  0.07609868  0.09061017  1  0  -0.060021  0  3.761157  0  0  -0.037111  0  3.99066  0  0  -0.043809  0  4.013618  0  0  -0.020407  -0.032755  0  3.97516  0
C  C43  1  0.32322315  0.92389569  0.90938838  1  0  -0.060134  0  3.760997  0  0  -0.03723  0  3.990509  0  0  -0.043924  0  4.013459  0  0  -0.020481  -0.032872  0  3.975015  0
C  C44  1  0.64831173  0.95175324  0.98557248  1  0  -0.086323  0  3.741891  0  0  -0.10762  0  3.989635  0  0  -0.108943  0  4.010011  0  0  -0.090775  -0.106354  0  3.975186  0
C  C45  1  0.35168841  0.04824446  0.01442880  1  0  -0.08627  0  3.741767  0  0  -0.107566  0  3.989529  0  0  -0.108886  0  4.0099  0  0  -0.090743  -0.106304  0  3.975078  0
C  C46  1  0.52695336  0.12427827  0.10419398  1  0  -0.084038  0  3.735975  0  0  -0.104448  0  3.9843  0  0  -0.105101  0  4.00359  0  0  -0.089391  -0.103957  0  3.97161  0
C  C47  1  0.47304633  0.87571831  0.89580702  1  0  -0.083866  0  3.735843  0  0  -0.104261  0  3.98414  0  0  -0.104913  0  4.003428  0  0  -0.089295  -0.103777  0  3.971466  0
C  C48  1  0.38704587  0.68791374  0.50556885  1  0  0.657223  0  3.903289  0  0  0.603809  0  4.198293  0  0  0.639472  0  4.18946  0  0  0.206822  0.580711  0  4.20211  0
C  C49  1  0.61295128  0.31208625  0.49443043  1  0  0.657292  0  3.903311  0  0  0.603878  0  4.198328  0  0  0.639542  0  4.189497  0  0  0.206916  0.58078  0  4.202136  0
C  C50  1  0.44393831  0.84956261  0.50360393  1  0  -0.061075  0  3.749539  0  0  -0.037583  0  3.979945  0  0  -0.043572  0  4.000903  0  0  -0.01764  -0.034628  0  3.966475  0
C  C51  1  0.55605928  0.15043850  0.49639654  1  0  -0.061033  0  3.749549  0  0  -0.037553  0  3.979976  0  0  -0.043543  0  4.00093  0  0  -0.017625  -0.034599  0  3.966501  0
C  C52  1  0.37797922  0.88925252  0.38804744  1  0  -0.069344  0  3.750108  0  0  -0.093113  0  4.000003  0  0  -0.093438  0  4.01932  0  0  -0.086407  -0.092751  0  3.987296  0
C  C53  1  0.62201663  0.11074748  0.61195160  1  0  -0.069356  0  3.750129  0  0  -0.093123  0  4.000033  0  0  -0.093451  0  4.019357  0  0  -0.08642  -0.092767  0  3.98734  0
C  C54  1  0.56747023  0.96223918  0.61594821  1  0  -0.082269  0  3.745102  0  0  -0.102148  0  3.988251  0  0  -0.10332  0  4.008305  0  0  -0.086684  -0.101628  0  3.976287  0
C  C55  1  0.43252562  0.03776082  0.38405174  1  0  -0.082304  0  3.745104  0  0  -0.102203  0  3.988268  0  0  -0.10336  0  4.008329  0  0  -0.086728  -0.101677  0  3.976283  0
N  N56  1  0.19445714  0.29334707  0.54396585  1  0  -0.400125  0  3.252821  0  0  -0.322331  0  3.535933  0  0  -0.345106  0  3.552779  0  0  -0.358656  -0.306674  0  3.523743  0
N  N57  1  0.80554130  0.70665291  0.45603459  1  0  -0.400097  0  3.252752  0  0  -0.322293  0  3.535853  0  0  -0.345069  0  3.552695  0  0  -0.358633  -0.306641  0  3.523659  0
N  N58  1  0.12227838  0.33823243  0.72689655  1  0  -0.079118  0  3.566249  0  0  0.010735  0  3.792122  0  0  -0.004431  0  3.816957  0  0  -0.24535  0.020712  0  3.775386  0
N  N59  1  0.87772138  0.66176753  0.27310322  1  0  -0.079254  0  3.566265  0  0  0.010619  0  3.792154  0  0  -0.004547  0  3.816988  0  0  -0.245371  0.020593  0  3.775424  0
N  N60  1  0.17726482  0.43711901  0.96182260  1  0  -0.086668  0  3.578148  0  0  0.001301  0  3.806694  0  0  -0.013826  0  3.832483  0  0  -0.248042  0.011576  0  3.789029  0
N  N61  1  0.82274103  0.56288315  0.03817870  1  0  -0.086752  0  3.578097  0  0  0.001269  0  3.80665  0  0  -0.01386  0  3.83244  0  0  -0.248064  0.011536  0  3.788989  0
N  N62  1  0.26253424  0.40040146  0.15878054  1  0  -0.368945  0  3.217855  0  0  -0.295078  0  3.493495  0  0  -0.31583  0  3.511798  0  0  -0.347888  -0.280623  0  3.480665  0
N  N63  1  0.73746899  0.59960072  0.84122210  1  0  -0.368954  0  3.217865  0  0  -0.295107  0  3.49352  0  0  -0.315859  0  3.511824  0  0  -0.34785  -0.28066  0  3.480695  0
O  O64  1  0.99358482  0.09817340  0.18923140  1  0  -0.646032  0  1.909126  0  0  -0.588178  0  2.138785  0  0  -0.614643  0  2.128796  0  0  -0.335624  -0.569593  0  2.145232  0
O  O65  1  0.00641627  0.90182655  0.81076586  1  0  -0.646053  0  1.909202  0  0  -0.588188  0  2.138834  0  0  -0.614653  0  2.128844  0  0  -0.335631  -0.569609  0  2.145287  0
O  O66  1  0.89429029  0.29071512  0.25835413  1  0  -0.641169  0  1.990608  0  0  -0.579587  0  2.230875  0  0  -0.607444  0  2.222105  0  0  -0.330643  -0.559773  0  2.23625  0
O  O67  1  0.10570642  0.70928375  0.74164395  1  0  -0.641158  0  1.990587  0  0  -0.579596  0  2.230866  0  0  -0.607459  0  2.222108  0  0  -0.330656  -0.55978  0  2.236235  0
O  O68  1  0.24939530  0.59656154  0.41051135  1  0  -0.634295  0  2.011089  0  0  -0.56775  0  2.267267  0  0  -0.596179  0  2.257214  0  0  -0.323049  -0.547587  0  2.272561  0
O  O69  1  0.75060316  0.40343843  0.58948725  1  0  -0.634327  0  2.011048  0  0  -0.567783  0  2.267226  0  0  -0.596209  0  2.257167  0  0  -0.323103  -0.547632  0  2.272537  0
O  O70  1  0.47778392  0.65076484  0.60108853  1  0  -0.664759  0  2.04811  0  0  -0.603177  0  2.318996  0  0  -0.630842  0  2.305582  0  0  -0.339135  -0.58405  0  2.327609  0
O  O71  1  0.52221367  0.34923627  0.39891194  1  0  -0.66476  0  2.048137  0  0  -0.603167  0  2.318997  0  0  -0.630832  0  2.305581  0  0  -0.339163  -0.58404  0  2.327602  0
