# generated using pymatgen
data_ZnH38C42N2O5F6
_symmetry_space_group_name_H-M   'P 1'
_cell_length_a   7.36250347
_cell_length_b   14.03020884
_cell_length_c   21.04982837
_cell_angle_alpha   77.25404038
_cell_angle_beta   79.95526525
_cell_angle_gamma   77.19034894
_symmetry_Int_Tables_number   1
_chemical_formula_structural   ZnH38C42N2O5F6
_chemical_formula_sum   'Zn2 H76 C84 N4 O10 F12'
_cell_volume   2049.94578774
_cell_formula_units_Z   2
loop_
 _symmetry_equiv_pos_site_id
 _symmetry_equiv_pos_as_xyz
  1  'x, y, z'
loop_
 _atom_site_type_symbol
 _atom_site_label
 _atom_site_symmetry_multiplicity
 _atom_site_fract_x
 _atom_site_fract_y
 _atom_site_fract_z
 _atom_site_occupancy
 _atom_site_pbe_bader_charge
 _atom_site_pbe_bader_spin_density
 _atom_site_pbe_cm5_charge
 _atom_site_pbe_ddec_charge
 _atom_site_pbe_ddec_spin_density
 _atom_site_pbe_ddec_sum_bond_order
 _atom_site_pbe_magmom
Zn  Zn0  1  0.94579200  0.84331782  0.63458560  1  1.334371  0  0.679558  0.798872  0  2.346736  0
Zn  Zn1  1  0.93992574  0.37367357  0.13524151  1  1.328346  0  0.681239  0.795077  0  2.347739  0
H  H2  1  0.51956670  0.17081531  0.64249328  1  0.034141  0  0.08492  0.090243  0  1.007922  0
H  H3  1  0.48224723  0.24536323  0.70292538  1  0.016393  0  0.087368  0.082484  0  1.027942  0
H  H4  1  0.77121889  0.25401862  0.58637105  1  0.043898  0  0.084657  0.087674  0  1.036582  0
H  H5  1  0.73757598  0.32309182  0.64969874  1  0.004229  0  0.08558  0.085354  0  1.01854  0
H  H6  1  0.05334741  0.20922155  0.66150165  1  0.039883  0  0.090165  0.077674  0  0.991823  0
H  H7  1  0.03808808  0.00369930  0.76217826  1  0.024007  0  0.080844  0.112525  0  1.057408  0
H  H8  1  0.90933619  0.04551704  0.83364943  1  0.041947  0  0.082693  0.119406  0  1.016075  0
H  H9  1  0.09881121  0.10176099  0.78971674  1  0.016342  0  0.084177  0.118588  0  1.012229  0
H  H10  1  0.66553542  0.29368285  0.75533825  1  0.018117  0  0.085584  0.118775  0  1.03943  0
H  H11  1  0.89404528  0.27318771  0.77757400  1  0.029802  0  0.08749  0.122612  0  1.019773  0
H  H12  1  0.72132411  0.21190020  0.82928130  1  0.030865  0  0.086763  0.120644  0  1.018513  0
H  H13  1  0.47827684  0.11803315  0.81199895  1  0.031018  0  0.084314  0.113242  0  1.040726  0
H  H14  1  0.61641790  0.99626827  0.81223995  1  0.048636  0  0.085188  0.119207  0  1.038088  0
H  H15  1  0.43506382  0.04102503  0.76189167  1  0.037693  0  0.088878  0.1257  0  1.017737  0
H  H16  1  0.94612029  0.65583846  0.48247539  1  0.029581  0  0.088672  0.094705  0  0.990064  0
H  H17  1  0.08197278  0.54670769  0.45714230  1  0.027635  0  0.089951  0.091904  0  1.000995  0
H  H18  1  0.75349343  0.55472275  0.56040375  1  0.017941  0  0.081692  0.077924  0  1.029257  0
H  H19  1  0.89812023  0.44620791  0.53657533  1  0.028303  0  0.086297  0.084567  0  1.022034  0
H  H20  1  0.96025650  0.43570491  0.65252375  1  0.057341  0  0.090692  0.081814  0  0.999024  0
H  H21  1  0.30043676  0.53306282  0.66456554  1  0.027893  0  0.079994  0.117907  0  1.040637  0
H  H22  1  0.48656939  0.47203361  0.61326683  1  0.021126  0  0.082938  0.116012  0  1.02534  0
H  H23  1  0.33875459  0.40219428  0.67169115  1  0.024357  0  0.084976  0.119774  0  1.026702  0
H  H24  1  0.19833422  0.39355356  0.51173100  1  0.025145  0  0.084878  0.116402  0  1.032985  0
H  H25  1  0.27660833  0.32411027  0.58632988  1  0.041115  0  0.084578  0.123706  0  1.027335  0
H  H26  1  0.42739202  0.39183850  0.52826341  1  0.033159  0  0.085396  0.117926  0  1.020118  0
H  H27  1  0.40815045  0.56668257  0.45661957  1  0.02511  0  0.088508  0.124082  0  1.026613  0
H  H28  1  0.47373575  0.61103534  0.52054637  1  0.017558  0  0.087301  0.120689  0  1.024202  0
H  H29  1  0.32424725  0.69229754  0.46610826  1  0.049054  0  0.087506  0.12148  0  1.03299  0
H  H30  1  0.90390616  0.97068701  0.49283968  1  0.116736  0  0.117635  0.095638  0  1.000943  0
H  H31  1  0.69419536  0.99796156  0.40581732  1  0.09207  0  0.108234  0.118923  0  1.022188  0
H  H32  1  0.38476322  0.78714541  0.53654365  1  0.17326  0  0.111103  0.131207  0  1.046683  0
H  H33  1  0.60590697  0.77008714  0.61709811  1  0.122909  0  0.109961  0.077385  0  1.05757  0
H  H34  1  0.17760840  0.71506419  0.36084439  1  0.105531  0  0.115133  0.146537  0  1.001509  0
H  H35  1  0.87113839  0.76780527  0.29510687  1  0.107405  0  0.115833  0.146468  0  0.989312  0
H  H36  1  0.28770347  0.01191135  0.22435150  1  0.084246  0  0.109262  0.120297  0  0.9992  0
H  H37  1  0.02839980  0.14461121  0.17977502  1  0.139417  0  0.118032  0.097174  0  1.005026  0
H  H38  1  0.32249317  0.36642414  0.17323585  1  0.124446  0  0.112934  0.082268  0  1.042305  0
H  H39  1  0.59556432  0.24564018  0.21579917  1  0.174051  0  0.111358  0.133284  0  1.043026  0
H  H40  1  0.94745732  0.74441141  0.78442829  1  0.144894  0  0.118194  0.095985  0  1.005053  0
H  H41  1  0.14241655  0.72686607  0.87418413  1  0.114025  0  0.107526  0.116149  0  1.037225  0
H  H42  1  0.52953590  0.87950227  0.72985470  1  0.16584  0  0.112094  0.134767  0  1.045854  0
H  H43  1  0.32052135  0.88799758  0.64705419  1  0.119849  0  0.110852  0.078444  0  1.05392  0
H  H44  1  0.59409110  0.99022850  0.94378866  1  0.119109  0  0.118546  0.149631  0  0.987066  0
H  H45  1  0.89929093  0.95104394  0.00933971  1  0.133385  0  0.111861  0.145593  0  1.007234  0
H  H46  1  0.55543451  0.73390641  0.06188702  1  0.085745  0  0.10803  0.118239  0  1.000356  0
H  H47  1  0.82620378  0.60471483  0.10234943  1  0.137447  0  0.117675  0.096993  0  1.003984  0
H  H48  1  0.57612188  0.37539366  0.08815589  1  0.074593  0  0.112096  0.080675  0  1.047685  0
H  H49  1  0.29411920  0.49208875  0.04837697  1  0.164159  0  0.110104  0.12927  0  1.051682  0
H  H50  1  0.50454203  0.46179698  0.33305648  1  0.029671  0  0.083485  0.090343  0  1.013708  0
H  H51  1  0.50928022  0.40077892  0.41588077  1  0.015208  0  0.087188  0.085034  0  1.023832  0
H  H52  1  0.71487859  0.56192533  0.34833869  1  0.060025  0  0.08363  0.08554  0  0.995078  0
H  H53  1  0.72545032  0.49546199  0.42984090  1  0.010087  0  0.084915  0.083781  0  1.018592  0
H  H54  1  0.05105185  0.44372565  0.37148210  1  0.050727  0  0.087879  0.07412  0  0.99525  0
H  H55  1  0.03705302  0.16189280  0.38073716  1  0.01276  0  0.0839  0.122761  0  1.006902  0
H  H56  1  0.19165791  0.23822437  0.38743574  1  0.026972  0  0.08268  0.121209  0  1.014492  0
H  H57  1  0.11126799  0.24837001  0.31111479  1  -0.006124  0  0.080155  0.111911  0  1.063163  0
H  H58  1  0.73152325  0.34233504  0.47873614  1  0.002035  0  0.085159  0.11005  0  1.051589  0
H  H59  1  0.97585430  0.29988988  0.48222912  1  0.029542  0  0.08349  0.116912  0  1.034542  0
H  H60  1  0.83446600  0.21615132  0.47655569  1  0.029532  0  0.085948  0.119946  0  1.001806  0
H  H61  1  0.58768937  0.21338381  0.40911497  1  0.054895  0  0.086093  0.120301  0  1.007661  0
H  H62  1  0.72991156  0.17763062  0.33729553  1  0.022918  0  0.087058  0.121474  0  1.016892  0
H  H63  1  0.51029691  0.25931846  0.33087667  1  0.024799  0  0.089342  0.12615  0  1.020828  0
H  H64  1  0.96476576  0.53561074  0.84961587  1  0.035092  0  0.086533  0.089395  0  1.005338  0
H  H65  1  0.85582232  0.53523486  0.93123224  1  0.019629  0  0.089173  0.0985  0  0.986939  0
H  H66  1  0.69231838  0.40966585  0.92189996  1  0.022087  0  0.082163  0.081724  0  1.026538  0
H  H67  1  0.80459989  0.41061593  0.84054465  1  0.005794  0  0.078825  0.076899  0  1.046543  0
H  H68  1  0.94115721  0.24144579  0.90191003  1  0.050102  0  0.089169  0.079778  0  1.012664  0
H  H69  1  0.31046079  0.23261810  0.96575046  1  0.010642  0  0.081668  0.118934  0  1.037262  0
H  H70  1  0.45971180  0.27740353  0.89492026  1  0.005507  0  0.084138  0.12047  0  1.021125  0
H  H71  1  0.33057994  0.18558509  0.89276639  1  0.006988  0  0.082519  0.11392  0  1.023024  0
H  H72  1  0.08810046  0.41784456  0.79044285  1  0.026125  0  0.086872  0.120455  0  1.028858  0
H  H73  1  0.20642952  0.29280557  0.79192825  1  0.004965  0  0.084565  0.112221  0  1.02055  0
H  H74  1  0.33208858  0.38487542  0.79607405  1  0.047756  0  0.087003  0.119685  0  1.012121  0
H  H75  1  0.22773415  0.55023950  0.93850146  1  0.054324  0  0.088421  0.123243  0  1.023771  0
H  H76  1  0.31097243  0.51905867  0.85987147  1  0.020073  0  0.085064  0.119948  0  1.013765  0
H  H77  1  0.40342541  0.44299496  0.93091255  1  0.016427  0  0.086449  0.121053  0  1.028786  0
C  C78  1  0.07361140  0.03985242  0.59598676  1  0.737704  0  0.086836  0.136605  0  4.17198  0
C  C79  1  0.94962290  0.07963230  0.64542251  1  -0.012229  0  -0.066473  -0.216099  0  3.995753  0
C  C80  1  0.79737211  0.03385707  0.68280825  1  0.808511  0  0.142811  0.358481  0  3.931478  0
C  C81  1  0.22941625  0.09370094  0.55563574  1  1.669637  0  0.299197  0.630172  0  3.98771  0
C  C82  1  0.68224148  0.10611744  0.72588879  1  0.012906  0  -0.017275  0.0499  0  3.765222  0
C  C83  1  0.59017422  0.19614937  0.67576185  1  -0.035672  0  -0.161881  -0.196818  0  3.849727  0
C  C84  1  0.75539666  0.24776192  0.63969476  1  -0.038782  0  -0.169161  -0.182602  0  3.882881  0
C  C85  1  0.92676677  0.17716495  0.66929131  1  0.032419  0  -0.089872  -0.058905  0  3.841574  0
C  C86  1  0.84457146  0.14815311  0.74294330  1  0.024022  0  -0.01153  0.172921  0  3.736253  0
C  C87  1  0.98008368  0.06995906  0.78408394  1  -0.083869  0  -0.248113  -0.413009  0  3.909639  0
C  C88  1  0.77609142  0.23689651  0.77769639  1  -0.061234  0  -0.245715  -0.414458  0  3.897761  0
C  C89  1  0.54594753  0.06286967  0.78115659  1  -0.083656  0  -0.246194  -0.400434  0  3.942774  0
C  C90  1  0.83838419  0.63985133  0.68148199  1  0.737056  0  0.088551  0.138759  0  4.170021  0
C  C91  1  0.96811908  0.59768797  0.63429383  1  -0.034686  0  -0.067213  -0.219481  0  3.992579  0
C  C92  1  0.09305057  0.65212397  0.58666597  1  0.826612  0  0.143616  0.360322  0  3.931361  0
C  C93  1  0.68625023  0.58526099  0.72448463  1  1.654085  0  0.302177  0.632543  0  3.974372  0
C  C94  1  0.18754103  0.58528458  0.53742450  1  0.011176  0  -0.018273  0.047335  0  3.774915  0
C  C95  1  0.02317277  0.58079572  0.50044228  1  -0.042876  0  -0.159554  -0.193838  0  3.845333  0
C  C96  1  0.89982606  0.51606840  0.55171954  1  -0.037051  0  -0.169156  -0.185706  0  3.905693  0
C  C97  1  0.99840912  0.49691870  0.61399277  1  0.016173  0  -0.089799  -0.061522  0  3.837768  0
C  C98  1  0.21091097  0.48212593  0.58512288  1  0.039385  0  -0.012844  0.175716  0  3.741769  0
C  C99  1  0.34064133  0.47273368  0.63652827  1  -0.062946  0  -0.248075  -0.418335  0  3.911485  0
C  C100  1  0.28023647  0.39365141  0.55048003  1  -0.08897  0  -0.245534  -0.40694  0  3.898707  0
C  C101  1  0.35780157  0.61536166  0.49287683  1  -0.067636  0  -0.24401  -0.399759  0  3.939412  0
C  C102  1  0.78758259  0.93128441  0.49994253  1  0.482407  0  0.046573  0.096161  0  3.941687  0
C  C103  1  0.67247281  0.94522446  0.45150646  1  0.002153  0  -0.079849  -0.177203  0  3.927987  0
C  C104  1  0.52677638  0.89095464  0.46280349  1  0.093903  0  0.016956  0.163911  0  4.09569  0
C  C105  1  0.50162440  0.82671572  0.52397243  1  -0.010414  0  -0.075827  -0.162385  0  3.890532  0
C  C106  1  0.62311494  0.81812710  0.56914989  1  0.443658  0  0.038815  0.082896  0  3.965232  0
C  C107  1  0.40317011  0.89697675  0.41693293  1  -0.061902  0  -0.013204  -0.034785  0  4.01467  0
C  C108  1  0.28290163  0.89261008  0.38489519  1  -0.223439  0  -0.037425  -0.132955  0  4.097875  0
C  C109  1  0.14524790  0.87673283  0.35260773  1  0.5139  0  0.080662  0.242326  0  4.111335  0
C  C110  1  0.10170772  0.78951009  0.34423706  1  -0.010969  0  -0.101705  -0.205828  0  3.986486  0
C  C111  1  0.94311426  0.81683463  0.31032395  1  0.075263  0  -0.098551  -0.194816  0  3.983652  0
C  C112  1  0.89532521  0.91975540  0.29925055  1  0.481469  0  0.077105  0.236644  0  4.114852  0
C  C113  1  0.74928561  0.98744326  0.27088552  1  0.150538  0  -0.040701  -0.142703  0  4.127919  0
C  C114  1  0.61690536  0.04657453  0.24823052  1  -0.456664  0  -0.014863  -0.03682  0  4.036105  0
C  C115  1  0.46540774  0.11737724  0.22331197  1  0.091467  0  0.017802  0.163654  0  4.097116  0
C  C116  1  0.30183218  0.08963605  0.21285743  1  0.001153  0  -0.077598  -0.170431  0  3.914986  0
C  C117  1  0.15715635  0.16295403  0.18852211  1  0.476211  0  0.04621  0.094618  0  3.943114  0
C  C118  1  0.32149453  0.28701779  0.18480042  1  0.434185  0  0.041843  0.086076  0  3.959298  0
C  C119  1  0.47330949  0.21942037  0.20877049  1  -0.027218  0  -0.075697  -0.165532  0  3.893459  0
C  C120  1  0.07800234  0.77281607  0.77478536  1  0.476799  0  0.046531  0.094867  0  3.930498  0
C  C121  1  0.18624829  0.76374561  0.82455761  1  -0.080755  0  -0.075131  -0.167243  0  3.904536  0
C  C122  1  0.35102065  0.80384746  0.80981973  1  0.109311  0  0.018965  0.163605  0  4.082259  0
C  C123  1  0.40185670  0.84870350  0.74432821  1  -0.027896  0  -0.075139  -0.162389  0  3.889681  0
C  C124  1  0.28569169  0.85347183  0.69804388  1  0.464982  0  0.042925  0.087261  0  3.961835  0
C  C125  1  0.46474299  0.80397584  0.85777066  1  0.140945  0  -0.012435  -0.03213  0  3.999322  0
C  C126  1  0.57208685  0.81378362  0.89301012  1  -0.34315  0  -0.036504  -0.13413  0  4.100675  0
C  C127  1  0.69126262  0.83479679  0.93089264  1  0.440458  0  0.083346  0.24433  0  4.112781  0
C  C128  1  0.69471992  0.92091354  0.95223525  1  -0.034506  0  -0.103338  -0.213385  0  3.996289  0
C  C129  1  0.85313089  0.90071120  0.98598216  1  0.033018  0  -0.100526  -0.198705  0  3.984497  0
C  C130  1  0.94010255  0.80304847  0.98420740  1  0.445434  0  0.074569  0.233389  0  4.109763  0
C  C131  1  0.10046911  0.74310208  0.00825150  1  -0.196982  0  -0.039829  -0.138632  0  4.125051  0
C  C132  1  0.24254750  0.69064908  0.02852005  1  -0.016193  0  -0.016031  -0.040078  0  4.044713  0
C  C133  1  0.40125433  0.62375795  0.05146623  1  0.075453  0  0.018673  0.165402  0  4.097055  0
C  C134  1  0.55426434  0.65504083  0.06728860  1  -0.01583  0  -0.080448  -0.175719  0  3.923392  0
C  C135  1  0.70481500  0.58381059  0.08964576  1  0.495849  0  0.046145  0.092834  0  3.94431  0
C  C136  1  0.56571088  0.45549254  0.08139310  1  0.510579  0  0.04231  0.089383  0  3.954784  0
C  C137  1  0.40935236  0.52066333  0.05896359  1  -0.037312  0  -0.076254  -0.163547  0  3.892996  0
C  C138  1  0.02811453  0.48618372  0.22912644  1  0.753386  0  0.087761  0.141199  0  4.167324  0
C  C139  1  0.93876610  0.42937772  0.28298689  1  -0.038234  0  -0.067097  -0.219998  0  4.00283  0
C  C140  1  0.81409472  0.36595849  0.27810784  1  0.824292  0  0.142882  0.361122  0  3.935935  0
C  C141  1  0.14423269  0.56031074  0.23798993  1  1.665814  0  0.297892  0.630684  0  3.982767  0
C  C142  1  0.72858451  0.32796398  0.34813779  1  0.026139  0  -0.016957  0.050818  0  3.76146  0
C  C143  1  0.59857048  0.42322744  0.36975903  1  -0.039284  0  -0.162247  -0.200748  0  3.852779  0
C  C144  1  0.73708383  0.48689992  0.37857528  1  -0.062082  0  -0.170223  -0.184205  0  3.907254  0
C  C145  1  0.93062770  0.42477334  0.35637969  1  0.006989  0  -0.090414  -0.055848  0  3.848834  0
C  C146  1  0.90226152  0.31579869  0.38486720  1  0.043393  0  -0.013032  0.174728  0  3.737641  0
C  C147  1  0.06948106  0.23697166  0.36442111  1  -0.014829  0  -0.249411  -0.417605  0  3.909383  0
C  C148  1  0.85689131  0.29314777  0.45956787  1  -0.077985  0  -0.246763  -0.414713  0  3.923206  0
C  C149  1  0.63432020  0.23966692  0.35686430  1  -0.077006  0  -0.244283  -0.39741  0  3.940688  0
C  C150  1  0.86645004  0.25077201  0.04335923  1  0.75007  0  0.086528  0.135309  0  4.168981  0
C  C151  1  0.96015496  0.30384411  0.98874042  1  -0.030665  0  -0.064683  -0.210045  0  3.998108  0
C  C152  1  0.06175048  0.37925855  0.99200780  1  0.81451  0  0.142501  0.356611  0  3.929791  0
C  C153  1  0.75198635  0.17389738  0.03753917  1  1.653799  0  0.29754  0.631152  0  3.976697  0
C  C154  1  0.12370081  0.42702687  0.92131368  1  0.018176  0  -0.017823  0.048782  0  3.769143  0
C  C155  1  0.93410033  0.48677636  0.89710775  1  -0.034442  0  -0.159977  -0.192011  0  3.843494  0
C  C156  1  0.82925189  0.40535339  0.89116352  1  -0.009757  0  -0.173199  -0.18607  0  3.904311  0
C  C157  1  0.96548432  0.30776022  0.91560007  1  0.010295  0  -0.093563  -0.068728  0  3.851785  0
C  C158  1  0.16216324  0.33438979  0.88748670  1  0.017129  0  -0.012811  0.175297  0  3.736457  0
C  C159  1  0.32448402  0.25320059  0.91199807  1  -0.023321  0  -0.24928  -0.422411  0  3.926277  0
C  C160  1  0.19748240  0.35965154  0.81246148  1  -0.055037  0  -0.242731  -0.408576  0  3.911032  0
C  C161  1  0.27494980  0.48791318  0.91209623  1  -0.055729  0  -0.243757  -0.396183  0  3.93599  0
N  N162  1  0.76444457  0.86868391  0.55801666  1  -1.228769  0  -0.316666  -0.226398  0  3.500627  0
N  N163  1  0.16613700  0.26046578  0.17419888  1  -1.225157  0  -0.319553  -0.233761  0  3.514815  0
N  N164  1  0.12564230  0.81738911  0.71230304  1  -1.22018  0  -0.317444  -0.233422  0  3.497885  0
N  N165  1  0.71101949  0.48530872  0.09709910  1  -1.232005  0  -0.320795  -0.229764  0  3.509675  0
O  O166  1  0.08340992  0.95602055  0.57926213  1  -1.134224  0  -0.30422  -0.449855  0  2.405486  0
O  O167  1  0.75653181  0.95139711  0.68224324  1  -1.146242  0  -0.273964  -0.423313  0  2.333134  0
O  O168  1  0.81570593  0.72826378  0.69279675  1  -1.131492  0  -0.304148  -0.454356  0  2.416887  0
O  O169  1  0.12350752  0.73843855  0.58191939  1  -1.141775  0  -0.273372  -0.423762  0  2.339406  0
O  O170  1  0.02036183  0.95756244  0.32468145  1  -1.025954  0  -0.112994  -0.157774  0  2.50744  0
O  O171  1  0.03351098  0.48390241  0.16823093  1  -1.124465  0  -0.305281  -0.452107  0  2.398234  0
O  O172  1  0.77306576  0.34421456  0.22803941  1  -1.14075  0  -0.275815  -0.427806  0  2.325735  0
O  O173  1  0.85343563  0.25945759  0.10350228  1  -1.127709  0  -0.305459  -0.454962  0  2.408734  0
O  O174  1  0.09487656  0.40695014  0.04118646  1  -1.146454  0  -0.274662  -0.425241  0  2.336122  0
O  O175  1  0.84091353  0.76154973  0.95043338  1  -1.035565  0  -0.111816  -0.156321  0  2.5131  0
F  F176  1  0.25710890  0.08327043  0.49177968  1  -0.624323  0  -0.095458  -0.200893  0  1.357962  0
F  F177  1  0.19727696  0.19344550  0.55506091  1  -0.641588  0  -0.084751  -0.205194  0  1.403815  0
F  F178  1  0.39727076  0.05398727  0.58015515  1  -0.622235  0  -0.104242  -0.210815  0  1.29949  0
F  F179  1  0.71939504  0.48446528  0.72826614  1  -0.626486  0  -0.090319  -0.206645  0  1.357544  0
F  F180  1  0.51785181  0.62213139  0.69994774  1  -0.621457  0  -0.101555  -0.211977  0  1.312848  0
F  F181  1  0.65816128  0.60098378  0.78725294  1  -0.624988  0  -0.091568  -0.192366  0  1.34293  0
F  F182  1  0.11519995  0.64639913  0.19299856  1  -0.623175  0  -0.109055  -0.210158  0  1.309265  0
F  F183  1  0.10664066  0.58725343  0.29845282  1  -0.631142  0  -0.096171  -0.210934  0  1.344572  0
F  F184  1  0.33290725  0.52088082  0.22919842  1  -0.624818  0  -0.103689  -0.207845  0  1.294853  0
F  F185  1  0.78713331  0.08939481  0.08387294  1  -0.621998  0  -0.108592  -0.213251  0  1.301333  0
F  F186  1  0.56324530  0.21192561  0.04839473  1  -0.623374  0  -0.101383  -0.204442  0  1.301605  0
F  F187  1  0.78285634  0.14354159  0.97837471  1  -0.62796  0  -0.097517  -0.208232  0  1.330314  0
