# generated using pymatgen
data_MnH8C13NO5
_symmetry_space_group_name_H-M   'P 1'
_cell_length_a   12.56275681
_cell_length_b   12.57308371
_cell_length_c   13.74416893
_cell_angle_alpha   113.13289459
_cell_angle_beta   115.09453552
_cell_angle_gamma   96.20418219
_symmetry_Int_Tables_number   1
_chemical_formula_structural   MnH8C13NO5
_chemical_formula_sum   'Mn4 H32 C52 N4 O20'
_cell_volume   1706.75721985
_cell_formula_units_Z   4
loop_
 _symmetry_equiv_pos_site_id
 _symmetry_equiv_pos_as_xyz
  1  'x, y, z'
loop_
 _atom_site_type_symbol
 _atom_site_label
 _atom_site_symmetry_multiplicity
 _atom_site_fract_x
 _atom_site_fract_y
 _atom_site_fract_z
 _atom_site_occupancy
 _atom_site_pbe_bader_charge
 _atom_site_pbe_bader_spin_density
 _atom_site_pbe_cm5_charge
 _atom_site_pbe_ddec_charge
 _atom_site_pbe_ddec_spin_density
 _atom_site_pbe_ddec_sum_bond_order
 _atom_site_pbe_magmom
Mn  Mn0  1  0.99999948  0.49999936  0.50000053  1  1.588254  -4.397317  0.62512  1.076095  -4.515799  2.371497  -4.344
Mn  Mn1  1  0.49999963  0.49999792  0.99999777  1  1.597549  4.397542  0.63001  1.084481  4.525747  2.369581  4.344
Mn  Mn2  1  0.81211371  0.56114145  0.24979787  1  1.62248  4.292847  0.655498  1.095623  4.430628  2.558675  4.258
Mn  Mn3  1  0.18788570  0.43885556  0.75020157  1  1.622515  4.292822  0.655467  1.095578  4.430605  2.5588  4.258
H  H4  1  0.25842387  0.87585749  0.73072717  1  0.072576  -5.3e-05  0.095128  0.096814  0.000197  1.030582  0.0
H  H5  1  0.64450666  0.52640586  0.76685918  1  0.067397  0.000292  0.094734  0.095843  -8.6e-05  1.031804  0.0
H  H6  1  0.74157306  0.12414476  0.26927625  1  0.072585  -5.3e-05  0.095136  0.096817  0.000197  1.030566  0.0
H  H7  1  0.35549348  0.47359188  0.23314099  1  0.067384  0.000292  0.09473  0.095859  -8.6e-05  1.031826  0.0
H  H8  1  0.37031433  0.10204497  0.83941182  1  0.102282  0.000601  0.089384  0.083128  0.000317  1.088148  0.0
H  H9  1  0.76331746  0.53234151  0.66004921  1  0.091409  -7.9e-05  0.089764  0.083611  0.000105  1.088975  0.0
H  H10  1  0.62968413  0.89795731  0.16058949  1  0.102278  0.000601  0.089381  0.083138  0.000317  1.088155  0.0
H  H11  1  0.23668277  0.46765483  0.33995011  1  0.091417  -8e-05  0.089758  0.083598  0.000105  1.089008  0.0
H  H12  1  0.14808869  0.11444642  0.50889752  1  0.077452  0.000225  0.102982  0.102955  -0.000119  1.009359  0.0
H  H13  1  0.10563110  0.63915894  0.99089666  1  0.066911  0.00028  0.103393  0.10366  -8e-05  1.00898  0.0
H  H14  1  0.85191500  0.88554623  0.49109699  1  0.077713  0.000225  0.102983  0.10296  -0.00012  1.009395  0.0
H  H15  1  0.89437013  0.36085083  0.00910661  1  0.066968  0.000279  0.103376  0.103661  -8e-05  1.008938  0.0
H  H16  1  0.04255530  0.88718080  0.39734157  1  0.100963  0.000197  0.109389  0.117365  -0.000148  0.993489  0.0
H  H17  1  0.98869974  0.64268031  0.10079859  1  0.101264  0.000117  0.108864  0.116951  -0.000232  0.994204  0.0
H  H18  1  0.95745091  0.11281349  0.60265547  1  0.101015  0.000197  0.109386  0.117317  -0.000148  0.993541  0.0
H  H19  1  0.01130144  0.35732765  0.89920461  1  0.1013  0.000117  0.108876  0.11694  -0.000232  0.994214  0.0
H  H20  1  0.23403022  0.30598288  0.51561668  1  0.178853  0.000205  0.143439  0.138821  -0.000143  0.984397  0.0
H  H21  1  0.29107774  0.71880595  0.98540611  1  0.187578  0.000407  0.14405  0.138652  -0.000285  0.983614  0.0
H  H22  1  0.76597260  0.69402377  0.48438902  1  0.178745  0.000205  0.143455  0.138841  -0.000143  0.984366  0.0
H  H23  1  0.70892214  0.28119091  0.01459014  1  0.187535  0.000407  0.144093  0.138717  -0.000285  0.983538  0.0
H  H24  1  0.39575205  0.30225988  0.45700681  1  0.097713  -0.000153  0.115807  0.121194  -0.000109  0.992148  0.0
H  H25  1  0.34573851  0.93902342  0.04354799  1  0.057815  0.000413  0.115873  0.121102  -1.1e-05  0.991736  0.0
H  H26  1  0.60424859  0.69774459  0.54299670  1  0.097667  -0.000153  0.115799  0.121182  -0.000109  0.992093  0.0
H  H27  1  0.65426095  0.06097543  0.95645425  1  0.057811  0.000413  0.115869  0.121109  -1.1e-05  0.991755  0.0
H  H28  1  0.47204896  0.69342524  0.58852974  1  0.087437  0.000144  0.114768  0.120695  0.000103  0.994981  0.0
H  H29  1  0.60476505  0.88343486  0.91140233  1  0.083982  0.000442  0.115223  0.122077  2.1e-05  0.994955  0.0
H  H30  1  0.52794355  0.30657581  0.41146473  1  0.08749  0.000144  0.114746  0.120661  0.000103  0.994955  0.0
H  H31  1  0.39523761  0.11656455  0.08860310  1  0.08388  0.000442  0.115214  0.122053  2e-05  0.995023  0.0
H  H32  1  0.30418660  0.67724201  0.63871289  1  0.189071  0.000136  0.136906  0.129129  0.000343  1.001675  0.0
H  H33  1  0.53854566  0.66538687  0.86137062  1  0.145113  0.000551  0.137266  0.129384  -0.000113  0.998964  0.0
H  H34  1  0.69581070  0.32276149  0.36128820  1  0.189015  0.000136  0.136895  0.129161  0.000343  1.001593  0.0
H  H35  1  0.46145594  0.33461232  0.13863102  1  0.145126  0.000551  0.137272  0.1294  -0.000113  0.99897  0.0
C  C36  1  0.07070754  0.73474916  0.49186624  1  1.56293  0.006813  0.226142  0.592654  0.00649  4.176605  0.005
C  C37  1  0.74149299  0.57534615  0.00522890  1  1.542697  0.018881  0.226467  0.593202  0.018261  4.170884  0.017
C  C38  1  0.92929213  0.26524870  0.50813437  1  1.562896  0.006813  0.22611  0.592608  0.006489  4.176682  0.005
C  C39  1  0.25850620  0.42465182  0.99476942  1  1.542667  0.018881  0.226473  0.593212  0.01826  4.170868  0.017
C  C40  1  0.14449594  0.86807337  0.55699782  1  -0.035607  0.006186  -0.018732  -0.035482  0.005055  3.971969  0.004
C  C41  1  0.81007897  0.58547560  0.94084215  1  -0.004964  0.004196  -0.020099  -0.039396  0.002923  3.972215  0.002
C  C42  1  0.85550599  0.13192525  0.44300141  1  -0.035424  0.006188  -0.018737  -0.03551  0.005056  3.971986  0.004
C  C43  1  0.18992043  0.41452643  0.05915827  1  -0.004958  0.004196  -0.020068  -0.039283  0.002923  3.972167  0.002
C  C44  1  0.23772723  0.92820470  0.68179545  1  0.017602  0.000249  -0.09431  -0.108522  0.000446  3.995877  0.0
C  C45  1  0.74593847  0.55487141  0.81637821  1  -0.085359  0.003085  -0.094064  -0.105316  0.002214  3.995158  0.002
C  C46  1  0.76227128  0.07179437  0.31820495  1  0.017602  0.000249  -0.094268  -0.108436  0.000446  3.995892  0.0
C  C47  1  0.25406265  0.44512788  0.18362113  1  -0.085372  0.003085  -0.09404  -0.105377  0.002214  3.995219  0.002
C  C48  1  0.29921575  0.05360068  0.74246922  1  -0.089142  0.005296  -0.095276  -0.101212  0.003966  3.998013  0.003
C  C49  1  0.81137162  0.55724210  0.75669386  1  -0.075919  0.002083  -0.095806  -0.103461  0.001747  3.999918  0.001
C  C50  1  0.70078468  0.94639970  0.25752946  1  -0.089218  0.005297  -0.095295  -0.10125  0.003966  3.998033  0.003
C  C51  1  0.18862897  0.44276053  0.24330684  1  -0.075928  0.002083  -0.095797  -0.103422  0.001747  4.00003  0.001
C  C52  1  0.26698684  0.12158383  0.68085761  1  -0.064353  0.002666  -0.016439  -0.031428  0.001615  3.959816  0.001
C  C53  1  0.94116111  0.58710679  0.81887993  1  0.048712  0.001037  -0.01597  -0.029193  0.000753  3.960521  0.0
C  C54  1  0.73301316  0.87841344  0.31913786  1  -0.06442  0.002666  -0.016463  -0.031492  0.001615  3.959694  0.001
C  C55  1  0.05884150  0.41289577  0.18112095  1  0.049021  0.001037  -0.016025  -0.029223  0.000753  3.960774  0.0
C  C56  1  0.17506801  0.06101127  0.55579654  1  -0.05098  0.005445  -0.084185  -0.094298  0.004042  3.987026  0.003
C  C57  1  0.00513990  0.61905032  0.94359062  1  -0.092204  0.001903  -0.08549  -0.096758  0.001349  3.98711  0.001
C  C58  1  0.82493264  0.93898310  0.44419953  1  -0.051205  0.005445  -0.084104  -0.094132  0.004043  3.98697  0.003
C  C59  1  0.99486185  0.38095611  0.05641129  1  -0.092685  0.001903  -0.085479  -0.096791  0.001349  3.987104  0.001
C  C60  1  0.11554186  0.93518644  0.49398297  1  -0.030155  0.000112  -0.082777  -0.093478  -2.1e-05  3.978085  0.0
C  C61  1  0.94041769  0.61986039  0.00445016  1  -0.012201  0.002931  -0.081694  -0.091519  0.002137  3.976554  0.002
C  C62  1  0.88446162  0.06480719  0.50601316  1  -0.030352  0.000112  -0.082826  -0.093539  -2e-05  3.978234  0.0
C  C63  1  0.05958453  0.38014592  0.99555130  1  -0.011852  0.00293  -0.081722  -0.091541  0.002136  3.976578  0.002
C  C64  1  0.32386378  0.25830147  0.75030302  1  1.571084  0.028837  0.226963  0.603629  0.027752  4.159803  0.024
C  C65  1  0.00900148  0.57646880  0.75026551  1  1.57134  0.014851  0.224253  0.600581  0.013805  4.164573  0.012
C  C66  1  0.67613742  0.74169639  0.24969274  1  1.57125  0.028838  0.226968  0.603584  0.027754  4.159739  0.024
C  C67  1  0.99100129  0.42353601  0.24973739  1  1.571092  0.014849  0.224238  0.600411  0.013804  4.164774  0.012
C  C68  1  0.29058706  0.38689910  0.52794562  1  0.376771  -7.6e-05  0.056815  -0.004534  -0.000202  3.844436  0.0
C  C69  1  0.35949853  0.76300173  0.97283133  1  0.374003  0.033368  0.058317  -0.00151  0.025575  3.840398  0.018
C  C70  1  0.70941285  0.61310464  0.47205716  1  0.376976  -7.6e-05  0.056807  -0.004575  -0.000202  3.844558  0.0
C  C71  1  0.64050104  0.23699750  0.02716739  1  0.374109  0.033365  0.058331  -0.001561  0.025574  3.840235  0.018
C  C72  1  0.38182376  0.38916974  0.49788903  1  0.003883  -0.001872  -0.075093  -0.151183  -0.001544  3.971384  -0.001
C  C73  1  0.39175140  0.88423492  0.00269371  1  0.034662  0.010999  -0.074246  -0.150194  0.00937  3.969242  0.004
C  C74  1  0.61817517  0.61083242  0.50211183  1  0.003817  -0.001872  -0.075101  -0.15117  -0.001545  3.971445  -0.001
C  C75  1  0.60824678  0.11575968  0.99730536  1  0.03446  0.011004  -0.07428  -0.150247  0.009373  3.969261  0.004
C  C76  1  0.45297556  0.49868384  0.51756178  1  -0.030572  -0.003508  -0.001946  0.069826  -0.002795  4.007064  -0.002
C  C77  1  0.48121104  0.93539609  0.98257715  1  -0.02798  0.054712  -0.001074  0.072366  0.042975  4.001364  0.031
C  C78  1  0.54701994  0.50131872  0.48243478  1  0.008598  -0.003496  -0.001958  0.069869  -0.002794  4.007046  -0.002
C  C79  1  0.51879068  0.06460355  0.01742644  1  0.011578  0.054376  -0.001063  0.072434  0.042962  4.001533  0.031
C  C80  1  0.42441662  0.60478049  0.57124072  1  0.043501  0.00115  -0.078905  -0.157668  0.000935  3.985475  0.001
C  C81  1  0.53363487  0.85322407  0.92894766  1  0.056222  0.008441  -0.078868  -0.160976  0.007402  3.98564  0.003
C  C82  1  0.57557923  0.39522152  0.42875617  1  0.043079  0.00115  -0.078877  -0.157639  0.000934  3.985446  0.001
C  C83  1  0.46636347  0.14677278  0.07105345  1  0.056075  0.008445  -0.078821  -0.160965  0.007405  3.985559  0.003
C  C84  1  0.33326539  0.60012264  0.60145767  1  0.318182  -0.001842  0.045464  -0.035865  -0.001211  3.87739  -0.001
C  C85  1  0.49891033  0.73191054  0.89889217  1  0.348615  0.034083  0.047474  -0.031895  0.026264  3.871504  0.018
C  C86  1  0.66672999  0.39987953  0.39854240  1  0.318551  -0.001841  0.045477  -0.03594  -0.00121  3.877324  -0.001
C  C87  1  0.50109249  0.26809106  0.10110982  1  0.348671  0.034078  0.047431  -0.031931  0.02626  3.871507  0.018
N  N88  1  0.26797840  0.49198772  0.58076112  1  -0.660492  -0.001415  -0.108783  0.330688  -0.001047  3.878598  -0.001
N  N89  1  0.41163629  0.68753986  0.91985892  1  -0.646172  0.042145  -0.109961  0.328687  0.030932  3.873892  0.035
N  N90  1  0.73202035  0.50801724  0.41924144  1  -0.660616  -0.001415  -0.108814  0.330713  -0.001047  3.878496  -0.001
N  N91  1  0.58836552  0.31245835  0.08014109  1  -0.646234  0.042142  -0.109967  0.328725  0.030929  3.874025  0.035
O  O92  1  0.09210854  0.68028069  0.55612976  1  -1.182906  -0.0383  -0.310152  -0.568083  -0.027144  2.332107  -0.01
O  O93  1  0.62252830  0.53209183  0.94061740  1  -1.165265  0.057281  -0.310665  -0.568043  0.04023  2.319079  0.025
O  O94  1  0.90789027  0.31972108  0.44387461  1  -1.182852  -0.038304  -0.310139  -0.568056  -0.027145  2.33217  -0.01
O  O95  1  0.37747003  0.46790496  0.05937823  1  -1.165226  0.057277  -0.310696  -0.568059  0.04023  2.319119  0.025
O  O96  1  0.99135189  0.68580640  0.37769974  1  -1.205054  0.054351  -0.307055  -0.559111  0.040343  2.347032  0.024
O  O97  1  0.80675494  0.60926125  0.11905081  1  -1.200754  0.067343  -0.307092  -0.560169  0.050056  2.345201  0.035
O  O98  1  0.00864885  0.31419162  0.62229920  1  -1.205065  0.054352  -0.307061  -0.559101  0.040345  2.347027  0.024
O  O99  1  0.19324491  0.39073382  0.88094811  1  -1.200749  0.06734  -0.307063  -0.56016  0.050056  2.345245  0.035
O  O100  1  0.41671381  0.30911781  0.85885196  1  -1.182011  0.070887  -0.304375  -0.561465  0.051978  2.311776  0.039
O  O101  1  0.95194127  0.56267122  0.64255349  1  -1.189428  -0.040119  -0.303634  -0.56002  -0.030082  2.310876  -0.016
O  O102  1  0.58328619  0.69087945  0.14114352  1  -1.182037  0.070881  -0.304357  -0.561369  0.051975  2.3117  0.039
O  O103  1  0.04806070  0.43732924  0.35744854  1  -1.189448  -0.040128  -0.303607  -0.559924  -0.030081  2.310935  -0.016
O  O104  1  0.27181671  0.31602953  0.69500992  1  -1.203028  0.058946  -0.321675  -0.598295  0.04244  2.400562  0.022
O  O105  1  0.12209391  0.57927748  0.80538692  1  -1.20384  0.053216  -0.323022  -0.60009  0.038303  2.40323  0.018
O  O106  1  0.72818283  0.68396790  0.30498874  1  -1.203089  0.058944  -0.321719  -0.598368  0.04244  2.400547  0.022
O  O107  1  0.87790701  0.42071780  0.19461580  1  -1.203885  0.053222  -0.323035  -0.600016  0.038302  2.403263  0.018
O  O108  1  0.18114463  0.48949491  0.61175674  1  -0.695989  -0.003707  -0.205779  -0.495147  -0.00199  2.262243  -0.001
O  O109  1  0.37785361  0.56965406  0.88881337  1  -0.698202  0.065485  -0.204734  -0.494618  0.053969  2.262408  0.014
O  O110  1  0.81885468  0.51050854  0.38824726  1  -0.695918  -0.003706  -0.205752  -0.49514  -0.001992  2.262107  -0.001
O  O111  1  0.62214447  0.43034191  0.11118382  1  -0.698082  0.065481  -0.204725  -0.494618  0.053975  2.262419  0.014
