# generated using pymatgen
data_AlH12C21(NO2)3
_symmetry_space_group_name_H-M   'P 1'
_cell_length_a   3.98650403
_cell_length_b   27.87636355
_cell_length_c   27.87612659
_cell_angle_alpha   119.99946835
_cell_angle_beta   89.99843126
_cell_angle_gamma   90.00035682
_symmetry_Int_Tables_number   1
_chemical_formula_structural   AlH12C21(NO2)3
_chemical_formula_sum   'Al2 H24 C42 N6 O12'
_cell_volume   2682.83345612
_cell_formula_units_Z   2
loop_
 _symmetry_equiv_pos_site_id
 _symmetry_equiv_pos_as_xyz
  1  'x, y, z'
loop_
 _atom_site_type_symbol
 _atom_site_label
 _atom_site_symmetry_multiplicity
 _atom_site_fract_x
 _atom_site_fract_y
 _atom_site_fract_z
 _atom_site_occupancy
 _atom_site_pbe_bader_charge
 _atom_site_pbe_bader_spin_density
 _atom_site_pbe_cm5_charge
 _atom_site_pbe_ddec_charge
 _atom_site_pbe_ddec_spin_density
 _atom_site_pbe_ddec_sum_bond_order
 _atom_site_pbe_magmom
Al  Al0  1  0.00341957  0.50000206  0.50000406  1  2.503383  0  0.426508  1.598201  0  2.573683  0
Al  Al1  1  0.00337068  0.16666375  0.83333513  1  2.503505  0  0.426531  1.598295  0  2.573545  0
H  H2  1  0.20652454  0.18751054  0.69680602  1  0.103425  0  0.110469  0.115902  0  0.98247  0
H  H3  1  0.22290552  0.24418303  0.64933821  1  0.10024  0  0.107305  0.112032  0  1.005315  0
H  H4  1  0.76679266  0.37182943  0.78742047  1  0.084168  0  0.108843  0.114706  0  0.988237  0
H  H5  1  0.78716092  0.31197392  0.83162275  1  0.098483  0  0.110902  0.116346  0  0.985041  0
H  H6  1  0.76684918  0.29483077  0.54590609  1  0.084041  0  0.108865  0.11473  0  0.988129  0
H  H7  1  0.22293609  0.42247974  0.68400054  1  0.100609  0  0.107343  0.112051  0  1.005105  0
H  H8  1  0.20655654  0.47915149  0.63652998  1  0.103406  0  0.11049  0.115948  0  0.982715  0
H  H9  1  0.78716820  0.35469245  0.50171116  1  0.098612  0  0.110981  0.116596  0  0.985518  0
H  H10  1  0.20649217  0.00928607  0.81248848  1  0.067814  0  0.110469  0.115934  0  0.982589  0
H  H11  1  0.22286422  0.90514740  0.75581496  1  0.102873  0  0.107373  0.112129  0  1.005117  0
H  H12  1  0.76676168  0.91558748  0.62816282  1  0.101057  0  0.108826  0.114685  0  0.98814  0
H  H13  1  0.78712326  0.01964350  0.68802188  1  0.093902  0  0.110898  0.116431  0  0.985215  0
H  H14  1  0.76675837  0.75107650  0.70516835  1  0.101089  0  0.108848  0.114674  0  0.988331  0
H  H15  1  0.22289825  0.76151051  0.57751480  1  0.102602  0  0.107288  0.112019  0  1.005335  0
H  H16  1  0.20655630  0.65737099  0.52084172  1  0.076253  0  0.11047  0.115901  0  0.982496  0
H  H17  1  0.78715318  0.64702086  0.64531043  1  0.093899  0  0.110946  0.11645  0  0.98524  0
H  H18  1  0.20650899  0.30319972  0.99070753  1  0.092096  0  0.11049  0.115875  0  0.982514  0
H  H19  1  0.22283524  0.35066468  0.09484729  1  0.129755  0  0.107344  0.112035  0  1.005153  0
H  H20  1  0.76671335  0.21258059  0.08441775  1  0.088392  0  0.108832  0.114658  0  0.988105  0
H  H21  1  0.78711609  0.16837880  0.98035945  1  0.098846  0  0.110859  0.116325  0  0.985094  0
H  H22  1  0.76674793  0.45408799  0.24892023  1  0.088118  0  0.108843  0.114712  0  0.987994  0
H  H23  1  0.22287348  0.31600020  0.23849122  1  0.130187  0  0.107291  0.111979  0  1.005089  0
H  H24  1  0.20658212  0.36346878  0.34263204  1  0.091619  0  0.110471  0.11585  0  0.982839  0
H  H25  1  0.78714780  0.49828416  0.35297643  1  0.0986  0  0.110931  0.116462  0  0.985571  0
C  C26  1  0.50227496  0.46057216  0.41494571  1  1.53284  0  0.274343  0.646729  0  4.068758  0
C  C27  1  0.50227299  0.45437231  0.53943210  1  1.548213  0  0.274419  0.647042  0  4.068368  0
C  C28  1  0.50228018  0.58505696  0.54562887  1  1.571238  0  0.274436  0.646864  0  4.068228  0
C  C29  1  0.50223606  0.21229387  0.79390586  1  1.548359  0  0.274591  0.64718  0  4.068405  0
C  C30  1  0.50221632  0.08160458  0.78770154  1  1.573602  0  0.274627  0.647385  0  4.068009  0
C  C31  1  0.50222155  0.20609474  0.91839296  1  1.532021  0  0.274503  0.647238  0  4.068439  0
C  C32  1  0.50007710  0.24632325  0.76648871  1  0.015502  0  -0.007579  -0.038356  0  3.951969  0
C  C33  1  0.33727476  0.22713698  0.71537074  1  -0.100574  0  -0.075156  -0.07422  0  3.96261  0
C  C34  1  0.34478324  0.25835091  0.68918635  1  0.000387  0  -0.08129  -0.145377  0  3.950605  0
C  C35  1  0.50175897  0.31055336  0.71557136  1  0.344252  0  0.089462  0.169225  0  4.053713  0
C  C36  1  0.65014759  0.33100614  0.76790452  1  -0.023478  0  -0.079452  -0.144561  0  3.961522  0
C  C37  1  0.65937320  0.29813768  0.79232043  1  -0.037161  0  -0.07837  -0.079682  0  3.973115  0
C  C38  1  0.65017704  0.33566072  0.56543115  1  -0.028616  0  -0.079689  -0.144992  0  3.961981  0
C  C39  1  0.50180689  0.35610762  0.61775890  1  0.349273  0  0.089526  0.169264  0  4.054135  0
C  C40  1  0.34482333  0.40831098  0.64414824  1  0.000125  0  -0.081214  -0.145138  0  3.950268  0
C  C41  1  0.33727099  0.43953143  0.61796957  1  -0.099136  0  -0.075139  -0.074251  0  3.962687  0
C  C42  1  0.50007976  0.42034635  0.56684728  1  0.014539  0  -0.007533  -0.038333  0  3.951059  0
C  C43  1  0.65943629  0.36851920  0.54100149  1  -0.037078  0  -0.078334  -0.07978  0  3.97251  0
C  C44  1  0.50003089  0.02016061  0.75367527  1  -0.085675  0  -0.007539  -0.03836  0  3.951828  0
C  C45  1  0.33723022  0.98822818  0.77286216  1  -0.087591  0  -0.075227  -0.074512  0  3.96247  0
C  C46  1  0.34472476  0.93082505  0.74164524  1  0.033524  0  -0.08123  -0.145163  0  3.949763  0
C  C47  1  0.50172640  0.90501237  0.68944016  1  0.403648  0  0.089558  0.16934  0  4.053918  0
C  C48  1  0.65011217  0.93689218  0.66898989  1  0.002351  0  -0.079443  -0.144608  0  3.961533  0
C  C49  1  0.65933638  0.99417940  0.70185589  1  -0.023847  0  -0.078527  -0.079924  0  3.973024  0
C  C50  1  0.65014836  0.72977040  0.66434482  1  0.002326  0  -0.079456  -0.144527  0  3.961152  0
C  C51  1  0.50174527  0.76164943  0.64388762  1  0.402408  0  0.089419  0.169145  0  4.053611  0
C  C52  1  0.34478259  0.73583326  0.59168411  1  0.034648  0  -0.081355  -0.145469  0  3.950634  0
C  C53  1  0.33728907  0.67843332  0.56046833  1  -0.09531  0  -0.075108  -0.074111  0  3.962537  0
C  C54  1  0.50009588  0.64650448  0.57965662  1  -0.086236  0  -0.007623  -0.038377  0  3.951805  0
C  C55  1  0.65938394  0.67248418  0.63147274  1  -0.023773  0  -0.078383  -0.079753  0  3.973072  0
C  C56  1  0.50003892  0.23351479  0.97983812  1  -0.02616  0  -0.007494  -0.038377  0  3.951795  0
C  C57  1  0.33722770  0.28463380  0.01177128  1  -0.073179  0  -0.075082  -0.074111  0  3.962482  0
C  C58  1  0.34472559  0.31081467  0.06916795  1  0.008856  0  -0.08135  -0.145316  0  3.950347  0
C  C59  1  0.50168717  0.28443136  0.09498875  1  0.347668  0  0.089427  0.169092  0  4.053976  0
C  C60  1  0.65008980  0.23209737  0.06310663  1  -0.030283  0  -0.079312  -0.144307  0  3.961414  0
C  C61  1  0.65932088  0.20768127  0.00582485  1  -0.027537  0  -0.078537  -0.079953  0  3.973355  0
C  C62  1  0.65009942  0.43456783  0.27023041  1  -0.036287  0  -0.079512  -0.144684  0  3.961439  0
C  C63  1  0.50171821  0.38223881  0.23835499  1  0.354462  0  0.089601  0.169349  0  4.053689  0
C  C64  1  0.34478320  0.35585179  0.26416968  1  0.00742  0  -0.081317  -0.145307  0  3.950179  0
C  C65  1  0.33725038  0.38203007  0.32157042  1  -0.072704  0  -0.075125  -0.074057  0  3.962142  0
C  C66  1  0.50008784  0.43315499  0.35350343  1  -0.026055  0  -0.007597  -0.038514  0  3.951388  0
C  C67  1  0.65938583  0.45899373  0.32751741  1  -0.027452  0  -0.078392  -0.079731  0  3.973005  0
N  N68  1  0.51295465  0.34582814  0.69287870  1  -0.542376  0  -0.145057  -0.130846  0  3.274784  0
N  N69  1  0.51296664  0.32083436  0.64045140  1  -0.392302  0  -0.144906  -0.130461  0  3.274753  0
N  N70  1  0.51290625  0.84704906  0.65416657  1  -0.472345  0  -0.14502  -0.13073  0  3.27446  0
N  N71  1  0.51290329  0.81961389  0.67916357  1  -0.537113  0  -0.144862  -0.130562  0  3.274234  0
N  N72  1  0.51284478  0.30712059  0.15295275  1  -0.530215  0  -0.144977  -0.130626  0  3.274863  0
N  N73  1  0.51287087  0.35954856  0.18038620  1  -0.394874  0  -0.14496  -0.130659  0  3.274223  0
O  O74  1  0.73836284  0.55952143  0.55455642  1  -1.250458  0  -0.237639  -0.597639  0  2.372939  0
O  O75  1  0.73836733  0.49503582  0.44048385  1  -1.25729  0  -0.237579  -0.597498  0  2.372852  0
O  O76  1  0.73834257  0.44545247  0.50497106  1  -1.247285  0  -0.237624  -0.597726  0  2.373276  0
O  O77  1  0.26881538  0.56174816  0.50992003  1  -1.258492  0  -0.239096  -0.597295  0  2.361271  0
O  O78  1  0.26877474  0.49008240  0.55183550  1  -1.253898  0  -0.239233  -0.597514  0  2.360898  0
O  O79  1  0.26879974  0.44817404  0.43825584  1  -1.255487  0  -0.239153  -0.597332  0  2.361374  0
O  O80  1  0.73829225  0.17163136  0.89285599  1  -1.257113  0  -0.237714  -0.59787  0  2.373177  0
O  O81  1  0.73832704  0.22121810  0.82836970  1  -1.247386  0  -0.237688  -0.597821  0  2.373023  0
O  O82  1  0.73829173  0.10714756  0.77878233  1  -1.252513  0  -0.237794  -0.597952  0  2.37307  0
O  O83  1  0.26874126  0.21849227  0.89508340  1  -1.255171  0  -0.239209  -0.597448  0  2.361131  0
O  O84  1  0.26871810  0.10491293  0.82341151  1  -1.258743  0  -0.239232  -0.597489  0  2.360779  0
O  O85  1  0.26876375  0.17658657  0.78150682  1  -1.253443  0  -0.239222  -0.597457  0  2.361359  0
