# generated using pymatgen
data_NaH6C4N11O2
_symmetry_space_group_name_H-M   'P 1'
_cell_length_a   6.96357130
_cell_length_b   9.21386047
_cell_length_c   9.50937597
_cell_angle_alpha   118.98736443
_cell_angle_beta   106.05675478
_cell_angle_gamma   89.98545961
_symmetry_Int_Tables_number   1
_chemical_formula_structural   NaH6C4N11O2
_chemical_formula_sum   'Na2 H12 C8 N22 O4'
_cell_volume   506.34296951
_cell_formula_units_Z   2
loop_
 _symmetry_equiv_pos_site_id
 _symmetry_equiv_pos_as_xyz
  1  'x, y, z'
loop_
 _atom_site_type_symbol
 _atom_site_label
 _atom_site_symmetry_multiplicity
 _atom_site_fract_x
 _atom_site_fract_y
 _atom_site_fract_z
 _atom_site_occupancy
 _atom_site_hle17_bader_spin_density
 _atom_site_hle17_ddec_charge
 _atom_site_hle17_ddec_spin_density
 _atom_site_hle17_ddec_sum_bond_order
 _atom_site_hle17_magmom
 _atom_site_hse06_10hf_bader_spin_density
 _atom_site_hse06_10hf_ddec_charge
 _atom_site_hse06_10hf_ddec_spin_density
 _atom_site_hse06_10hf_ddec_sum_bond_order
 _atom_site_hse06_10hf_magmom
 _atom_site_hse06_bader_spin_density
 _atom_site_hse06_ddec_charge
 _atom_site_hse06_ddec_spin_density
 _atom_site_hse06_ddec_sum_bond_order
 _atom_site_hse06_magmom
 _atom_site_pbe_bader_spin_density
 _atom_site_pbe_cm5_charge
 _atom_site_pbe_ddec_charge
 _atom_site_pbe_ddec_spin_density
 _atom_site_pbe_ddec_sum_bond_order
 _atom_site_pbe_magmom
Na  Na0  1  0.75002785  0.56958793  0.00003992  1  0  0.899252  0  0.339512  0  0  0.841182  0  0.50124  0  0  0.853207  0  0.477405  0  0  0.596557  0.832434  0  0.518156  0
Na  Na1  1  0.24997494  0.43041133  0.99996109  1  0  0.89926  0  0.339498  0  0  0.841187  0  0.501229  0  0  0.853214  0  0.477398  0  0  0.59657  0.83244  0  0.518147  0
H  H2  1  0.11360753  0.29455903  0.42064928  1  0  0.118759  0  0.984308  0  0  0.115783  0  1.064694  0  0  0.120329  0  1.058695  0  0  0.146274  0.112716  0  1.069283  0
H  H3  1  0.38676885  0.87386451  0.57940937  1  0  0.117439  0  0.984763  0  0  0.115359  0  1.064367  0  0  0.119877  0  1.058407  0  0  0.146279  0.112286  0  1.068904  0
H  H4  1  0.88638929  0.70544024  0.57935049  1  0  0.118752  0  0.984322  0  0  0.115781  0  1.064701  0  0  0.12033  0  1.058703  0  0  0.146268  0.112714  0  1.069291  0
H  H5  1  0.61323296  0.12613723  0.42059048  1  0  0.117462  0  0.984795  0  0  0.115377  0  1.064393  0  0  0.119894  0  1.058433  0  0  0.146295  0.112303  0  1.068933  0
H  H6  1  0.92974370  0.47602837  0.72952204  1  0  0.393523  0  0.917605  0  0  0.354323  0  0.995995  0  0  0.364932  0  0.980338  0  0  0.282339  0.346814  0  1.00702  0
H  H7  1  0.57013365  0.74644178  0.27039425  1  0  0.39368  0  0.917373  0  0  0.354317  0  0.996007  0  0  0.364939  0  0.980328  0  0  0.282495  0.346849  0  1.006944  0
H  H8  1  0.07025761  0.52397087  0.27047761  1  0  0.393558  0  0.917558  0  0  0.354349  0  0.995955  0  0  0.36496  0  0.980299  0  0  0.282327  0.34684  0  1.006981  0
H  H9  1  0.42986742  0.25355621  0.72960477  1  0  0.393675  0  0.917378  0  0  0.354316  0  0.996005  0  0  0.364936  0  0.980329  0  0  0.282494  0.346849  0  1.00694  0
H  H10  1  0.05926606  0.65227310  0.86961503  1  0  0.406457  0  0.895293  0  0  0.367927  0  0.972832  0  0  0.37874  0  0.957028  0  0  0.283862  0.36033  0  0.983882  0
H  H11  1  0.44071393  0.78267108  0.13031330  1  0  0.406809  0  0.89475  0  0  0.367778  0  0.973171  0  0  0.378589  0  0.957403  0  0  0.283717  0.36017  0  0.984229  0
H  H12  1  0.94073399  0.34772742  0.13038599  1  0  0.406543  0  0.895184  0  0  0.367999  0  0.972736  0  0  0.378816  0  0.956933  0  0  0.283877  0.360402  0  0.983784  0
H  H13  1  0.55928613  0.21732942  0.86968666  1  0  0.406808  0  0.894755  0  0  0.367775  0  0.973176  0  0  0.378586  0  0.95741  0  0  0.283715  0.360168  0  0.984233  0
C  C14  1  0.11936049  0.16825428  0.39950628  1  0  0.15913  0  3.647227  0  0  0.085092  0  3.93955  0  0  0.098029  0  3.949088  0  0  0.170318  0.067289  0  3.928986  0
C  C15  1  0.38079487  0.76874591  0.60056865  1  0  0.161318  0  3.645601  0  0  0.086878  0  3.937245  0  0  0.09986  0  3.946765  0  0  0.170704  0.068838  0  3.927682  0
C  C16  1  0.88063983  0.83174747  0.60049326  1  0  0.159108  0  3.64732  0  0  0.085066  0  3.939648  0  0  0.097997  0  3.949193  0  0  0.17031  0.067266  0  3.929083  0
C  C17  1  0.61920394  0.23125585  0.39943162  1  0  0.161251  0  3.645716  0  0  0.086832  0  3.937331  0  0  0.099815  0  3.946855  0  0  0.170682  0.068783  0  3.927765  0
C  C18  1  0.85872079  0.99913300  0.11610685  1  0  0.405043  0  3.843779  0  0  0.358801  0  4.137593  0  0  0.374174  0  4.152712  0  0  0.31231  0.339246  0  4.127115  0
C  C19  1  0.64127780  0.88305754  0.88404896  1  0  0.405705  0  3.841263  0  0  0.359352  0  4.135652  0  0  0.374818  0  4.150703  0  0  0.313478  0.339671  0  4.125329  0
C  C20  1  0.14127877  0.00086501  0.88389292  1  0  0.405021  0  3.843823  0  0  0.358798  0  4.137612  0  0  0.374175  0  4.152725  0  0  0.312291  0.339234  0  4.127151  0
C  C21  1  0.35872200  0.11694172  0.11595144  1  0  0.405627  0  3.841298  0  0  0.359272  0  4.135693  0  0  0.374735  0  4.150748  0  0  0.313448  0.33958  0  4.125375  0
N  N22  1  0.24591195  0.12839633  0.50321719  1  0  -0.265804  0  2.997211  0  0  -0.22344  0  3.28287  0  0  -0.236278  0  3.294594  0  0  -0.196723  -0.215111  0  3.277603  0
N  N23  1  0.25427888  0.62521203  0.49682880  1  0  -0.266318  0  2.997635  0  0  -0.22412  0  3.283175  0  0  -0.236989  0  3.294869  0  0  -0.196818  -0.21587  0  3.278648  0
N  N24  1  0.75408936  0.87160291  0.49678246  1  0  -0.265743  0  2.99717  0  0  -0.223374  0  3.282833  0  0  -0.236211  0  3.294556  0  0  -0.196694  -0.215044  0  3.277564  0
N  N25  1  0.74572141  0.37478975  0.50317285  1  0  -0.266297  0  2.997589  0  0  -0.224103  0  3.283126  0  0  -0.236974  0  3.29482  0  0  -0.196814  -0.215853  0  3.278602  0
N  N26  1  0.20406301  0.95835886  0.42937866  1  0  -0.053988  0  2.980896  0  0  -0.044316  0  3.284025  0  0  -0.04386  0  3.293533  0  0  -0.063009  -0.044441  0  3.279663  0
N  N27  1  0.29599035  0.52903528  0.57069373  1  0  -0.054316  0  2.981881  0  0  -0.044329  0  3.284147  0  0  -0.043846  0  3.29361  0  0  -0.06363  -0.044797  0  3.280943  0
N  N28  1  0.79594154  0.04164163  0.57062118  1  0  -0.054001  0  2.980657  0  0  -0.044335  0  3.2838  0  0  -0.043876  0  3.293305  0  0  -0.062999  -0.044459  0  3.279437  0
N  N29  1  0.70400697  0.47096647  0.42930517  1  0  -0.054301  0  2.981901  0  0  -0.044315  0  3.28418  0  0  -0.043831  0  3.293643  0  0  -0.06365  -0.044783  0  3.280979  0
N  N30  1  0.05953520  0.89318509  0.28599069  1  0  -0.068397  0  2.817762  0  0  -0.072621  0  3.100915  0  0  -0.068464  0  3.10859  0  0  -0.04984  -0.083803  0  3.089612  0
N  N31  1  0.44044240  0.60723407  0.71413105  1  0  -0.068328  0  2.818673  0  0  -0.072177  0  3.101  0  0  -0.068011  0  3.108677  0  0  -0.049627  -0.083686  0  3.090842  0
N  N32  1  0.94046910  0.10681416  0.71400959  1  0  -0.068394  0  2.81766  0  0  -0.072616  0  3.100821  0  0  -0.06846  0  3.108496  0  0  -0.049862  -0.083795  0  3.08952  0
N  N33  1  0.55955319  0.39276642  0.28586692  1  0  -0.068301  0  2.818727  0  0  -0.072163  0  3.101067  0  0  -0.067995  0  3.108742  0  0  -0.04959  -0.083679  0  3.090903  0
N  N34  1  0.00397907  0.02501030  0.26501611  1  0  -0.037426  0  3.576375  0  0  0.045916  0  3.804844  0  0  0.032146  0  3.826878  0  0  -0.098097  0.083758  0  3.752809  0
N  N35  1  0.49606481  0.75999793  0.73510331  1  0  -0.036132  0  3.573581  0  0  0.047192  0  3.801698  0  0  0.03336  0  3.823738  0  0  -0.097522  0.084428  0  3.751524  0
N  N36  1  0.99602223  0.97498897  0.73498459  1  0  -0.037467  0  3.57645  0  0  0.045864  0  3.804931  0  0  0.032093  0  3.826967  0  0  -0.098114  0.083705  0  3.75291  0
N  N37  1  0.50393526  0.24000257  0.26489559  1  0  -0.036122  0  3.573621  0  0  0.047202  0  3.801733  0  0  0.03337  0  3.823773  0  0  -0.097526  0.084464  0  3.751526  0
N  N38  1  0.82366817  0.12099036  0.07785601  1  0  -0.325318  0  2.944462  0  0  -0.293684  0  3.223295  0  0  -0.307005  0  3.240134  0  0  -0.227115  -0.284647  0  3.214916  0
N  N39  1  0.67635431  0.04312593  0.92218971  1  0  -0.325376  0  2.943038  0  0  -0.293247  0  3.221841  0  0  -0.306615  0  3.23872  0  0  -0.227414  -0.284471  0  3.213341  0
N  N40  1  0.17633290  0.87900763  0.92214301  1  0  -0.32531  0  2.944447  0  0  -0.293691  0  3.223292  0  0  -0.307013  0  3.240127  0  0  -0.227114  -0.284646  0  3.214917  0
N  N41  1  0.32364549  0.95687334  0.07781068  1  0  -0.325359  0  2.942991  0  0  -0.293234  0  3.221805  0  0  -0.306604  0  3.238689  0  0  -0.227412  -0.28445  0  3.213291  0
N  N42  1  0.74997738  0.84668054  0.00010149  1  0  -0.564227  0  3.031603  0  0  -0.535308  0  3.322666  0  0  -0.551998  0  3.331658  0  0  -0.382795  -0.524978  0  3.323185  0
N  N43  1  0.25002218  0.15331747  0.99989828  1  0  -0.564144  0  3.03158  0  0  -0.53523  0  3.322642  0  0  -0.551921  0  3.331634  0  0  -0.382753  -0.524895  0  3.323168  0
O  O44  1  0.00866692  0.54226719  0.85147093  1  0  -0.900414  0  1.806875  0  0  -0.848268  0  1.987502  0  0  -0.864858  0  1.953151  0  0  -0.667881  -0.83636  0  2.011478  0
O  O45  1  0.49122642  0.69076304  0.14844261  1  0  -0.901086  0  1.805432  0  0  -0.848398  0  1.987242  0  0  -0.86508  0  1.952819  0  0  -0.667869  -0.836685  0  2.011144  0
O  O46  1  0.99133439  0.45773206  0.14852872  1  0  -0.900535  0  1.806703  0  0  -0.848357  0  1.987378  0  0  -0.864958  0  1.953002  0  0  -0.667876  -0.836447  0  2.011362  0
O  O47  1  0.50877190  0.30923621  0.85155641  1  0  -0.901076  0  1.805436  0  0  -0.84839  0  1.987244  0  0  -0.865073  0  1.952826  0  0  -0.667866  -0.836679  0  2.011151  0
