# generated using pymatgen
data_ZnCd2H14(C9O8)2
_symmetry_space_group_name_H-M   'P 1'
_cell_length_a   7.00328247
_cell_length_b   10.35268219
_cell_length_c   16.30764648
_cell_angle_alpha   81.91780789
_cell_angle_beta   78.10416555
_cell_angle_gamma   70.26928505
_symmetry_Int_Tables_number   1
_chemical_formula_structural   ZnCd2H14(C9O8)2
_chemical_formula_sum   'Zn2 Cd4 H28 C36 O32'
_cell_volume   1085.79130388
_cell_formula_units_Z   2
loop_
 _symmetry_equiv_pos_site_id
 _symmetry_equiv_pos_as_xyz
  1  'x, y, z'
loop_
 _atom_site_type_symbol
 _atom_site_label
 _atom_site_symmetry_multiplicity
 _atom_site_fract_x
 _atom_site_fract_y
 _atom_site_fract_z
 _atom_site_occupancy
 _atom_site_hle17_bader_spin_density
 _atom_site_hle17_ddec_charge
 _atom_site_hle17_ddec_spin_density
 _atom_site_hle17_ddec_sum_bond_order
 _atom_site_hle17_magmom
 _atom_site_hse06_10hf_bader_spin_density
 _atom_site_hse06_10hf_ddec_charge
 _atom_site_hse06_10hf_ddec_spin_density
 _atom_site_hse06_10hf_ddec_sum_bond_order
 _atom_site_hse06_10hf_magmom
 _atom_site_hse06_bader_spin_density
 _atom_site_hse06_ddec_charge
 _atom_site_hse06_ddec_spin_density
 _atom_site_hse06_ddec_sum_bond_order
 _atom_site_hse06_magmom
 _atom_site_pbe_bader_charge
 _atom_site_pbe_bader_spin_density
 _atom_site_pbe_cm5_charge
 _atom_site_pbe_ddec_charge
 _atom_site_pbe_ddec_spin_density
 _atom_site_pbe_ddec_sum_bond_order
 _atom_site_pbe_magmom
Zn  Zn0  1  0.74483935  0.24992806  0.75017709  1  0  1.27322  0  1.581372  0  0  1.12141  0  2.02091  0  0  1.167867  0  1.960177  0  1.409988  0  0.684029  1.088396  0  2.062826  0
Zn  Zn1  1  0.25516129  0.75007134  0.24982277  1  0  1.273223  0  1.581396  0  0  1.121417  0  2.020934  0  0  1.167868  0  1.960202  0  1.409966  0  0.684027  1.088402  0  2.06285  0
Cd  Cd2  1  0.29883385  0.39319873  0.97224531  1  0  1.25689  0  1.563013  0  0  1.076662  0  2.008154  0  0  1.136707  0  1.948121  0  1.325071  0  0.782598  1.030567  0  2.051887  0
Cd  Cd3  1  0.66269030  0.10792130  0.52852806  1  0  1.255543  0  1.566582  0  0  1.074949  0  2.012341  0  0  1.135171  0  1.952255  0  1.324126  0  0.783135  1.03166  0  2.053767  0
Cd  Cd4  1  0.70117152  0.60679758  0.02775437  1  0  1.256872  0  1.563038  0  0  1.07663  0  2.008215  0  0  1.136684  0  1.948165  0  1.325095  0  0.782567  1.030533  0  2.051948  0
Cd  Cd5  1  0.33730538  0.89208015  0.47147129  1  0  1.255511  0  1.566624  0  0  1.074922  0  2.012389  0  0  1.135142  0  1.952303  0  1.324155  0  0.783106  1.031636  0  2.053816  0
H  H6  1  0.37475032  0.90653381  0.97093108  1  0  0.109808  0  0.958608  0  0  0.117155  0  1.02316  0  0  0.120971  0  1.019608  0  0.124531  0  0.109416  0.114372  0  1.025791  0
H  H7  1  0.25154297  0.59405761  0.52970190  1  0  0.109536  0  0.956912  0  0  0.116939  0  1.021526  0  0  0.120772  0  1.017928  0  0.113242  0  0.109437  0.114077  0  1.024194  0
H  H8  1  0.62525527  0.09346352  0.02906929  1  0  0.109844  0  0.958552  0  0  0.117178  0  1.023122  0  0  0.120993  0  1.019568  0  0.124526  0  0.109405  0.114375  0  1.025776  0
H  H9  1  0.74845656  0.40594282  0.47029852  1  0  0.109522  0  0.95697  0  0  0.116927  0  1.021582  0  0  0.120758  0  1.017984  0  0.113224  0  0.109423  0.114064  0  1.024249  0
H  H10  1  0.32142414  0.73455652  0.75387472  1  0  0.10182  0  0.96393  0  0  0.107019  0  1.036789  0  0  0.110498  0  1.034068  0  0.106652  0  0.105956  0.104565  0  1.038571  0
H  H11  1  0.81118223  0.76534737  0.74529737  1  0  0.10244  0  0.962246  0  0  0.107778  0  1.034797  0  0  0.111297  0  1.032035  0  0.106225  0  0.105788  0.105193  0  1.036785  0
H  H12  1  0.67857770  0.26544184  0.24612594  1  0  0.101831  0  0.963819  0  0  0.107023  0  1.036712  0  0  0.110511  0  1.033967  0  0.106669  0  0.105942  0.104568  0  1.038495  0
H  H13  1  0.18881863  0.23465306  0.25470319  1  0  0.102446  0  0.962172  0  0  0.107761  0  1.034752  0  0  0.111283  0  1.031983  0  0.106245  0  0.10578  0.105177  0  1.03674  0
H  H14  1  0.42040569  0.12657531  0.72790525  1  0  0.105086  0  0.994384  0  0  0.111361  0  1.063782  0  0  0.114801  0  1.061085  0  0.151114  0  0.105325  0.108945  0  1.065456  0
H  H15  1  0.27422107  0.37252020  0.77257840  1  0  0.105999  0  0.993632  0  0  0.112197  0  1.06268  0  0  0.115693  0  1.060005  0  0.137017  0  0.105492  0.109568  0  1.064785  0
H  H16  1  0.57958518  0.87342512  0.27209359  1  0  0.105049  0  0.994433  0  0  0.111324  0  1.06383  0  0  0.114763  0  1.06113  0  0.151125  0  0.105294  0.108895  0  1.065545  0
H  H17  1  0.72578183  0.62748023  0.22742305  1  0  0.105957  0  0.993653  0  0  0.112169  0  1.062679  0  0  0.115667  0  1.060005  0  0.136977  0  0.105477  0.109541  0  1.064782  0
H  H18  1  0.96610950  0.30080253  0.85637481  1  0  0.435861  0  0.846834  0  0  0.408564  0  0.910723  0  0  0.417958  0  0.897366  0  0.623868  0  0.299254  0.401941  0  0.920138  0
H  H19  1  0.12204390  0.19935104  0.64483407  1  0  0.435699  0  0.843076  0  0  0.408115  0  0.90979  0  0  0.417477  0  0.89647  0  0.644622  0  0.299528  0.401427  0  0.919285  0
H  H20  1  0.03389329  0.69919790  0.14362528  1  0  0.43585  0  0.846796  0  0  0.408557  0  0.910718  0  0  0.417949  0  0.897363  0  0.623906  0  0.299232  0.401933  0  0.920133  0
H  H21  1  0.87795662  0.80064732  0.35516646  1  0  0.435718  0  0.843043  0  0  0.408131  0  0.909768  0  0  0.417492  0  0.896448  0  0.644617  0  0.299527  0.401444  0  0.919261  0
H  H22  1  0.79650216  0.24552496  0.90612033  1  0  0.438366  0  0.847212  0  0  0.409631  0  0.90987  0  0  0.41976  0  0.895058  0  0.637698  0  0.300309  0.402423  0  0.920416  0
H  H23  1  0.94746024  0.25437439  0.59396487  1  0  0.437445  0  0.84794  0  0  0.408864  0  0.910637  0  0  0.418973  0  0.895859  0  0.640954  0  0.300045  0.401673  0  0.921158  0
H  H24  1  0.20350258  0.75447547  0.09387930  1  0  0.438334  0  0.847279  0  0  0.409597  0  0.909924  0  0  0.419726  0  0.895112  0  0.637739  0  0.300295  0.402388  0  0.92047  0
H  H25  1  0.05254270  0.74562295  0.40603523  1  0  0.437411  0  0.848  0  0  0.408826  0  0.910697  0  0  0.418935  0  0.89592  0  0.640957  0  0.300016  0.401634  0  0.921219  0
H  H26  1  0.63000417  0.52418743  0.70332524  1  0  0.43948  0  0.796661  0  0  0.424261  0  0.845133  0  0  0.431555  0  0.837854  0  0.630814  0  0.33181  0.419001  0  0.850499  0
H  H27  1  0.85755533  0.97631651  0.79713552  1  0  0.439663  0  0.797125  0  0  0.423987  0  0.846232  0  0  0.43131  0  0.83892  0  0.632447  0  0.331949  0.418858  0  0.851341  0
H  H28  1  0.36999597  0.47581300  0.29667458  1  0  0.439495  0  0.796636  0  0  0.424278  0  0.845106  0  0  0.431571  0  0.837829  0  0.630818  0  0.331822  0.419017  0  0.850473  0
H  H29  1  0.14244420  0.02368392  0.20286491  1  0  0.439663  0  0.797114  0  0  0.423986  0  0.846224  0  0  0.431309  0  0.838913  0  0.63245  0  0.331955  0.418857  0  0.851332  0
H  H30  1  0.52925347  0.51188077  0.79958124  1  0  0.436713  0  0.862164  0  0  0.401993  0  0.931806  0  0  0.412715  0  0.916397  0  0.660955  0  0.296368  0.394384  0  0.942813  0
H  H31  1  0.84138512  0.98797784  0.70038624  1  0  0.436754  0  0.862307  0  0  0.401713  0  0.932709  0  0  0.412493  0  0.917187  0  0.655117  0  0.296157  0.394132  0  0.943599  0
H  H32  1  0.47075274  0.48811657  0.20041853  1  0  0.43666  0  0.862238  0  0  0.401939  0  0.93188  0  0  0.412661  0  0.916472  0  0.660937  0  0.296339  0.394328  0  0.94289  0
H  H33  1  0.15861420  0.01202156  0.29961348  1  0  0.436739  0  0.862327  0  0  0.401703  0  0.932721  0  0  0.412482  0  0.917201  0  0.655124  0  0.296168  0.394123  0  0.943609  0
C  C34  1  0.39886966  0.02861399  0.85351709  1  0  -0.071802  0  3.766871  0  0  -0.044256  0  4.004425  0  0  -0.055075  0  4.026134  0  0.017531  0  -0.016148  -0.037593  0  3.990113  0
C  C35  1  0.27990308  0.47119787  0.64705831  1  0  -0.074509  0  3.767551  0  0  -0.046709  0  4.0055  0  0  -0.057613  0  4.027253  0  -0.013375  0  -0.017216  -0.040042  0  3.990957  0
C  C36  1  0.60112806  0.97138746  0.14648315  1  0  -0.071812  0  3.76682  0  0  -0.044271  0  4.004375  0  0  -0.055091  0  4.026085  0  0.017559  0  -0.016149  -0.037607  0  3.990055  0
C  C37  1  0.72009862  0.52880359  0.35294235  1  0  -0.074528  0  3.767615  0  0  -0.046748  0  4.005567  0  0  -0.057654  0  4.027328  0  -0.013303  0  -0.017189  -0.040081  0  3.991024  0
C  C38  1  0.37342808  0.91293571  0.90402805  1  0  -0.009904  0  3.63415  0  0  -0.052016  0  3.881385  0  0  -0.044944  0  3.896027  0  0.006785  0  -0.05906  -0.056537  0  3.872177  0
C  C39  1  0.18991219  0.58733254  0.59637819  1  0  -0.01031  0  3.636653  0  0  -0.05249  0  3.884052  0  0  -0.045379  0  3.898691  0  -0.012615  0  -0.058902  -0.056676  0  3.874066  0
C  C40  1  0.62656964  0.08706575  0.09597218  1  0  -0.009923  0  3.634223  0  0  -0.052032  0  3.881456  0  0  -0.044958  0  3.896099  0  0.006744  0  -0.059058  -0.056537  0  3.872258  0
C  C41  1  0.81008624  0.41266892  0.40362279  1  0  -0.010329  0  3.636701  0  0  -0.052519  0  3.884125  0  0  -0.045406  0  3.898766  0  -0.012669  0  -0.058937  -0.056705  0  3.874138  0
C  C42  1  0.35321870  0.80406441  0.86820728  1  0  -0.081637  0  3.749806  0  0  -0.053231  0  3.986549  0  0  -0.065119  0  4.009412  0  -0.040092  0  -0.017987  -0.045861  0  3.971619  0
C  C43  1  0.02589223  0.69613178  0.63173717  1  0  -0.080791  0  3.75194  0  0  -0.05265  0  3.98887  0  0  -0.064641  0  4.011902  0  0.008017  0  -0.018511  -0.045463  0  3.973784  0
C  C44  1  0.64678122  0.19593499  0.13179183  1  0  -0.081666  0  3.749895  0  0  -0.053263  0  3.986605  0  0  -0.065152  0  4.009472  0  -0.04009  0  -0.018012  -0.045893  0  3.971672  0
C  C45  1  0.97410863  0.30386864  0.36826340  1  0  -0.080838  0  3.751945  0  0  -0.052688  0  3.988873  0  0  -0.064681  0  4.011907  0  0.008034  0  -0.018496  -0.045495  0  3.973776  0
C  C46  1  0.34619525  0.81538094  0.78225086  1  0  -0.041382  0  3.663008  0  0  -0.083065  0  3.915289  0  0  -0.076366  0  3.930726  0  -0.02409  0  -0.069781  -0.086615  0  3.90439  0
C  C47  1  0.94444548  0.68443135  0.71734898  1  0  -0.043136  0  3.661617  0  0  -0.084587  0  3.91361  0  0  -0.078044  0  3.929276  0  -0.025478  0  -0.069283  -0.088507  0  3.9031  0
C  C48  1  0.65380625  0.18461537  0.21774976  1  0  -0.041422  0  3.662988  0  0  -0.083123  0  3.915273  0  0  -0.076423  0  3.93072  0  -0.024273  0  -0.069751  -0.086672  0  3.904375  0
C  C49  1  0.05555391  0.31557217  0.28265144  1  0  -0.043046  0  3.661648  0  0  -0.08447  0  3.913628  0  0  -0.077932  0  3.929304  0  -0.02561  0  -0.069226  -0.088391  0  3.903114  0
C  C50  1  0.36761325  0.93237194  0.73203774  1  0  -0.069762  0  3.764663  0  0  -0.042785  0  4.003193  0  0  -0.054049  0  4.025283  0  -0.027287  0  -0.020367  -0.035772  0  3.988339  0
C  C51  1  0.03208047  0.56704409  0.76777414  1  0  -0.067682  0  3.762164  0  0  -0.040683  0  4.000784  0  0  -0.051915  0  4.022963  0  0.019305  0  -0.019754  -0.033551  0  3.986056  0
C  C52  1  0.63238535  0.06762746  0.26796124  1  0  -0.069659  0  3.764616  0  0  -0.042682  0  4.003119  0  0  -0.053948  0  4.025214  0  -0.027248  0  -0.02032  -0.03567  0  3.988261  0
C  C53  1  0.96792198  0.43295428  0.23222591  1  0  -0.067792  0  3.762228  0  0  -0.040792  0  4.00087  0  0  -0.052023  0  4.023056  0  0.019472  0  -0.019853  -0.03366  0  3.986142  0
C  C54  1  0.39848131  0.03721332  0.76748746  1  0  -0.051895  0  3.683742  0  0  -0.09181  0  3.932214  0  0  -0.086474  0  3.949078  0  -0.036365  0  -0.073368  -0.094549  0  3.920463  0
C  C55  1  0.20253240  0.46211686  0.73284041  1  0  -0.050945  0  3.679979  0  0  -0.090666  0  3.928613  0  0  -0.085419  0  3.945415  0  -0.040254  0  -0.073107  -0.093892  0  3.917492  0
C  C56  1  0.60151197  0.96278505  0.23251297  1  0  -0.051861  0  3.683762  0  0  -0.091778  0  3.932237  0  0  -0.08644  0  3.949101  0  -0.03625  0  -0.073359  -0.094523  0  3.920479  0
C  C57  1  0.79747243  0.53788357  0.26716058  1  0  -0.050858  0  3.679958  0  0  -0.090569  0  3.928571  0  0  -0.085328  0  3.945382  0  -0.040156  0  -0.073044  -0.093793  0  3.917446  0
C  C58  1  0.40781392  0.14837057  0.89187673  1  0  0.653027  0  3.891454  0  0  0.602137  0  4.177918  0  0  0.637374  0  4.171575  0  1.538001  0  0.207354  0.578106  0  4.18126  0
C  C59  1  0.44603885  0.35202282  0.60851133  1  0  0.653438  0  3.888449  0  0  0.602281  0  4.1752  0  0  0.637569  0  4.168883  0  1.527805  0  0.207237  0.578469  0  4.178498  0
C  C60  1  0.59218600  0.85162883  0.10812238  1  0  0.653018  0  3.891277  0  0  0.602138  0  4.177731  0  0  0.637374  0  4.171391  0  1.537966  0  0.207346  0.578109  0  4.181069  0
C  C61  1  0.55396107  0.64797658  0.39148778  1  0  0.653521  0  3.888386  0  0  0.6024  0  4.175087  0  0  0.637685  0  4.168776  0  1.527688  0  0.207303  0.578589  0  4.178385  0
C  C62  1  0.34998237  0.67484086  0.92136088  1  0  0.68288  0  3.853918  0  0  0.625443  0  4.144283  0  0  0.661811  0  4.136607  0  1.551112  0  0.219965  0.600673  0  4.148616  0
C  C63  1  0.94710704  0.82553031  0.57835940  1  0  0.684544  0  3.85341  0  0  0.626922  0  4.143726  0  0  0.663473  0  4.135837  0  1.549955  0  0.220059  0.602109  0  4.148272  0
C  C64  1  0.65002130  0.32515751  0.07863795  1  0  0.682864  0  3.853999  0  0  0.625482  0  4.144287  0  0  0.661848  0  4.136615  0  1.551078  0  0.219956  0.600711  0  4.148622  0
C  C65  1  0.05289056  0.17447012  0.42164150  1  0  0.684468  0  3.853442  0  0  0.626822  0  4.143797  0  0  0.663373  0  4.135909  0  1.54996  0  0.219972  0.602011  0  4.148341  0
C  C66  1  0.35886116  0.94675870  0.64058724  1  0  0.662552  0  3.907068  0  0  0.60756  0  4.199501  0  0  0.64363  0  4.192295  0  1.545195  0  0.206221  0.582979  0  4.203744  0
C  C67  1  0.94630771  0.55253176  0.85891902  1  0  0.662243  0  3.907258  0  0  0.60699  0  4.200077  0  0  0.643114  0  4.192823  0  1.566987  0  0.206691  0.582419  0  4.20405  0
C  C68  1  0.64113732  0.05323967  0.35941239  1  0  0.662482  0  3.906973  0  0  0.607528  0  4.19936  0  0  0.643597  0  4.192158  0  1.545149  0  0.206211  0.582957  0  4.203589  0
C  C69  1  0.05369195  0.44746969  0.14108075  1  0  0.662331  0  3.907157  0  0  0.607028  0  4.200052  0  0  0.64315  0  4.192804  0  1.566927  0  0.206728  0.582457  0  4.204028  0
O  O70  1  0.49325145  0.23466747  0.84818414  1  0  -0.720487  0  2.089483  0  0  -0.644415  0  2.356941  0  0  -0.674877  0  2.341875  0  -1.198963  0  -0.329633  -0.621933  0  2.367305  0
O  O71  1  0.57465160  0.26473990  0.65234829  1  0  -0.721474  0  2.09492  0  0  -0.643965  0  2.363662  0  0  -0.674868  0  2.348441  0  -1.195481  0  -0.329965  -0.622294  0  2.373242  0
O  O72  1  0.50674896  0.76533090  0.15181502  1  0  -0.720484  0  2.08943  0  0  -0.644401  0  2.356859  0  0  -0.674864  0  2.341796  0  -1.198965  0  -0.329619  -0.621916  0  2.367221  0
O  O73  1  0.42534482  0.73525744  0.34765247  1  0  -0.721475  0  2.094908  0  0  -0.64399  0  2.363662  0  0  -0.67489  0  2.348439  0  -1.195494  0  -0.330008  -0.622319  0  2.373244  0
O  O74  1  0.31771219  0.16702560  0.96696555  1  0  -0.59471  0  1.963336  0  0  -0.534098  0  2.196628  0  0  -0.563283  0  2.187555  0  -1.134886  0  -0.311683  -0.512944  0  2.201816  0
O  O75  1  0.44906226  0.33457406  0.53300449  1  0  -0.591101  0  1.957513  0  0  -0.53121  0  2.190405  0  0  -0.560216  0  2.181298  0  -1.135141  0  -0.310194  -0.510917  0  2.19578  0
O  O76  1  0.68229004  0.83297174  0.03303380  1  0  -0.59471  0  1.963279  0  0  -0.534085  0  2.19654  0  0  -0.563278  0  2.187483  0  -1.13483  0  -0.311662  -0.512931  0  2.201726  0
O  O77  1  0.55093330  0.66542637  0.46699552  1  0  -0.591167  0  1.95741  0  0  -0.531287  0  2.19029  0  0  -0.560289  0  2.181174  0  -1.135059  0  -0.310243  -0.510996  0  2.195671  0
O  O78  1  0.35527580  0.06182459  0.59836707  1  0  -0.707375  0  2.055817  0  0  -0.63642  0  2.309928  0  0  -0.665029  0  2.295461  0  -1.197061  0  -0.334852  -0.616163  0  2.319136  0
O  O79  1  0.01587494  0.43732238  0.90128689  1  0  -0.708406  0  2.060856  0  0  -0.637037  0  2.315067  0  0  -0.665837  0  2.300759  0  -1.20519  0  -0.335148  -0.616702  0  2.324342  0
O  O80  1  0.64472013  0.93817378  0.40163365  1  0  -0.70741  0  2.055819  0  0  -0.636444  0  2.309872  0  0  -0.665052  0  2.295403  0  -1.197054  0  -0.334861  -0.616187  0  2.319077  0
O  O81  1  0.98412639  0.56268113  0.09871306  1  0  -0.708432  0  2.060855  0  0  -0.637047  0  2.315105  0  0  -0.665844  0  2.300792  0  -1.205236  0  -0.335164  -0.616713  0  2.324382  0
O  O82  1  0.35350218  0.84352766  0.60842122  1  0  -0.616959  0  2.022257  0  0  -0.54744  0  2.269185  0  0  -0.579274  0  2.261086  0  -1.134676  0  -0.312356  -0.525176  0  2.273814  0
O  O83  1  0.80577068  0.65541801  0.89079532  1  0  -0.615059  0  2.020814  0  0  -0.546036  0  2.26755  0  0  -0.577798  0  2.259364  0  -1.147849  0  -0.311575  -0.523822  0  2.272317  0
O  O84  1  0.64649242  0.15647071  0.39157935  1  0  -0.616915  0  2.022221  0  0  -0.547398  0  2.269122  0  0  -0.579234  0  2.261025  0  -1.13459  0  -0.312351  -0.525138  0  2.273747  0
O  O85  1  0.19422670  0.34458139  0.10920487  1  0  -0.6151  0  2.020794  0  0  -0.546042  0  2.267523  0  0  -0.577806  0  2.25934  0  -1.147804  0  -0.311561  -0.523829  0  2.272291  0
O  O86  1  0.34846250  0.57279139  0.88453944  1  0  -0.666688  0  2.080821  0  0  -0.580484  0  2.323909  0  0  -0.613804  0  2.314542  0  -1.158025  0  -0.311355  -0.556734  0  2.33066  0
O  O87  1  0.80702344  0.92734923  0.61498388  1  0  -0.667441  0  2.082588  0  0  -0.580613  0  2.326368  0  0  -0.614059  0  2.316582  0  -1.163401  0  -0.31189  -0.557258  0  2.332326  0
O  O88  1  0.65154106  0.42720595  0.11546004  1  0  -0.666666  0  2.080846  0  0  -0.580498  0  2.323939  0  0  -0.613822  0  2.314575  0  -1.158058  0  -0.31135  -0.55674  0  2.330683  0
O  O89  1  0.19297477  0.07265120  0.38501640  1  0  -0.667386  0  2.082582  0  0  -0.580554  0  2.326375  0  0  -0.614002  0  2.316589  0  -1.163379  0  -0.311879  -0.55721  0  2.332342  0
O  O90  1  0.35513035  0.66640415  0.99938509  1  0  -0.67622  0  2.054964  0  0  -0.611284  0  2.31009  0  0  -0.638014  0  2.294849  0  -1.197665  0  -0.320714  -0.591923  0  2.319821  0
O  O91  1  0.02112462  0.83412037  0.50065691  1  0  -0.674734  0  2.056887  0  0  -0.610083  0  2.311671  0  0  -0.636959  0  2.296772  0  -1.198074  0  -0.319639  -0.591275  0  2.32141  0
O  O92  1  0.64487320  0.33359319  0.00061440  1  0  -0.676244  0  2.055108  0  0  -0.611308  0  2.310168  0  0  -0.638037  0  2.294931  0  -1.197601  0  -0.320716  -0.591944  0  2.319892  0
O  O93  1  0.97887166  0.16588005  0.49934385  1  0  -0.674684  0  2.0569  0  0  -0.609997  0  2.311638  0  0  -0.63687  0  2.296735  0  -1.198096  0  -0.319565  -0.591191  0  2.321377  0
O  O94  1  0.89676977  0.23296201  0.85305832  1  0  -0.821814  0  1.84627  0  0  -0.758042  0  2.036439  0  0  -0.780843  0  2.00604  0  -1.218054  0  -0.571041  -0.741926  0  2.057425  0
O  O95  1  0.98180203  0.26676339  0.64760016  1  0  -0.820975  0  1.841055  0  0  -0.757175  0  2.032998  0  0  -0.779826  0  2.002673  0  -1.243804  0  -0.570711  -0.741152  0  2.054074  0
O  O96  1  0.10323497  0.76703841  0.14694130  1  0  -0.821774  0  1.846301  0  0  -0.757998  0  2.036499  0  0  -0.780797  0  2.006102  0  -1.218118  0  -0.570999  -0.741882  0  2.057492  0
O  O97  1  0.01819922  0.73323601  0.35239909  1  0  -0.820956  0  1.841078  0  0  -0.757147  0  2.033021  0  0  -0.779797  0  2.002693  0  -1.243813  0  -0.570676  -0.741122  0  2.054095  0
O  O98  1  0.64806121  0.46769535  0.75587525  1  0  -0.830427  0  1.893591  0  0  -0.775087  0  2.102566  0  0  -0.796354  0  2.07471  0  -1.255369  0  -0.559546  -0.760076  0  2.122085  0
O  O99  1  0.87178923  0.03248806  0.74459835  1  0  -0.831343  0  1.893592  0  0  -0.775588  0  2.103491  0  0  -0.796904  0  2.075445  0  -1.252007  0  -0.560326  -0.760575  0  2.122662  0
O  O100  1  0.35194246  0.53230301  0.24412358  1  0  -0.830373  0  1.893582  0  0  -0.775054  0  2.1026  0  0  -0.796303  0  2.074706  0  -1.25532  0  -0.559523  -0.760042  0  2.12212  0
O  O101  1  0.12820898  0.96751236  0.25540194  1  0  -0.831338  0  1.893615  0  0  -0.77559  0  2.103527  0  0  -0.796901  0  2.07547  0  -1.252021  0  -0.560334  -0.760575  0  2.122696  0
