# generated using pymatgen
data_NaH6C4N11O2
_symmetry_space_group_name_H-M   'P 1'
_cell_length_a   6.15666171
_cell_length_b   7.48950329
_cell_length_c   11.66142544
_cell_angle_alpha   75.28207041
_cell_angle_beta   77.36332221
_cell_angle_gamma   88.30305243
_symmetry_Int_Tables_number   1
_chemical_formula_structural   NaH6C4N11O2
_chemical_formula_sum   'Na2 H12 C8 N22 O4'
_cell_volume   507.27920997
_cell_formula_units_Z   2
loop_
 _symmetry_equiv_pos_site_id
 _symmetry_equiv_pos_as_xyz
  1  'x, y, z'
loop_
 _atom_site_type_symbol
 _atom_site_label
 _atom_site_symmetry_multiplicity
 _atom_site_fract_x
 _atom_site_fract_y
 _atom_site_fract_z
 _atom_site_occupancy
 _atom_site_hle17_bader_spin_density
 _atom_site_hle17_ddec_charge
 _atom_site_hle17_ddec_spin_density
 _atom_site_hle17_ddec_sum_bond_order
 _atom_site_hle17_magmom
 _atom_site_hse06_10hf_bader_spin_density
 _atom_site_hse06_10hf_ddec_charge
 _atom_site_hse06_10hf_ddec_spin_density
 _atom_site_hse06_10hf_ddec_sum_bond_order
 _atom_site_hse06_10hf_magmom
 _atom_site_hse06_bader_spin_density
 _atom_site_hse06_ddec_charge
 _atom_site_hse06_ddec_spin_density
 _atom_site_hse06_ddec_sum_bond_order
 _atom_site_hse06_magmom
 _atom_site_pbe_bader_spin_density
 _atom_site_pbe_cm5_charge
 _atom_site_pbe_ddec_charge
 _atom_site_pbe_ddec_spin_density
 _atom_site_pbe_ddec_sum_bond_order
 _atom_site_pbe_magmom
Na  Na0  1  0.28608999  0.46485070  0.42395418  1  0  0.877693  0  0.395629  0  0  0.808933  0  0.578341  0  0  0.821146  0  0.553953  0  0  0.636932  0.800108  0  0.59564  0
Na  Na1  1  0.71390989  0.53514941  0.57604634  1  0  0.877683  0  0.395643  0  0  0.808908  0  0.578381  0  0  0.821119  0  0.55399  0  0  0.636927  0.800082  0  0.595678  0
H  H2  1  0.48450808  0.45389165  0.12412951  1  0  0.27913  0  0.960295  0  0  0.243719  0  1.045481  0  0  0.254515  0  1.036631  0  0  0.314357  0.236153  0  1.051727  0
H  H3  1  0.51549345  0.54610847  0.87586995  1  0  0.279169  0  0.960255  0  0  0.243749  0  1.045443  0  0  0.254546  0  1.036595  0  0  0.314368  0.236182  0  1.05169  0
H  H4  1  0.23133440  0.13946482  0.01048985  1  0  0.300893  0  0.925964  0  0  0.262461  0  1.020651  0  0  0.273471  0  1.010223  0  0  0.317989  0.254644  0  1.028097  0
H  H5  1  0.76866883  0.86053670  0.98950919  1  0  0.300922  0  0.925925  0  0  0.262502  0  1.0206  0  0  0.27351  0  1.010175  0  0  0.318007  0.254684  0  1.028048  0
H  H6  1  0.52269207  0.79020660  0.35907649  1  0  0.387292  0  0.928785  0  0  0.348708  0  1.006342  0  0  0.359206  0  0.990759  0  0  0.285199  0.341322  0  1.017288  0
H  H7  1  0.47730614  0.20979350  0.64092422  1  0  0.387281  0  0.928798  0  0  0.3487  0  1.006351  0  0  0.359197  0  0.99077  0  0  0.285191  0.341312  0  1.017298  0
H  H8  1  0.93831848  0.17621191  0.55713531  1  0  0.405051  0  0.898252  0  0  0.371865  0  0.966823  0  0  0.382105  0  0.951565  0  0  0.294302  0.364635  0  0.977594  0
H  H9  1  0.06167970  0.82378681  0.44286563  1  0  0.404917  0  0.898433  0  0  0.371786  0  0.966941  0  0  0.382028  0  0.951678  0  0  0.294247  0.364556  0  0.977713  0
H  H10  1  0.73297916  0.67889808  0.32720481  1  0  0.379621  0  0.94376  0  0  0.338692  0  1.024858  0  0  0.349236  0  1.009606  0  0  0.281644  0.331297  0  1.035526  0
H  H11  1  0.26701905  0.32110202  0.67279590  1  0  0.379619  0  0.943764  0  0  0.338687  0  1.024868  0  0  0.349232  0  1.009615  0  0  0.281644  0.331291  0  1.035536  0
H  H12  1  0.87290379  0.26119441  0.43353942  1  0  0.392881  0  0.922608  0  0  0.35477  0  0.999361  0  0  0.365116  0  0.984292  0  0  0.288361  0.347503  0  1.009916  0
H  H13  1  0.12709775  0.73880571  0.56646090  1  0  0.392873  0  0.922617  0  0  0.354761  0  0.999373  0  0  0.365107  0  0.984304  0  0  0.288351  0.347494  0  1.009928  0
C  C14  1  0.85566421  0.32444203  0.97609005  1  0  0.238792  0  3.857863  0  0  0.213109  0  4.145855  0  0  0.22156  0  4.161078  0  0  0.204672  0.207458  0  4.135434  0
C  C15  1  0.14433565  0.67555809  0.02390875  1  0  0.238773  0  3.857886  0  0  0.213126  0  4.14583  0  0  0.221579  0  4.161051  0  0  0.204677  0.207478  0  4.135408  0
C  C16  1  0.79325762  0.29839964  0.10584131  1  0  0.083284  0  3.745452  0  0  0.054073  0  4.015025  0  0  0.05998  0  4.031994  0  0  0.117095  0.050248  0  4.003734  0
C  C17  1  0.20674217  0.70159772  0.89415794  1  0  0.083291  0  3.745604  0  0  0.054055  0  4.015144  0  0  0.05996  0  4.032113  0  0  0.117098  0.050227  0  4.003854  0
C  C18  1  0.89218141  0.20752374  0.20135424  1  0  0.02213  0  3.767116  0  0  0.013522  0  4.036648  0  0  0.010878  0  4.055675  0  0  0.105598  0.014984  0  4.024119  0
C  C19  1  0.10781846  0.79247638  0.79864542  1  0  0.022192  0  3.767153  0  0  0.013606  0  4.036607  0  0  0.010958  0  4.05564  0  0  0.105623  0.015068  0  4.024079  0
C  C20  1  0.09620101  0.10831697  0.20045591  1  0  0.300147  0  3.766629  0  0  0.262014  0  4.044354  0  0  0.275898  0  4.058012  0  0  0.243882  0.252717  0  4.035244  0
C  C21  1  0.90379891  0.89168451  0.79954524  1  0  0.300039  0  3.766839  0  0  0.261966  0  4.044477  0  0  0.275856  0  4.058127  0  0  0.243865  0.252667  0  4.035367  0
N  N22  1  0.85271587  0.41117139  0.78661162  1  0  -0.123914  0  2.974281  0  0  -0.113625  0  3.271749  0  0  -0.114662  0  3.284867  0  0  -0.116961  -0.112698  0  3.262782  0
N  N23  1  0.14728401  0.58882871  0.21338890  1  0  -0.123953  0  2.974224  0  0  -0.113665  0  3.2717  0  0  -0.114706  0  3.284821  0  0  -0.116985  -0.11274  0  3.262737  0
N  N24  1  0.03639863  0.31941706  0.79846407  1  0  -0.069359  0  3.041607  0  0  -0.036217  0  3.323391  0  0  -0.039152  0  3.336551  0  0  -0.074745  -0.034015  0  3.314367  0
N  N25  1  0.96360125  0.68058304  0.20153645  1  0  -0.069337  0  3.041573  0  0  -0.036207  0  3.323366  0  0  -0.03914  0  3.336526  0  0  -0.074739  -0.034004  0  3.314343  0
N  N26  1  0.04408571  0.26293056  0.91632411  1  0  -0.304898  0  2.990115  0  0  -0.278908  0  3.269226  0  0  -0.289267  0  3.281855  0  0  -0.212854  -0.271683  0  3.260516  0
N  N27  1  0.95591581  0.73706957  0.08367449  1  0  -0.304918  0  2.990032  0  0  -0.278932  0  3.26913  0  0  -0.289293  0  3.281759  0  0  -0.212874  -0.271707  0  3.26042  0
N  N28  1  0.60687085  0.36901066  0.16191845  1  0  -0.18147  0  3.452911  0  0  -0.12613  0  3.709072  0  0  -0.139461  0  3.724756  0  0  -0.245488  -0.117341  0  3.698689  0
N  N29  1  0.39312898  0.63098808  0.83808058  1  0  -0.181566  0  3.453014  0  0  -0.126232  0  3.70922  0  0  -0.139565  0  3.724906  0  0  -0.245513  -0.11744  0  3.698833  0
N  N30  1  0.76069984  0.23038387  0.30732500  1  0  -0.196413  0  3.027728  0  0  -0.16481  0  3.300784  0  0  -0.170426  0  3.311837  0  0  -0.166694  -0.16072  0  3.293339  0
N  N31  1  0.23930173  0.76961763  0.69267423  1  0  -0.196452  0  3.027741  0  0  -0.164858  0  3.300796  0  0  -0.170472  0  3.311846  0  0  -0.166696  -0.160768  0  3.293351  0
N  N32  1  0.24734259  0.09088299  0.10075355  1  0  -0.229185  0  3.417646  0  0  -0.172242  0  3.675771  0  0  -0.187363  0  3.688249  0  0  -0.242927  -0.162218  0  3.66758  0
N  N33  1  0.75265895  0.90911713  0.89924677  1  0  -0.229137  0  3.417642  0  0  -0.172252  0  3.675786  0  0  -0.187375  0  3.688265  0  0  -0.242894  -0.162226  0  3.667597  0
N  N34  1  0.58891306  0.32787681  0.28245540  1  0  -0.064213  0  2.937967  0  0  -0.063702  0  3.23085  0  0  -0.061054  0  3.240736  0  0  -0.113512  -0.065233  0  3.224251  0
N  N35  1  0.41108849  0.67212470  0.71754298  1  0  -0.064117  0  2.937998  0  0  -0.063607  0  3.230864  0  0  -0.060957  0  3.240749  0  0  -0.11349  -0.065139  0  3.224262  0
N  N36  1  0.73536918  0.41682399  0.89713137  1  0  -0.302038  0  3.058763  0  0  -0.269884  0  3.342202  0  0  -0.281493  0  3.355954  0  0  -0.216342  -0.261876  0  3.332776  0
N  N37  1  0.26462902  0.58317611  0.10286848  1  0  -0.302005  0  3.058693  0  0  -0.269867  0  3.34212  0  0  -0.281473  0  3.35587  0  0  -0.216332  -0.261857  0  3.332693  0
N  N38  1  0.17311068  0.02060962  0.29819911  1  0  -0.287707  0  2.929134  0  0  -0.259697  0  3.201806  0  0  -0.271682  0  3.212396  0  0  -0.187204  -0.251665  0  3.194857  0
N  N39  1  0.82689086  0.97939050  0.70180121  1  0  -0.287719  0  2.929179  0  0  -0.259704  0  3.201808  0  0  -0.271691  0  3.212396  0  0  -0.187226  -0.251674  0  3.19486  0
N  N40  1  0.41845019  0.99266830  0.13600763  1  0  -0.042203  0  2.876679  0  0  -0.056518  0  3.177836  0  0  -0.053733  0  3.188774  0  0  -0.075708  -0.058279  0  3.170625  0
N  N41  1  0.58155134  0.00733182  0.86399269  1  0  -0.042228  0  2.876653  0  0  -0.056532  0  3.177833  0  0  -0.053747  0  3.188772  0  0  -0.075744  -0.058297  0  3.170625  0
N  N42  1  0.37100274  0.95289996  0.25451559  1  0  -0.062429  0  3.033946  0  0  -0.036015  0  3.329755  0  0  -0.037272  0  3.340142  0  0  -0.056075  -0.034981  0  3.322962  0
N  N43  1  0.62899718  0.04710153  0.74548556  1  0  -0.062401  0  3.033902  0  0  -0.036003  0  3.329714  0  0  -0.037259  0  3.340102  0  0  -0.056064  -0.034968  0  3.322922  0
O  O44  1  0.93907595  0.29447633  0.49601152  1  0  -0.893033  0  1.812812  0  0  -0.83838  0  1.992792  0  0  -0.85502  0  1.959969  0  0  -0.681185  -0.826617  0  2.015706  0
O  O45  1  0.06092389  0.70552240  0.50398922  1  0  -0.892883  0  1.812998  0  0  -0.838285  0  1.992861  0  0  -0.854928  0  1.960041  0  0  -0.681123  -0.826522  0  2.015777  0
O  O46  1  0.60152969  0.67992172  0.39404608  1  0  -0.91006  0  1.853213  0  0  -0.85573  0  2.044748  0  0  -0.872517  0  2.01095  0  0  -0.700333  -0.843731  0  2.068245  0
O  O47  1  0.39847019  0.32007839  0.60595529  1  0  -0.910037  0  1.853229  0  0  -0.855708  0  2.04476  0  0  -0.872494  0  2.010964  0  0  -0.700321  -0.843709  0  2.068256  0
