# generated using pymatgen
data_CoH20C14SN2(ClO)2
_symmetry_space_group_name_H-M   'P 1'
_cell_length_a   8.51457507
_cell_length_b   8.51472006
_cell_length_c   11.98693816
_cell_angle_alpha   101.55421742
_cell_angle_beta   101.55225393
_cell_angle_gamma   97.47423810
_symmetry_Int_Tables_number   1
_chemical_formula_structural   CoH20C14SN2(ClO)2
_chemical_formula_sum   'Co2 H40 C28 S2 N4 Cl4 O4'
_cell_volume   820.96846022
_cell_formula_units_Z   2
loop_
 _symmetry_equiv_pos_site_id
 _symmetry_equiv_pos_as_xyz
  1  'x, y, z'
loop_
 _atom_site_type_symbol
 _atom_site_label
 _atom_site_symmetry_multiplicity
 _atom_site_fract_x
 _atom_site_fract_y
 _atom_site_fract_z
 _atom_site_occupancy
 _atom_site_hse06_10hf_bader_charge
 _atom_site_hse06_10hf_bader_spin_density
 _atom_site_hse06_10hf_ddec_charge
 _atom_site_hse06_10hf_ddec_spin_density
 _atom_site_hse06_10hf_ddec_sum_bond_order
 _atom_site_hse06_10hf_magmom
 _atom_site_hse06_ddec_charge
 _atom_site_hse06_ddec_spin_density
 _atom_site_hse06_ddec_sum_bond_order
 _atom_site_hse06_magmom
 _atom_site_pbe_cm5_charge
 _atom_site_pbe_ddec_charge
 _atom_site_pbe_ddec_spin_density
 _atom_site_pbe_ddec_sum_bond_order
 _atom_site_pbe_magmom
Co  Co0  1  0.49999634  0.49999761  0.00000086  1  1.075727  -0.996692  0.623532  -1.042891  2.885154  -0.989  0.702777  -1.038862  2.807958  -0.984  0.52704  0.585926  -1.04308  2.927148  -0.981
Co  Co1  1  0.50000285  0.50000286  0.49999900  1  1.075526  -0.996688  0.623436  -1.042883  2.885115  -0.989  0.702771  -1.038872  2.807881  -0.984  0.527043  0.585974  -1.043058  2.927089  -0.981
H  H2  1  0.64899091  0.62198090  0.82912785  1  0.639049  -0.000579  0.312401  -0.000126  1.033701  -0.001  0.322958  0.00038  1.022348  0.0  0.26125  0.305404  -0.00026  1.041168  -0.001
H  H3  1  0.37801689  0.35101435  0.67087184  1  0.639119  -0.000579  0.312424  -0.000126  1.033628  -0.001  0.322979  0.000381  1.02228  0.0  0.261258  0.305428  -0.00026  1.04109  -0.001
H  H4  1  0.35099798  0.37801161  0.17086938  1  0.63892  -0.000579  0.312449  -0.000126  1.033599  -0.001  0.323007  0.000381  1.022246  0.0  0.261283  0.30545  -0.000259  1.041083  -0.001
H  H5  1  0.62199120  0.64899751  0.32913150  1  0.638899  -0.000579  0.312498  -0.000126  1.033574  -0.001  0.323054  0.000381  1.022223  0.0  0.261333  0.305502  -0.000259  1.04105  -0.001
H  H6  1  0.58023873  0.28039923  0.15215447  1  0.121521  0.000226  0.085798  0.000343  1.058796  0.0  0.088894  0.000264  1.054661  0.0  0.105421  0.083015  0.000392  1.062482  0.0
H  H7  1  0.71961609  0.41975982  0.34784661  1  0.121743  0.000226  0.085836  0.000343  1.058853  0.0  0.088934  0.000264  1.054719  0.0  0.105443  0.083051  0.000392  1.062549  0.0
H  H8  1  0.41975421  0.71959569  0.84784447  1  0.121491  0.000226  0.085761  0.000343  1.058714  0.0  0.088861  0.000264  1.054582  0.0  0.105379  0.082975  0.000392  1.062409  0.0
H  H9  1  0.28038892  0.58024840  0.65215498  1  0.121655  0.000226  0.085846  0.000343  1.05868  0.0  0.088946  0.000264  1.054549  0.0  0.105436  0.08306  0.000392  1.062377  0.0
H  H10  1  0.60754007  0.30197945  0.81452609  1  0.077803  0.000279  0.079543  0.000347  1.046616  0.0  0.082004  0.000151  1.04293  0.0  0.110464  0.077188  0.000405  1.049996  0.0
H  H11  1  0.69802028  0.39246729  0.68547038  1  0.07799  0.000279  0.079551  0.000348  1.046679  0.0  0.082014  0.000151  1.04299  0.0  0.110505  0.077196  0.000405  1.050083  0.0
H  H12  1  0.39245478  0.69801914  0.18547529  1  0.077772  0.000279  0.079555  0.000347  1.046607  0.0  0.082015  0.00015  1.042923  0.0  0.110488  0.077201  0.000405  1.049985  0.0
H  H13  1  0.30198549  0.60753234  0.31452679  1  0.077943  0.000279  0.079545  0.000347  1.046665  0.0  0.082007  0.000151  1.042978  0.0  0.110486  0.077194  0.000405  1.050047  0.0
H  H14  1  0.74981100  0.06052356  0.79321342  1  0.107665  8.7e-05  0.103244  6e-05  1.044433  0.0  0.10665  -2.2e-05  1.043316  0.0  0.097247  0.100663  5.2e-05  1.045551  0.0
H  H15  1  0.93946850  0.25019025  0.70677930  1  0.107827  8.7e-05  0.103273  6e-05  1.044531  0.0  0.106674  -2.2e-05  1.043431  0.0  0.097253  0.100693  5.2e-05  1.04564  0.0
H  H16  1  0.25018811  0.93947864  0.20678820  1  0.107607  8.7e-05  0.103295  6e-05  1.044567  0.0  0.106703  -2.2e-05  1.043442  0.0  0.097259  0.100704  5.2e-05  1.045711  0.0
H  H17  1  0.06053036  0.74980456  0.29321543  1  0.107757  8.7e-05  0.103301  6e-05  1.044485  0.0  0.106708  -2.2e-05  1.043372  0.0  0.097259  0.100719  5.2e-05  1.0456  0.0
H  H18  1  0.81444430  0.93226264  0.96326763  1  0.105027  2e-05  0.116616  0.00012  1.015547  0.0  0.119901  4.9e-05  1.011824  0.0  0.107322  0.113859  0.000188  1.018835  0.0
H  H19  1  0.06774401  0.18555317  0.53672667  1  0.104968  2e-05  0.116691  0.00012  1.015517  0.0  0.11998  4.9e-05  1.011786  0.0  0.107327  0.113933  0.000188  1.018803  0.0
H  H20  1  0.18556528  0.06774432  0.03673525  1  0.105106  2e-05  0.116641  0.00012  1.015634  0.0  0.119926  4.9e-05  1.011908  0.0  0.107312  0.113887  0.000188  1.018918  0.0
H  H21  1  0.93225389  0.81444286  0.46326810  1  0.105072  1.9e-05  0.11665  0.00012  1.015498  0.0  0.119937  4.9e-05  1.011771  0.0  0.107312  0.113892  0.000188  1.018789  0.0
H  H22  1  0.69561570  0.88947317  0.14947724  1  0.13255  -3e-05  0.128149  5.3e-05  1.035161  0.0  0.129961  3e-05  1.034792  0.0  0.093  0.126579  7.1e-05  1.035655  0.0
H  H23  1  0.11054337  0.30436857  0.35051706  1  0.132397  -3.1e-05  0.128068  5.3e-05  1.035268  0.0  0.129876  3.1e-05  1.034901  0.0  0.092905  0.126499  7.1e-05  1.035762  0.0
H  H24  1  0.30438437  0.11052778  0.85052351  1  0.13254  -3e-05  0.128169  5.3e-05  1.035156  0.0  0.12998  3e-05  1.034789  0.0  0.093011  0.126601  7.1e-05  1.035645  0.0
H  H25  1  0.88945782  0.69563231  0.64947882  1  0.132425  -3.1e-05  0.128107  5.3e-05  1.03527  0.0  0.129916  3e-05  1.034902  0.0  0.092916  0.126535  7.1e-05  1.035766  0.0
H  H26  1  0.65987935  0.06885675  0.23839681  1  0.056655  1e-06  0.112553  4.6e-05  1.007118  0.0  0.113933  1.3e-05  1.006987  0.0  0.096067  0.111458  7.4e-05  1.007316  0.0
H  H27  1  0.93116776  0.34012259  0.26160289  1  0.056664  0.0  0.112545  4.5e-05  1.007118  0.0  0.113923  1.3e-05  1.006985  0.0  0.096088  0.111452  7.4e-05  1.00731  0.0
H  H28  1  0.34012170  0.93114298  0.76160474  1  0.056699  1e-06  0.112537  4.6e-05  1.007148  0.0  0.113918  1.3e-05  1.007015  0.0  0.096052  0.111443  7.4e-05  1.007344  0.0
H  H29  1  0.06883200  0.65987707  0.73839180  1  0.056701  0.0  0.112461  4.5e-05  1.007224  0.0  0.11384  1.3e-05  1.007093  0.0  0.095997  0.111369  7.4e-05  1.007416  0.0
H  H30  1  0.90132981  0.66099668  0.03343437  1  0.08156  -9e-06  0.094999  0.00011  1.024504  0.0  0.09609  0.000113  1.023814  0.0  0.087315  0.094411  0.000105  1.024715  0.0
H  H31  1  0.33898542  0.09866553  0.46656920  1  0.081412  -9e-06  0.095034  0.00011  1.024562  0.0  0.096122  0.000114  1.023873  0.0  0.08736  0.094447  0.000105  1.024767  0.0
H  H32  1  0.09866053  0.33899089  0.96655904  1  0.081249  -9e-06  0.09521  0.00011  1.024514  0.0  0.096296  0.000113  1.023821  0.0  0.087436  0.094628  0.000105  1.02472  0.0
H  H33  1  0.66102514  0.90134639  0.53344033  1  0.081243  -9e-06  0.095185  0.00011  1.02456  0.0  0.096273  0.000114  1.023873  0.0  0.087439  0.094606  0.000105  1.024764  0.0
H  H34  1  0.91696073  0.70068891  0.89425578  1  0.039431  -0.001747  0.082073  -0.000686  1.040572  -0.001  0.082402  -0.000509  1.040618  -0.001  0.08738  0.082469  -0.000925  1.039904  -0.001
H  H35  1  0.29931588  0.08305021  0.60575810  1  0.039195  -0.001748  0.082089  -0.000686  1.040545  -0.001  0.082391  -0.000509  1.040617  -0.001  0.087357  0.082484  -0.000925  1.03987  -0.001
H  H36  1  0.08302698  0.29929745  0.10573627  1  0.03932  -0.001747  0.08211  -0.000686  1.040553  -0.001  0.082426  -0.00051  1.04061  -0.001  0.087362  0.082504  -0.000925  1.039888  -0.001
H  H37  1  0.70069275  0.91696417  0.39425233  1  0.039369  -0.001748  0.082089  -0.000686  1.04058  -0.001  0.082416  -0.000509  1.040627  -0.001  0.087351  0.082487  -0.000925  1.039911  -0.001
H  H38  1  0.88723893  0.49551242  0.91170146  1  0.044512  0.000171  0.079211  0.000221  1.023916  0.0  0.079612  0.000195  1.024018  0.0  0.084802  0.079214  0.000242  1.023534  0.0
H  H39  1  0.50448726  0.11276896  0.58828891  1  0.044061  0.000172  0.079276  0.000221  1.023943  0.0  0.079676  0.000194  1.024045  0.0  0.084824  0.079277  0.000242  1.023562  0.0
H  H40  1  0.11275119  0.50447395  0.08829259  1  0.044368  0.000172  0.079346  0.000221  1.023948  0.0  0.079747  0.000195  1.024051  0.0  0.084817  0.079346  0.000242  1.023571  0.0
H  H41  1  0.49552545  0.88724169  0.41171907  1  0.044166  0.000171  0.079436  0.000221  1.023915  0.0  0.079837  0.000194  1.024021  0.0  0.084857  0.079435  0.000242  1.023534  0.0
C  C42  1  0.62201704  0.23040290  0.07472800  1  0.50056  0.00602  0.032639  0.006477  3.884964  0.004  0.04401  0.004746  3.898824  0.003  0.038346  0.024728  0.007873  3.877689  0.005
C  C43  1  0.76960972  0.37798343  0.42526839  1  0.500421  0.006022  0.032528  0.006479  3.88498  0.004  0.043897  0.004748  3.898845  0.003  0.038254  0.024623  0.007876  3.877728  0.005
C  C44  1  0.37797641  0.76959451  0.92527553  1  0.492766  0.006025  0.032623  0.006476  3.885123  0.004  0.043985  0.004746  3.898998  0.003  0.038363  0.02471  0.007873  3.877853  0.005
C  C45  1  0.23039165  0.62202478  0.57472936  1  0.500646  0.006021  0.032534  0.006479  3.885065  0.004  0.043899  0.004749  3.898941  0.003  0.038285  0.024621  0.007877  3.87781  0.005
C  C46  1  0.63778084  0.24150507  0.88556403  1  0.494311  0.006271  0.078446  0.0067  3.937597  0.004  0.088709  0.004426  3.954746  0.003  0.03624  0.070747  0.00823  3.929136  0.005
C  C47  1  0.75848947  0.36222455  0.61443273  1  0.494509  0.00627  0.078461  0.006699  3.937422  0.004  0.088725  0.004426  3.954571  0.003  0.036198  0.070737  0.00823  3.929011  0.005
C  C48  1  0.36221067  0.75849479  0.11443873  1  0.494261  0.006271  0.07864  0.0067  3.937409  0.004  0.088905  0.004426  3.954556  0.003  0.036332  0.070972  0.008231  3.928894  0.005
C  C49  1  0.24151341  0.63777878  0.38556622  1  0.494317  0.006271  0.078544  0.0067  3.93765  0.004  0.088809  0.004428  3.954804  0.003  0.036267  0.070841  0.008231  3.929221  0.005
C  C50  1  0.71658303  0.10803376  0.87493292  1  -0.023627  -0.001528  -0.13228  -0.000456  4.021847  -0.001  -0.139763  -0.000704  4.040896  -0.001  -0.088291  -0.127728  -0.000236  4.010261  -0.001
C  C51  1  0.89196422  0.28341895  0.62506514  1  -0.023597  -0.001529  -0.132287  -0.000457  4.021624  -0.001  -0.139774  -0.000703  4.040672  -0.001  -0.088315  -0.127732  -0.000237  4.010039  -0.001
C  C52  1  0.28342014  0.89197086  0.12507126  1  -0.02359  -0.001528  -0.132494  -0.000456  4.021974  -0.001  -0.139975  -0.000704  4.04102  -0.001  -0.088354  -0.12795  -0.000237  4.010388  -0.001
C  C53  1  0.10803749  0.71657826  0.37493031  1  -0.023438  -0.001529  -0.13243  -0.000457  4.021797  -0.001  -0.139915  -0.000704  4.040843  -0.001  -0.088344  -0.127875  -0.000237  4.01022  -0.001
C  C54  1  0.75134906  0.03585673  0.96926728  1  -0.052156  0.007016  -0.080363  0.00728  3.933897  0.004  -0.072818  0.004345  3.947027  0.003  -0.071655  -0.086275  0.009934  3.92641  0.006
C  C55  1  0.96414593  0.24864769  0.53072593  1  -0.051944  0.007016  -0.080542  0.00728  3.934019  0.004  -0.072996  0.004344  3.94714  0.003  -0.071632  -0.086466  0.009935  3.926573  0.006
C  C56  1  0.24864668  0.96414672  0.03073405  1  -0.05227  0.007018  -0.080345  0.007282  3.933764  0.004  -0.072794  0.004346  3.946878  0.003  -0.07163  -0.086267  0.009937  3.926306  0.006
C  C57  1  0.03585266  0.75135201  0.46927111  1  -0.051911  0.007018  -0.080327  0.007282  3.933698  0.004  -0.072779  0.004345  3.946814  0.003  -0.07154  -0.086258  0.009938  3.92626  0.006
C  C58  1  0.70146271  0.09694410  0.07142096  1  -0.041841  -0.001461  0.082074  -0.000463  3.9944  -0.001  0.076319  -0.000539  4.018226  -0.001  -0.010417  0.085622  -0.000315  3.978826  -0.001
C  C59  1  0.90306443  0.29853489  0.42858077  1  -0.042309  -0.001461  0.082236  -0.000463  3.994667  -0.001  0.07648  -0.000539  4.018493  -0.001  -0.010324  0.085784  -0.000315  3.979096  -0.001
C  C60  1  0.29853832  0.90305563  0.92857975  1  -0.041735  -0.001462  0.082133  -0.000463  3.994258  -0.001  0.076381  -0.000539  4.018086  -0.001  -0.010399  0.085675  -0.000315  3.978691  -0.001
C  C61  1  0.09693844  0.70146844  0.57141735  1  -0.042381  -0.001461  0.082116  -0.000463  3.994756  -0.001  0.076356  -0.000539  4.018588  -0.001  -0.010453  0.085669  -0.000315  3.979179  -0.001
C  C62  1  0.73052194  0.02283225  0.17542756  1  -0.117742  0.000248  -0.238575  0.00028  3.945022  0.0  -0.238925  0.000223  3.957131  0.0  -0.153054  -0.237928  0.000338  3.936792  0.0
C  C63  1  0.97718287  0.26947566  0.32457117  1  -0.117413  0.000249  -0.238448  0.000281  3.944718  0.0  -0.238786  0.000223  3.956799  0.0  -0.152974  -0.237808  0.000338  3.9365  0.0
C  C64  1  0.26947793  0.97716753  0.82457550  1  -0.117755  0.000248  -0.238595  0.00028  3.945049  0.0  -0.238949  0.000223  3.957162  0.0  -0.153045  -0.237945  0.000338  3.936813  0.0
C  C65  1  0.02281737  0.73052646  0.67542559  1  -0.117434  0.000249  -0.238405  0.00028  3.944905  0.0  -0.238744  0.000223  3.956991  0.0  -0.15292  -0.237759  0.000338  3.936675  0.0
C  C66  1  0.85662903  0.61724251  0.93832099  1  0.389465  -0.002861  -0.119907  -0.001555  3.928478  -0.002  -0.113217  -0.001237  3.932706  -0.002  -0.159388  -0.124345  -0.001957  3.924392  -0.002
C  C67  1  0.38275556  0.14337483  0.56167818  1  0.390204  -0.002861  -0.120098  -0.001554  3.928591  -0.002  -0.113385  -0.001236  3.932836  -0.002  -0.15947  -0.124525  -0.001957  3.924495  -0.002
C  C68  1  0.14336011  0.38274507  0.06167226  1  0.389848  -0.002862  -0.120462  -0.001555  3.928826  -0.002  -0.113757  -0.001237  3.933056  -0.002  -0.159565  -0.124903  -0.001957  3.924749  -0.002
C  C69  1  0.61725714  0.85663582  0.43832897  1  0.390085  -0.002861  -0.120476  -0.001554  3.928947  -0.002  -0.113787  -0.001236  3.933178  -0.002  -0.159554  -0.124912  -0.001958  3.924865  -0.002
S  S70  1  0.94433235  0.05566644  0.24999251  1  -0.020386  -0.000117  -0.019211  6.4e-05  2.634189  0.0  -0.025574  -0.000143  2.635698  0.0  -0.018455  -0.014593  0.000273  2.633153  0.0
S  S71  1  0.05566867  0.94433327  0.75000652  1  -0.020371  -0.000117  -0.019233  6.4e-05  2.634249  0.0  -0.025593  -0.000143  2.635762  0.0  -0.018463  -0.014619  0.000273  2.633207  0.0
N  N72  1  0.59254724  0.30415759  0.98452957  1  -1.230973  0.014433  -0.186596  0.014308  3.683603  0.01  -0.216268  0.012909  3.704549  0.009  -0.346052  -0.171479  0.014301  3.672156  0.01
N  N73  1  0.69584317  0.40745623  0.51546841  1  -1.230798  0.014433  -0.186651  0.014308  3.683418  0.01  -0.216343  0.012908  3.704379  0.009  -0.34608  -0.171555  0.014302  3.672013  0.01
N  N74  1  0.40744332  0.69583736  0.01546989  1  -1.223025  0.014428  -0.18669  0.014307  3.683734  0.01  -0.216362  0.012909  3.704685  0.009  -0.34613  -0.171575  0.014301  3.672289  0.01
N  N75  1  0.30416234  0.59254831  0.48453191  1  -1.23092  0.014432  -0.186627  0.014307  3.683453  0.01  -0.216327  0.012905  3.704425  0.009  -0.346052  -0.171538  0.014301  3.672056  0.01
Cl  Cl76  1  0.31106572  0.39704944  0.82624798  1  -0.635982  0.00194  -0.469609  0.003628  1.37826  0.003  -0.502753  0.007171  1.35761  0.003  -0.226204  -0.447604  0.001125  1.390886  0.0
Cl  Cl77  1  0.60294014  0.68893390  0.67375302  1  -0.636032  0.00194  -0.469582  0.003631  1.378225  0.003  -0.50275  0.007171  1.357586  0.003  -0.226191  -0.447599  0.001125  1.390868  0.0
Cl  Cl78  1  0.68892365  0.60294553  0.17375132  1  -0.636009  0.001939  -0.469589  0.003628  1.378182  0.003  -0.502755  0.007171  1.357572  0.003  -0.226201  -0.447585  0.001125  1.390813  0.0
Cl  Cl79  1  0.39706701  0.31107306  0.32624702  1  -0.636088  0.00194  -0.469587  0.003632  1.37822  0.003  -0.502755  0.007171  1.357579  0.003  -0.226203  -0.447606  0.001126  1.390867  0.0
O  O80  1  0.68422902  0.61257871  0.91151073  1  -1.215711  -0.03009  -0.462601  -0.015277  2.542853  -0.025  -0.486321  -0.012501  2.531796  -0.021  -0.404097  -0.445674  -0.018242  2.548738  -0.03
O  O81  1  0.38741752  0.31577540  0.58849136  1  -1.215726  -0.030094  -0.462525  -0.015278  2.542797  -0.025  -0.486243  -0.012502  2.531725  -0.021  -0.404066  -0.445627  -0.018243  2.548729  -0.03
O  O82  1  0.31575971  0.38740648  0.08848547  1  -1.215443  -0.030093  -0.46246  -0.015276  2.542676  -0.025  -0.486172  -0.0125  2.531599  -0.021  -0.404064  -0.445541  -0.018242  2.548595  -0.03
O  O83  1  0.61259658  0.68423643  0.41151446  1  -1.215489  -0.030094  -0.462516  -0.015277  2.542788  -0.025  -0.486229  -0.012501  2.531708  -0.021  -0.404157  -0.445617  -0.018242  2.548731  -0.03
