# generated using pymatgen
data_CuPH7(C3O2)2
_symmetry_space_group_name_H-M   'P 1'
_cell_length_a   7.45018972
_cell_length_b   7.52161798
_cell_length_c   14.02042215
_cell_angle_alpha   89.98799795
_cell_angle_beta   91.47597044
_cell_angle_gamma   90.02191679
_symmetry_Int_Tables_number   1
_chemical_formula_structural   CuPH7(C3O2)2
_chemical_formula_sum   'Cu4 P4 H28 C24 O16'
_cell_volume   785.40839324
_cell_formula_units_Z   4
loop_
 _symmetry_equiv_pos_site_id
 _symmetry_equiv_pos_as_xyz
  1  'x, y, z'
loop_
 _atom_site_type_symbol
 _atom_site_label
 _atom_site_symmetry_multiplicity
 _atom_site_fract_x
 _atom_site_fract_y
 _atom_site_fract_z
 _atom_site_occupancy
 _atom_site_hle17_ddec_charge
 _atom_site_hle17_ddec_spin_density
 _atom_site_hle17_ddec_sum_bond_order
 _atom_site_hle17_magmom
 _atom_site_hse06_10hf_ddec_charge
 _atom_site_hse06_10hf_ddec_spin_density
 _atom_site_hse06_10hf_ddec_sum_bond_order
 _atom_site_hse06_10hf_magmom
 _atom_site_hse06_ddec_charge
 _atom_site_hse06_ddec_spin_density
 _atom_site_hse06_ddec_sum_bond_order
 _atom_site_hse06_magmom
 _atom_site_pbe_cm5_charge
 _atom_site_pbe_ddec_charge
 _atom_site_pbe_ddec_spin_density
 _atom_site_pbe_ddec_sum_bond_order
 _atom_site_pbe_magmom
Cu  Cu0  1  0.93778523  0.81044358  0.02241457  1  1.107222  0.720505  1.625419  0.545  1.119139  0.818683  1.999521  0.676  1.195441  0.881497  1.944734  0.758  0.745208  1.060293  0.764316  2.05061  0.615
Cu  Cu1  1  0.56226911  0.31030260  0.97772547  1  1.106688  -0.759416  1.624152  -0.54  1.118887  -0.854378  1.998229  -0.675  1.195543  -0.933691  1.943287  -0.758  0.744438  1.058945  -0.779812  2.050116  -0.609
Cu  Cu2  1  0.06183935  0.18931604  0.97756087  1  1.108014  0.72658  1.626131  0.549  1.119856  0.821571  2.000279  0.678  1.195769  0.882666  1.945601  0.759  0.746077  1.061954  0.773702  2.050916  0.622
Cu  Cu3  1  0.43818898  0.68947976  0.02232879  1  1.107284  0.719798  1.624129  0.545  1.119724  0.819941  1.998378  0.677  1.196254  0.88244  1.9432  0.759  0.745046  1.060337  0.766839  2.050328  0.617
P  P4  1  0.64114457  0.95517016  0.88602201  1  1.468778  0.001552  4.819373  -0.001  1.329426  0.004061  5.315021  0.001  1.388877  0.002763  5.269786  0.001  0.343913  1.286896  0.005291  5.343973  0.002
P  P5  1  0.85933160  0.45527575  0.11405523  1  1.467883  0.000774  4.81985  -0.001  1.328319  0.002878  5.315751  0.001  1.387712  0.002077  5.270669  0.0  0.343648  1.28582  0.003639  5.344718  0.001
P  P6  1  0.35887736  0.04486738  0.11398862  1  1.469104  0.001144  4.819303  0.001  1.3296  0.002877  5.31496  0.002  1.388922  0.002373  5.269843  0.002  0.344079  1.287322  0.003294  5.343911  0.002
P  P7  1  0.14070919  0.54474984  0.88594356  1  1.468785  0.004898  4.818822  -0.001  1.329292  0.010779  5.314518  0.005  1.388577  0.00822  5.269379  0.005  0.343967  1.287105  0.012777  5.343513  0.005
H  H8  1  0.87348046  0.05435204  0.13119515  1  0.42921  -0.0004  0.860378  -0.002  0.4036  0.000529  0.925724  0.0  0.414142  0.000267  0.910949  0.0  0.295958  0.395928  0.000757  0.936483  0.0
H  H9  1  0.62643264  0.55438725  0.86889393  1  0.429554  9.9e-05  0.860462  0.002  0.403924  -0.0006  0.925488  0.0  0.414507  -0.000396  0.910653  0.0  0.296039  0.396185  -0.000746  0.936346  0.0
H  H10  1  0.12657867  0.94550602  0.86889450  1  0.429692  -0.000385  0.859505  -0.002  0.403888  0.000515  0.925374  0.0  0.414423  0.000254  0.91062  0.0  0.296135  0.396262  0.000748  0.936057  0.0
H  H11  1  0.37346614  0.44552133  0.13102642  1  0.429582  -0.000209  0.860309  -0.002  0.403984  0.000537  0.925381  0.0  0.41455  0.000345  0.910571  0.0  0.296027  0.39629  0.000691  0.93617  0.0
H  H12  1  0.70667468  0.92180320  0.12816219  1  0.427994  -0.000515  0.878785  -0.002  0.400208  0.000229  0.937998  -0.001  0.412115  -8e-06  0.921076  -0.001  0.293411  0.391728  0.000461  0.950035  0.0
H  H13  1  0.79296868  0.42165299  0.87184073  1  0.427781  0.000776  0.878988  0.002  0.40006  0.000139  0.938092  0.001  0.411966  0.000188  0.921181  0.001  0.293465  0.391579  0.000101  0.950129  0.001
H  H14  1  0.29312031  0.07839384  0.87185787  1  0.428542  -0.000653  0.877909  -0.002  0.400744  5.2e-05  0.93713  -0.001  0.412605  -8.2e-05  0.920284  -0.001  0.293837  0.392336  0.000194  0.949042  0.0
H  H15  1  0.20713154  0.57853615  0.12808761  1  0.428288  -0.000707  0.878242  -0.002  0.400604  3.2e-05  0.93729  -0.001  0.412499  -0.000124  0.920399  -0.001  0.293827  0.392145  0.000179  0.94927  -0.001
H  H16  1  0.88586000  0.75518979  0.76723744  1  0.093515  -0.000198  0.982011  0.0  0.103819  -4.6e-05  1.043561  0.0  0.106203  -5e-05  1.042664  0.0  0.099462  0.101982  -3.2e-05  1.044522  0.0
H  H17  1  0.61397518  0.25521708  0.23279072  1  0.09296  1.8e-05  0.981927  0.0  0.103475  0.000181  1.04343  0.0  0.105892  0.000151  1.04246  0.0  0.099322  0.101571  0.000208  1.044453  0.0
H  H18  1  0.11412557  0.24484243  0.23279689  1  0.093393  9.7e-05  0.98204  0.0  0.103665  9.4e-05  1.043619  0.0  0.106037  5.2e-05  1.042747  0.0  0.099425  0.10181  0.000139  1.044575  0.0
H  H19  1  0.38601606  0.74480053  0.76717808  1  0.092905  -7.2e-05  0.981804  0.0  0.103431  0.000164  1.043225  0.0  0.105834  0.000103  1.042318  0.0  0.099284  0.101514  0.000225  1.044238  0.0
H  H20  1  0.95517262  0.77145487  0.59648614  1  0.082212  5e-05  0.977824  0.0  0.091882  -2e-05  1.042494  0.0  0.093669  -1.4e-05  1.043677  0.0  0.096238  0.090621  -2.3e-05  1.041722  0.0
H  H21  1  0.54475057  0.27134530  0.40355006  1  0.081927  5.3e-05  0.978376  0.0  0.0918  2.5e-05  1.042802  0.0  0.09361  1.3e-05  1.043937  0.0  0.096115  0.090499  3.7e-05  1.042083  0.0
H  H22  1  0.04478612  0.22851087  0.40353852  1  0.082195  -4.3e-05  0.977675  0.0  0.091828  1.3e-05  1.042428  0.0  0.093628  8e-06  1.043584  0.0  0.096229  0.090524  1.9e-05  1.041685  0.0
H  H23  1  0.45526613  0.72862843  0.59642768  1  0.081901  6.9e-05  0.978487  0.0  0.09174  1.3e-05  1.043007  0.0  0.093548  4e-06  1.044166  0.0  0.096128  0.090439  2.3e-05  1.042263  0.0
H  H24  1  0.79400844  0.99162500  0.49040154  1  0.084279  -0.000204  0.953977  0.0  0.095369  1.7e-05  1.015702  0.0  0.098127  7e-06  1.014757  0.0  0.098974  0.093429  3.2e-05  1.01637  0.0
H  H25  1  0.70592863  0.49153391  0.50960574  1  0.084337  -0.00014  0.953891  0.0  0.095466  -1e-05  1.015513  0.0  0.098236  -9e-06  1.014544  0.0  0.099003  0.093497  -7e-06  1.016237  0.0
H  H26  1  0.20598257  0.00835405  0.50961504  1  0.084411  2.9e-05  0.95372  0.0  0.095579  -3e-06  1.015385  0.0  0.098356  -4e-06  1.014438  0.0  0.099048  0.093612  -3e-06  1.016078  0.0
H  H27  1  0.29407195  0.50844248  0.49037390  1  0.084443  -0.000256  0.953935  0.0  0.095521  1.7e-05  1.015634  0.0  0.098296  6e-06  1.014664  0.0  0.098993  0.093542  3.3e-05  1.016367  0.0
H  H28  1  0.56567608  0.19334097  0.55928448  1  0.081676  0.000124  0.97234  0.0  0.092563  6.6e-05  1.035138  0.0  0.094742  3.6e-05  1.035266  0.0  0.097317  0.091027  9.5e-05  1.035131  0.0
H  H29  1  0.93437210  0.69334522  0.44071106  1  0.081597  5.1e-05  0.97258  0.0  0.092583  4.5e-05  1.035276  0.0  0.094783  2.6e-05  1.035394  0.0  0.097267  0.090999  6.5e-05  1.035302  0.0
H  H30  1  0.43429351  0.80663408  0.44071824  1  0.081666  -2.1e-05  0.972326  0.0  0.092551  -3.3e-05  1.035112  0.0  0.094738  -2.1e-05  1.035237  0.0  0.097298  0.09101  -4.3e-05  1.03512  0.0
H  H31  1  0.06563921  0.30663251  0.55927160  1  0.081568  0.000147  0.972565  0.0  0.092584  6.9e-05  1.035259  0.0  0.094781  3.8e-05  1.035367  0.0  0.097289  0.091001  0.000101  1.035288  0.0
H  H32  1  0.50094013  0.17973015  0.73151069  1  0.107316  -3.5e-05  0.946003  0.0  0.118127  9.1e-05  1.002743  0.0  0.120918  7e-05  1.00169  0.0  0.106174  0.116161  0.000108  1.003505  0.0
H  H33  1  0.99913108  0.67979300  0.26848886  1  0.107243  -6.2e-05  0.946376  0.0  0.11821  3.3e-05  1.00288  0.0  0.121015  1.4e-05  1.001824  0.0  0.106202  0.116196  5.4e-05  1.003707  0.0
H  H34  1  0.49905635  0.82032335  0.26848814  1  0.107268  -2e-05  0.946211  0.0  0.118158  2.6e-05  1.00286  0.0  0.120952  1e-05  1.001815  0.0  0.106117  0.116174  4.4e-05  1.003646  0.0
H  H35  1  0.00086943  0.32022992  0.73150861  1  0.107137  -0.000243  0.946294  0.0  0.118112  -6.8e-05  1.00286  0.0  0.120923  -6.1e-05  1.001799  0.0  0.106145  0.116071  -6.9e-05  1.003701  0.0
C  C36  1  0.68725030  0.96458307  0.76042229  1  -0.235275  0.006382  3.740834  0.007  -0.195863  0.002941  3.976625  0.003  -0.209769  0.001678  4.001727  0.002  -0.025685  -0.186235  0.004069  3.95969  0.004
C  C37  1  0.81276507  0.46460873  0.23960062  1  -0.23544  0.007658  3.741304  0.008  -0.195493  0.003812  3.976627  0.004  -0.209317  0.002464  4.001652  0.003  -0.025946  -0.186058  0.00494  3.959878  0.005
C  C38  1  0.31275551  0.03548904  0.23959024  1  -0.234996  -0.003357  3.740073  -0.003  -0.195626  -0.001549  3.976087  -0.002  -0.209514  -0.00101  4.001213  -0.001  -0.025595  -0.186037  -0.002023  3.959108  -0.002
C  C39  1  0.18722740  0.53541286  0.76039173  1  -0.235578  0.010925  3.740949  0.011  -0.195791  0.005277  3.976475  0.006  -0.209561  0.003195  4.001499  0.004  -0.026023  -0.186432  0.007046  3.959654  0.008
C  C40  1  0.81451307  0.84986029  0.72144504  1  -0.024161  0.005617  3.720029  0.005  -0.046481  0.001262  3.957596  0.001  -0.045527  0.000824  3.979889  0.001  -0.081978  -0.046934  0.00181  3.942462  0.002
C  C41  1  0.68539574  0.34988485  0.27856069  1  -0.023891  0.003038  3.719975  0.003  -0.046286  0.000963  3.957135  0.001  -0.045326  0.000597  3.979417  0.001  -0.081968  -0.046749  0.001394  3.942124  0.001
C  C42  1  0.18547659  0.15015731  0.27857580  1  -0.024187  -0.002553  3.720273  -0.002  -0.046449  -0.000145  3.957982  0.0  -0.045479  -6.9e-05  3.980281  0.0  -0.081976  -0.046896  -0.000229  3.942812  0.0
C  C43  1  0.31460488  0.65012478  0.72141110  1  -0.024213  0.005605  3.720076  0.005  -0.046493  0.00196  3.957389  0.002  -0.045539  0.001337  3.979645  0.001  -0.082076  -0.046958  0.002604  3.942386  0.002
C  C44  1  0.85369419  0.86007188  0.62492837  1  -0.085549  -0.003897  3.768341  -0.004  -0.094355  -0.000581  4.014924  -0.001  -0.098058  -0.000537  4.037581  -0.001  -0.093022  -0.091842  -0.000583  3.999384  -0.001
C  C45  1  0.64621172  0.36003590  0.37508830  1  -0.086016  -0.00124  3.768498  -0.001  -0.094771  -3.7e-05  4.014674  0.0  -0.098443  -8.3e-05  4.037244  0.0  -0.093185  -0.092315  2.8e-05  3.999328  0.0
C  C46  1  0.14627397  0.13992045  0.37509430  1  -0.085636  0.002553  3.767641  0.003  -0.094595  0.00058  4.014474  0.001  -0.098297  0.000361  4.037095  0.0  -0.093252  -0.092038  0.000783  3.998934  0.001
C  C47  1  0.35378618  0.63995512  0.62489130  1  -0.085595  -0.002794  3.768573  -0.003  -0.094534  -0.000311  4.015017  0.0  -0.098206  -0.000424  4.037585  0.0  -0.093186  -0.092085  -0.000137  3.999672  0.0
C  C48  1  0.76445123  0.98372864  0.56611843  1  -0.068466  0.007904  3.775722  0.007  -0.086293  0.001686  4.02664  0.002  -0.087009  0.001076  4.047673  0.001  -0.089719  -0.085491  0.002411  4.012063  0.002
C  C49  1  0.73549495  0.48369695  0.43388559  1  -0.069124  0.003825  3.776341  0.004  -0.086393  0.000783  4.026506  0.001  -0.087052  0.000438  4.047457  0.0  -0.090029  -0.085754  0.001231  4.012159  0.001
C  C50  1  0.23554786  0.01624908  0.43389257  1  -0.06833  -0.002013  3.775656  -0.002  -0.086317  -0.000425  4.026624  0.0  -0.087072  -0.000272  4.04769  0.0  -0.089709  -0.085474  -0.00057  4.01201  -0.001
C  C51  1  0.26450027  0.51628741  0.56609183  1  -0.069147  0.009547  3.776213  0.009  -0.086651  0.002121  4.0268  0.002  -0.087337  0.001317  4.047763  0.001  -0.090053  -0.085957  0.003014  4.01242  0.003
C  C52  1  0.63654842  0.09718543  0.60455773  1  -0.082816  -0.001475  3.774563  -0.002  -0.09255  -9.9e-05  4.02201  0.0  -0.09646  -0.000287  4.044873  0.0  -0.092194  -0.089897  0.000137  4.006296  0.0
C  C53  1  0.86343502  0.59719637  0.39544911  1  -0.082907  0.000543  3.775576  0.0  -0.092637  0.000288  4.022609  0.0  -0.096561  8.5e-05  4.045429  0.0  -0.092321  -0.089964  0.000542  4.007026  0.001
C  C54  1  0.36343054  0.90282419  0.39545368  1  -0.083029  -0.000789  3.775008  -0.001  -0.092666  -0.000192  4.022558  0.0  -0.096561  -5.6e-05  4.045421  0.0  -0.092295  -0.090065  -0.000332  4.006872  0.0
C  C55  1  0.13656016  0.40279465  0.60453687  1  -0.083132  -0.002272  3.775375  -0.002  -0.092861  -0.000184  4.02259  0.0  -0.096741  -0.00035  4.045385  0.0  -0.092512  -0.090255  5.5e-05  4.007041  0.0
C  C56  1  0.59802020  0.08872751  0.70137296  1  -0.032654  0.003874  3.728742  0.004  -0.0544  0.001711  3.966996  0.002  -0.053298  0.001239  3.988658  0.001  -0.079118  -0.054953  0.002169  3.952138  0.002
C  C57  1  0.90201909  0.58876697  0.29864067  1  -0.033139  0.001125  3.729342  0.001  -0.054706  0.000829  3.967162  0.001  -0.053576  0.00055  3.988759  0.001  -0.079329  -0.055359  0.001131  3.952488  0.001
C  C58  1  0.40198430  0.91130870  0.29863170  1  -0.032558  0.000172  3.727931  0.0  -0.054636  -0.000397  3.966483  -0.001  -0.053561  -0.000356  3.988152  0.0  -0.079167  -0.05512  -0.000384  3.951587  -0.001
C  C59  1  0.09798685  0.41124931  0.70134404  1  -0.032502  0.005012  3.728955  0.005  -0.054246  0.001949  3.967015  0.002  -0.053163  0.001331  3.988649  0.001  -0.079087  -0.054805  0.00255  3.952262  0.003
O  O60  1  0.81529980  0.99394147  0.94449043  1  -0.884149  0.059798  2.13628  0.083  -0.855044  0.037335  2.479315  0.054  -0.89253  0.027972  2.449398  0.043  -0.393156  -0.825088  0.04355  2.497824  0.061
O  O61  1  0.68522900  0.49368069  0.05550264  1  -0.884668  -0.064525  2.135801  -0.08  -0.854932  -0.040379  2.478337  -0.054  -0.892394  -0.031943  2.448291  -0.043  -0.393091  -0.824775  -0.044623  2.496774  -0.058
O  O62  1  0.18472738  0.00608278  0.05554738  1  -0.884435  0.060121  2.135719  0.085  -0.8549  0.036283  2.478288  0.055  -0.892153  0.026713  2.448284  0.043  -0.393208  -0.825419  0.043209  2.497031  0.062
O  O63  1  0.31482812  0.50639809  0.94444931  1  -0.884618  0.061428  2.134476  0.084  -0.854862  0.037595  2.476635  0.055  -0.892078  0.02837  2.446451  0.043  -0.393391  -0.825399  0.043888  2.495622  0.061
O  O64  1  0.56427634  0.76802032  0.90631438  1  -0.85007  0.05597  2.084073  0.078  -0.800956  0.036495  2.382042  0.054  -0.839994  0.028401  2.357938  0.044  -0.373873  -0.771317  0.040759  2.397514  0.058
O  O65  1  0.93690337  0.26846760  0.09382659  1  -0.850022  0.070072  2.083159  0.095  -0.800454  0.045518  2.381051  0.066  -0.839257  0.034336  2.356887  0.052  -0.374053  -0.771409  0.053011  2.396642  0.073
O  O66  1  0.43590389  0.23200662  0.09372858  1  -0.849906  -0.057887  2.08339  -0.073  -0.800969  -0.038952  2.381825  -0.053  -0.839821  -0.031598  2.357543  -0.045  -0.37417  -0.771627  -0.041213  2.397439  -0.055
O  O67  1  0.06298854  0.73154866  0.90613288  1  -0.850432  0.071418  2.082368  0.099  -0.800772  0.04483  2.380198  0.066  -0.839524  0.033276  2.356043  0.052  -0.374417  -0.771941  0.052949  2.395854  0.075
O  O68  1  0.49829866  0.10002425  0.90416923  1  -0.84709  -0.052539  2.139659  -0.067  -0.786247  -0.035629  2.428  -0.049  -0.824345  -0.028977  2.404064  -0.041  -0.377079  -0.757903  -0.037879  2.443397  -0.051
O  O69  1  0.00208235  0.60046416  0.09605817  1  -0.845789  0.048865  2.139462  0.068  -0.785199  0.033001  2.427999  0.049  -0.823313  0.025907  2.404065  0.04  -0.376872  -0.756946  0.036682  2.443371  0.052
O  O70  1  0.50175146  0.90000533  0.09584325  1  -0.847888  0.060216  2.14014  0.083  -0.78671  0.04034  2.428367  0.059  -0.824635  0.030875  2.404374  0.047  -0.377574  -0.758965  0.046317  2.444123  0.065
O  O71  1  0.99793402  0.39958933  0.90399516  1  -0.847074  0.061039  2.139432  0.084  -0.786332  0.040217  2.428085  0.059  -0.824061  0.030696  2.40387  0.047  -0.377694  -0.758926  0.046547  2.443867  0.066
O  O72  1  0.84104948  0.92664202  0.13922915  1  -0.770887  0.081817  1.886111  0.11  -0.742294  0.057391  2.093229  0.083  -0.777997  0.043172  2.063285  0.066  -0.569747  -0.717545  0.066056  2.114853  0.091
O  O73  1  0.65857928  0.42661391  0.86084931  1  -0.770575  -0.083719  1.885946  -0.105  -0.742074  -0.058914  2.09275  -0.081  -0.777948  -0.045596  2.062894  -0.065  -0.56989  -0.717172  -0.065457  2.114424  -0.087
O  O74  1  0.15878834  0.07329976  0.86080939  1  -0.771329  0.080869  1.885228  0.108  -0.742585  0.057063  2.092376  0.082  -0.778414  0.04304  2.062608  0.066  -0.569769  -0.717562  0.065906  2.113591  0.09
O  O75  1  0.34149396  0.57335851  0.13909861  1  -0.771075  0.080479  1.885645  0.108  -0.742289  0.057044  2.092305  0.082  -0.778304  0.043138  2.062491  0.066  -0.569695  -0.717134  0.065199  2.113848  0.089
