# generated using pymatgen
data_MnH4C8(N3O)2
_symmetry_space_group_name_H-M   'P 1'
_cell_length_a   6.81525203
_cell_length_b   8.56776978
_cell_length_c   11.39215094
_cell_angle_alpha   77.87086166
_cell_angle_beta   72.56138548
_cell_angle_gamma   66.51592235
_symmetry_Int_Tables_number   1
_chemical_formula_structural   MnH4C8(N3O)2
_chemical_formula_sum   'Mn2 H8 C16 N12 O4'
_cell_volume   578.93020991
_cell_formula_units_Z   2
loop_
 _symmetry_equiv_pos_site_id
 _symmetry_equiv_pos_as_xyz
  1  'x, y, z'
loop_
 _atom_site_type_symbol
 _atom_site_label
 _atom_site_symmetry_multiplicity
 _atom_site_fract_x
 _atom_site_fract_y
 _atom_site_fract_z
 _atom_site_occupancy
 _atom_site_pbe_bader_charge
 _atom_site_pbe_bader_spin_density
 _atom_site_pbe_cm5_charge
 _atom_site_pbe_ddec_charge
 _atom_site_pbe_ddec_spin_density
 _atom_site_pbe_ddec_sum_bond_order
 _atom_site_pbe_magmom
Mn  Mn0  1  0.90795878  0.25023516  0.75002201  1  1.56231  4.457994  0.666817  1.013518  4.596162  2.548635  4.404
Mn  Mn1  1  0.09203926  0.74974873  0.24998455  1  1.56211  4.45805  0.66681  1.013488  4.596214  2.548675  4.404
H  H2  1  0.55542857  0.22065771  0.42476379  1  0.465104  0.000649  0.324493  0.335121  0.000495  0.901619  0.0
H  H3  1  0.79909337  0.72121889  0.92501833  1  0.489143  0.000637  0.324361  0.335127  0.000494  0.901134  0.0
H  H4  1  0.44454510  0.77934652  0.57522748  1  0.46539  0.000649  0.324482  0.335054  0.000495  0.90172  0.0
H  H5  1  0.20089200  0.27878021  0.07497322  1  0.489054  0.000638  0.324325  0.335133  0.000495  0.901064  0.0
H  H6  1  0.67128614  0.99896475  0.44751251  1  0.469269  0.000305  0.311698  0.317309  2.2e-05  0.963086  0.0
H  H7  1  0.88150651  0.49956115  0.94759809  1  0.484724  0.000301  0.312113  0.317869  2e-05  0.962452  0.0
H  H8  1  0.32870193  0.00103066  0.55249319  1  0.469374  0.000305  0.311689  0.31727  2.2e-05  0.9633  0.0
H  H9  1  0.11848883  0.50042781  0.05240287  1  0.484795  0.000301  0.312126  0.317913  2e-05  0.962323  0.0
C  C10  1  0.68659789  0.09326455  0.26719966  1  1.386255  0.020163  0.234703  0.567179  0.018896  4.214072  0.016
C  C11  1  0.95220261  0.59389551  0.76732879  1  1.386363  0.019967  0.234827  0.569119  0.018812  4.213774  0.016
C  C12  1  0.31339635  0.90673721  0.73280193  1  1.386529  0.020164  0.23476  0.567265  0.018898  4.213863  0.016
C  C13  1  0.04780142  0.40609221  0.23267677  1  1.386621  0.019975  0.234873  0.569112  0.018824  4.213178  0.016
C  C14  1  0.64314403  0.25039389  0.18442482  1  0.234138  0.013555  -0.060216  -0.32187  0.012056  4.222996  0.007
C  C15  1  0.92192183  0.75090890  0.68447159  1  0.254968  0.013478  -0.060161  -0.322934  0.012036  4.222577  0.007
C  C16  1  0.35687453  0.74961301  0.81557886  1  0.234216  0.013553  -0.060235  -0.321811  0.012054  4.223134  0.007
C  C17  1  0.07810611  0.24906092  0.31553663  1  0.254737  0.01348  -0.06018  -0.32291  0.012038  4.222361  0.007
C  C18  1  0.73221389  0.24581539  0.05748617  1  0.819124  0.027994  0.205186  0.339607  0.021865  4.088132  0.021
C  C19  1  0.96459966  0.74616088  0.55752356  1  0.797695  0.028065  0.205474  0.341061  0.021733  4.085249  0.021
C  C20  1  0.26779121  0.75420434  0.94251977  1  0.819108  0.027985  0.20531  0.339895  0.021856  4.087949  0.021
C  C21  1  0.03544446  0.25379354  0.44248230  1  0.798949  0.028079  0.205633  0.341186  0.021748  4.08497  0.021
C  C22  1  0.51905869  0.41088191  0.22637519  1  0.797854  0.042443  0.186386  0.303356  0.034734  4.108727  0.031
C  C23  1  0.84381034  0.91138290  0.72637303  1  0.77127  0.042496  0.186719  0.303823  0.034764  4.107263  0.031
C  C24  1  0.48095469  0.58913652  0.77362930  1  0.797675  0.042424  0.186386  0.303173  0.034717  4.109038  0.031
C  C25  1  0.15620577  0.08861112  0.27362372  1  0.770916  0.042491  0.186697  0.303903  0.03476  4.106965  0.031
N  N26  1  0.61213687  0.10603602  0.39094217  1  -1.249326  0.010121  -0.57193  -0.652857  0.007042  3.319092  0.006
N  N27  1  0.89035221  0.60658801  0.89107618  1  -1.291121  0.010089  -0.57196  -0.654136  0.007017  3.319825  0.006
N  N28  1  0.38784571  0.89396063  0.60906003  1  -1.249885  0.010121  -0.571933  -0.652819  0.007042  3.319334  0.006
N  N29  1  0.10964053  0.39340352  0.10892661  1  -1.290865  0.010095  -0.572023  -0.654305  0.007022  3.319445  0.006
N  N30  1  0.80507293  0.25178256  0.95005717  1  -1.269674  0.048354  -0.330568  -0.438906  0.03339  3.135548  0.011
N  N31  1  0.99252225  0.75185008  0.45018478  1  -1.24864  0.048036  -0.330388  -0.439723  0.033323  3.13247  0.011
N  N32  1  0.19491538  0.74824223  0.04994250  1  -1.269636  0.048339  -0.330627  -0.439119  0.033393  3.135508  0.011
N  N33  1  0.00745736  0.24815184  0.54983117  1  -1.249472  0.048057  -0.330469  -0.439839  0.033321  3.132376  0.011
N  N34  1  0.41159146  0.54623626  0.26162182  1  -1.252137  0.045672  -0.331733  -0.427948  0.02955  3.0476  0.008
N  N35  1  0.78108795  0.04664358  0.76161687  1  -1.242011  0.045761  -0.332074  -0.428139  0.029645  3.047702  0.008
N  N36  1  0.58838646  0.45377201  0.73838897  1  -1.251951  0.045672  -0.331749  -0.427869  0.029552  3.047455  0.008
N  N37  1  0.21892595  0.95333897  0.23838496  1  -1.242109  0.045747  -0.332114  -0.428268  0.029646  3.047247  0.008
O  O38  1  0.78891142  0.94946633  0.22544229  1  -1.183644  0.061838  -0.301801  -0.527891  0.043914  2.287281  0.03
O  O39  1  0.03511699  0.45012497  0.72559144  1  -1.181542  0.062045  -0.301952  -0.528639  0.043994  2.287511  0.03
O  O40  1  0.21107346  0.05053294  0.77456514  1  -1.183798  0.061854  -0.301883  -0.527998  0.043925  2.287216  0.03
O  O41  1  0.96488387  0.54987161  0.27440444  1  -1.18188  0.06206  -0.301871  -0.528498  0.043991  2.287477  0.03
