# generated using pymatgen
data_MgH6C9NO4
_symmetry_space_group_name_H-M   'P 1'
_cell_length_a   6.85419336
_cell_length_b   31.19470768
_cell_length_c   31.20396009
_cell_angle_alpha   119.44486983
_cell_angle_beta   94.21984646
_cell_angle_gamma   94.19510438
_symmetry_Int_Tables_number   1
_chemical_formula_structural   MgH6C9NO4
_chemical_formula_sum   'Mg6 H36 C54 N6 O24'
_cell_volume   5748.20659538
_cell_formula_units_Z   6
loop_
 _symmetry_equiv_pos_site_id
 _symmetry_equiv_pos_as_xyz
  1  'x, y, z'
loop_
 _atom_site_type_symbol
 _atom_site_label
 _atom_site_symmetry_multiplicity
 _atom_site_fract_x
 _atom_site_fract_y
 _atom_site_fract_z
 _atom_site_occupancy
 _atom_site_pbe_bader_charge
 _atom_site_pbe_bader_spin_density
 _atom_site_pbe_cm5_charge
 _atom_site_pbe_ddec_charge
 _atom_site_pbe_ddec_spin_density
 _atom_site_pbe_ddec_sum_bond_order
 _atom_site_pbe_magmom
Mg  Mg0  1  0.64488453  0.36999061  0.67357492  1  1.684119  0  0.905477  1.410062  0  1.329598  0
Mg  Mg1  1  0.09593237  0.69335283  0.32235280  1  1.682444  0  0.907649  1.405755  0  1.33304  0
Mg  Mg2  1  0.27485257  0.30359538  0.63013461  1  1.682539  0  0.905409  1.410422  0  1.329173  0
Mg  Mg3  1  0.40251382  0.62901436  0.30666216  1  1.683012  0  0.907841  1.405799  0  1.332847  0
Mg  Mg4  1  0.97145207  0.32652466  0.69650498  1  1.683711  0  0.905549  1.409955  0  1.330986  0
Mg  Mg5  1  0.77360689  0.67763439  0.37097530  1  1.682407  0  0.907811  1.406189  0  1.331928  0
H  H6  1  0.27031781  0.48096853  0.09998171  1  0.456529  0  0.327156  0.291657  0  0.909999  0
H  H7  1  0.33940880  0.58000581  0.18441576  1  0.076121  0  0.107913  0.135505  0  1.0253  0
H  H8  1  0.61416205  0.54166289  0.16630310  1  0.064679  0  0.10285  0.101291  0  1.020075  0
H  H9  1  0.79388450  0.49581004  0.09324737  1  0.105313  0  0.115032  0.134636  0  0.978  0
H  H10  1  0.18859662  0.57978252  0.07357006  1  0.041892  0  0.104237  0.116336  0  0.960695  0
H  H11  1  0.95123957  0.54581974  0.05647974  1  0.089419  0  0.103262  0.115817  0  1.009191  0
H  H12  1  0.23494057  0.52259031  0.97903689  1  0.055247  0  0.104952  0.11763  0  0.990734  0
H  H13  1  0.08140942  0.57051873  0.99417931  1  0.0447  0  0.106577  0.119751  0  0.961647  0
H  H14  1  0.08690053  0.47306451  0.90431015  1  0.446095  0  0.326413  0.280112  0  0.921746  0
H  H15  1  0.01911897  0.42972520  0.81985873  1  0.050093  0  0.10701  0.130338  0  1.005412  0
H  H16  1  0.32685800  0.38810176  0.83557638  1  0.076925  0  0.103668  0.106421  0  1.00414  0
H  H17  1  0.56552453  0.43880572  0.91238051  1  0.112998  0  0.10617  0.1341  0  1.030038  0
H  H18  1  0.79009038  0.61904647  0.51918418  1  0.456563  0  0.327344  0.29156  0  0.910002  0
H  H19  1  0.75999608  0.60452451  0.42004624  1  0.10319  0  0.107924  0.135415  0  1.024655  0
H  H20  1  0.07303005  0.62449553  0.45835891  1  0.085424  0  0.103236  0.101784  0  1.020524  0
H  H21  1  0.29923763  0.59743085  0.50427818  1  0.109738  0  0.115057  0.134558  0  0.97847  0
H  H22  1  0.60985987  0.49391359  0.42034773  1  0.069166  0  0.104318  0.116476  0  0.960576  0
H  H23  1  0.40615066  0.51070998  0.45415339  1  0.095624  0  0.103222  0.115893  0  1.009229  0
H  H24  1  0.71260301  0.45643530  0.47752047  1  0.063199  0  0.105107  0.118133  0  0.991008  0
H  H25  1  0.51148975  0.42372735  0.42949962  1  0.039758  0  0.106215  0.119125  0  0.962263  0
H  H26  1  0.61331964  0.43104583  0.52684465  1  0.445833  0  0.326223  0.279506  0  0.922837  0
H  H27  1  0.58859415  0.38991505  0.57015689  1  0.05267  0  0.107176  0.130603  0  1.005289  0
H  H28  1  0.93818395  0.44738501  0.61171622  1  0.071574  0  0.103667  0.106371  0  1.003368  0
H  H29  1  0.12618264  0.47345484  0.56100291  1  0.142617  0  0.106302  0.134084  0  1.029185  0
H  H30  1  0.17125004  0.90004647  0.38094286  1  0.453195  0  0.327226  0.291903  0  0.909697  0
H  H31  1  0.15535660  0.81553673  0.39549560  1  0.089406  0  0.107851  0.136906  0  1.02302  0
H  H32  1  0.44834106  0.83378080  0.37524708  1  0.07551  0  0.103139  0.101421  0  1.020443  0
H  H33  1  0.70146929  0.90682656  0.40245876  1  0.095226  0  0.115013  0.134718  0  0.978165  0
H  H34  1  0.11541014  0.92636992  0.50606305  1  0.058595  0  0.10438  0.116503  0  0.960838  0
H  H35  1  0.89541321  0.94356268  0.48917931  1  0.102763  0  0.103195  0.115717  0  1.009578  0
H  H36  1  0.25669914  0.02100067  0.54339957  1  0.07515  0  0.105085  0.118115  0  0.990938  0
H  H37  1  0.08829793  0.00578190  0.57617690  1  0.047308  0  0.106162  0.119254  0  0.961977  0
H  H38  1  0.18272274  0.09585131  0.56897388  1  0.428758  0  0.326226  0.280088  0  0.922471  0
H  H39  1  0.19899277  0.18026801  0.61013021  1  0.089741  0  0.107166  0.130769  0  1.005984  0
H  H40  1  0.49099946  0.16441761  0.55266281  1  0.081273  0  0.103506  0.106051  0  1.003932  0
H  H41  1  0.65300611  0.08763331  0.52654234  1  0.154098  0  0.10627  0.134159  0  1.029799  0
C  C42  1  0.19427787  0.50342130  0.05109679  1  1.384516  0  0.237512  0.539468  0  4.083041  0
C  C43  1  0.07953431  0.53428356  0.13504334  1  0.285243  0  0.097447  0.272986  0  4.065099  0
C  C44  1  0.17983157  0.57154332  0.18010362  1  0.052795  0  -0.110065  -0.317329  0  3.92058  0
C  C45  1  0.08068942  0.59948480  0.22129400  1  0.545367  0  0.096027  0.383673  0  4.081822  0
C  C46  1  0.87163867  0.58695706  0.21610296  1  -0.019645  0  -0.04345  -0.217898  0  3.960228  0
C  C47  1  0.77330989  0.55025419  0.16936728  1  -0.069887  0  -0.082623  -0.049076  0  4.021258  0
C  C48  1  0.87255675  0.52439302  0.12886745  1  0.08181  0  -0.100342  -0.207273  0  3.99167  0
C  C49  1  0.75648439  0.60837174  0.25827162  1  1.505256  0  0.235918  0.675675  0  4.127677  0
C  C50  1  0.10207331  0.54406735  0.04638367  1  -0.044568  0  -0.158163  -0.261348  0  3.938576  0
C  C51  1  0.09696840  0.53548245  0.99389556  1  -0.013018  0  -0.159348  -0.278401  0  3.964262  0
C  C52  1  0.91723333  0.49921059  0.96075016  1  1.392009  0  0.243374  0.53403  0  4.060691  0
C  C53  1  0.80674139  0.43863729  0.87101495  1  0.349232  0  0.103074  0.288568  0  4.047677  0
C  C54  1  0.86678446  0.42098593  0.82390892  1  0.00121  0  -0.118587  -0.337974  0  3.930804  0
C  C55  1  0.73405291  0.39307839  0.78030157  1  0.592902  0  0.093786  0.386128  0  4.099191  0
C  C56  1  0.53277318  0.38204820  0.78522525  1  -0.011082  0  -0.050612  -0.228159  0  3.980856  0
C  C57  1  0.47948524  0.39833069  0.83310148  1  -0.09992  0  -0.088184  -0.054597  0  4.050542  0
C  C58  1  0.61049191  0.42620323  0.87584864  1  0.07044  0  -0.114317  -0.225983  0  3.992262  0
C  C59  1  0.37722368  0.35547339  0.74289441  1  1.479396  0  0.23281  0.674393  0  4.136769  0
C  C60  1  0.69131019  0.54772036  0.49673640  1  1.396239  0  0.236609  0.53759  0  4.086421  0
C  C61  1  0.54607595  0.60080100  0.46577492  1  0.340894  0  0.097664  0.271371  0  4.066173  0
C  C62  1  0.60885778  0.60861542  0.42850688  1  -0.030371  0  -0.109822  -0.316579  0  3.919979  0
C  C63  1  0.48148225  0.62181073  0.40053415  1  0.557893  0  0.09639  0.38486  0  4.078297  0
C  C64  1  0.28490480  0.62906987  0.41303903  1  -0.010114  0  -0.043263  -0.217947  0  3.959847  0
C  C65  1  0.22359107  0.61904447  0.44977076  1  -0.070198  0  -0.083519  -0.050348  0  4.02236  0
C  C66  1  0.34899159  0.60446106  0.47566311  1  0.012068  0  -0.100414  -0.206696  0  3.99103  0
C  C67  1  0.14820166  0.64983910  0.39162977  1  1.502427  0  0.235144  0.675225  0  4.12841  0
C  C68  1  0.55873690  0.50238786  0.45601042  1  -0.085796  0  -0.158142  -0.261662  0  3.938654  0
C  C69  1  0.56188679  0.45844039  0.46455994  1  -0.016661  0  -0.159224  -0.278128  0  3.963453  0
C  C70  1  0.41804970  0.46150738  0.50072129  1  1.399885  0  0.242568  0.533472  0  4.059469  0
C  C71  1  0.36743871  0.43219885  0.56119960  1  0.285958  0  0.10341  0.289157  0  4.047857  0
C  C72  1  0.44505036  0.40273934  0.57887965  1  0.033  0  -0.119142  -0.339001  0  3.93159  0
C  C73  1  0.34041289  0.38712330  0.60686688  1  0.605783  0  0.094098  0.38804  0  4.097551  0
C  C74  1  0.15015197  0.40307629  0.61785675  1  -0.024321  0  -0.050558  -0.230121  0  3.98179  0
C  C75  1  0.08053802  0.43465090  0.60150541  1  -0.044522  0  -0.087988  -0.053437  0  4.04977  0
C  C76  1  0.18366832  0.44948975  0.57359904  1  0.015475  0  -0.11451  -0.226243  0  3.991615  0
C  C77  1  0.02143128  0.38738612  0.64452677  1  1.486097  0  0.232132  0.674147  0  4.135974  0
C  C78  1  0.14390840  0.94893337  0.45222991  1  1.394626  0  0.237174  0.538592  0  4.08401  0
C  C79  1  0.94507861  0.86497089  0.39914316  1  0.284648  0  0.09758  0.272406  0  4.066007  0
C  C80  1  0.00011528  0.81988294  0.39132730  1  -0.002589  0  -0.110178  -0.318665  0  3.92039  0
C  C81  1  0.85963712  0.77870443  0.37810535  1  0.605458  0  0.096396  0.3846  0  4.080354  0
C  C82  1  0.65578007  0.78392537  0.37075899  1  -0.017501  0  -0.04359  -0.217843  0  3.959669  0
C  C83  1  0.60440342  0.83067781  0.38075620  1  -0.035788  0  -0.083322  -0.049989  0  4.023091  0
C  C84  1  0.74429855  0.87117382  0.39540288  1  -0.004782  0  -0.100024  -0.206765  0  3.991941  0
C  C85  1  0.49828556  0.74175991  0.35005343  1  1.497926  0  0.236001  0.67533  0  4.128791  0
C  C86  1  0.05638343  0.95360923  0.49754491  1  -0.068392  0  -0.15845  -0.261781  0  3.9393  0
C  C87  1  0.10390302  0.00609808  0.54144186  1  -0.034871  0  -0.158997  -0.277982  0  3.963044  0
C  C88  1  0.95707349  0.03924025  0.53836352  1  1.388417  0  0.243095  0.533636  0  4.060497  0
C  C89  1  0.93558152  0.12904527  0.56780936  1  0.299167  0  0.103638  0.289471  0  4.048039  0
C  C90  1  0.04257552  0.17617610  0.59732336  1  -0.048292  0  -0.119273  -0.339283  0  3.932952  0
C  C91  1  0.95345354  0.21977727  0.61297660  1  0.671603  0  0.094263  0.387379  0  4.097586  0
C  C92  1  0.74719142  0.21481615  0.59700523  1  -0.00368  0  -0.050564  -0.228619  0  3.979639  0
C  C93  1  0.64608538  0.16691181  0.56541245  1  -0.200804  0  -0.087729  -0.053994  0  4.049903  0
C  C94  1  0.73446903  0.12417335  0.55052304  1  0.067089  0  -0.115093  -0.226541  0  3.992176  0
C  C95  1  0.63406514  0.25716989  0.61272494  1  1.528395  0  0.232657  0.67483  0  4.135165  0
N  N96  1  0.18916707  0.50505744  0.09595297  1  -1.246017  0  -0.416035  -0.437523  0  3.553638  0
N  N97  1  0.94729536  0.46936633  0.91206940  1  -1.235853  0  -0.393686  -0.37804  0  3.543029  0
N  N98  1  0.68512646  0.59091665  0.49499239  1  -1.23135  0  -0.415909  -0.435745  0  3.553622  0
N  N99  1  0.47748529  0.44253879  0.53050788  1  -1.238593  0  -0.393341  -0.377508  0  3.543215  0
N  N100  1  0.09403758  0.90405930  0.40903294  1  -1.233189  0  -0.415979  -0.437153  0  3.553512  0
N  N101  1  0.03539580  0.08801259  0.55743213  1  -1.227064  0  -0.393287  -0.378391  0  3.544784  0
O  O102  1  0.20199829  0.34459615  0.74881284  1  -1.244698  0  -0.362055  -0.651835  0  2.146352  0
O  O103  1  0.42148055  0.34439372  0.69922921  1  -1.299613  0  -0.406055  -0.771153  0  2.418966  0
O  O104  1  0.80113125  0.37900333  0.73651564  1  -1.311786  0  -0.448625  -0.779698  0  2.305452  0
O  O105  1  0.57652127  0.59172187  0.25407306  1  -1.245816  0  -0.355564  -0.645459  0  2.161992  0
O  O106  1  0.84303884  0.64441645  0.30040070  1  -1.309805  0  -0.403881  -0.768881  0  2.414038  0
O  O107  1  0.18780640  0.63576858  0.26296122  1  -1.310483  0  -0.448027  -0.772541  0  2.299684  0
O  O108  1  0.27913256  0.47216934  0.01850445  1  -1.130593  0  -0.314272  -0.495073  0  2.033692  0
O  O109  1  0.75808123  0.49876160  0.97663264  1  -1.13507  0  -0.294655  -0.476128  0  2.076828  0
O  O110  1  0.85716392  0.40422659  0.65543816  1  -1.244477  0  -0.361721  -0.651709  0  2.14551  0
O  O111  1  0.07691725  0.35483657  0.65568079  1  -1.297168  0  -0.405902  -0.770827  0  2.418264  0
O  O112  1  0.42176197  0.35749686  0.62106895  1  -1.315904  0  -0.448318  -0.780083  0  2.304175  0
O  O113  1  0.98491532  0.66229582  0.40828099  1  -1.247479  0  -0.355507  -0.645454  0  2.161966  0
O  O114  1  0.19863269  0.65595987  0.35559484  1  -1.297337  0  -0.403404  -0.76871  0  2.414047  0
O  O115  1  0.55211824  0.62720631  0.36424170  1  -1.304039  0  -0.448058  -0.772917  0  2.298556  0
O  O116  1  0.80676649  0.54636570  0.52811028  1  -1.138646  0  -0.313834  -0.49422  0  2.034985  0
O  O117  1  0.25948449  0.47790329  0.50112204  1  -1.136976  0  -0.294402  -0.476151  0  2.07657  0
O  O118  1  0.45287015  0.25124668  0.59593073  1  -1.245137  0  -0.362204  -0.652315  0  2.144651  0
O  O119  1  0.72215989  0.30084920  0.64526437  1  -1.307709  0  -0.40586  -0.771415  0  2.418763  0
O  O120  1  0.06443909  0.26357464  0.64264550  1  -1.317816  0  -0.448474  -0.779853  0  2.304375  0
O  O121  1  0.32246715  0.74596452  0.33762046  1  -1.243366  0  -0.355785  -0.645571  0  2.163557  0
O  O122  1  0.54266179  0.69962253  0.34400422  1  -1.297086  0  -0.403561  -0.768596  0  2.413966  0
O  O123  1  0.92493274  0.73702583  0.37276309  1  -1.301756  0  -0.448316  -0.773024  0  2.299207  0
O  O124  1  0.26136591  0.98155362  0.45358583  1  -1.135424  0  -0.314032  -0.494376  0  2.032762  0
O  O125  1  0.78219505  0.02325319  0.52185227  1  -1.130801  0  -0.294514  -0.475906  0  2.077453  0
