# generated using pymatgen
data_ZnH12C17N12O
_symmetry_space_group_name_H-M   'P 1'
_cell_length_a   7.68166009
_cell_length_b   11.05712767
_cell_length_c   12.03855565
_cell_angle_alpha   114.92753043
_cell_angle_beta   89.99997192
_cell_angle_gamma   89.99988487
_symmetry_Int_Tables_number   1
_chemical_formula_structural   ZnH12C17N12O
_chemical_formula_sum   'Zn2 H24 C34 N24 O2'
_cell_volume   927.26364032
_cell_formula_units_Z   2
loop_
 _symmetry_equiv_pos_site_id
 _symmetry_equiv_pos_as_xyz
  1  'x, y, z'
loop_
 _atom_site_type_symbol
 _atom_site_label
 _atom_site_symmetry_multiplicity
 _atom_site_fract_x
 _atom_site_fract_y
 _atom_site_fract_z
 _atom_site_occupancy
 _atom_site_hle17_bader_spin_density
 _atom_site_hle17_ddec_charge
 _atom_site_hle17_ddec_spin_density
 _atom_site_hle17_ddec_sum_bond_order
 _atom_site_hle17_magmom
 _atom_site_hse06_10hf_bader_spin_density
 _atom_site_hse06_10hf_ddec_charge
 _atom_site_hse06_10hf_ddec_spin_density
 _atom_site_hse06_10hf_ddec_sum_bond_order
 _atom_site_hse06_10hf_magmom
 _atom_site_hse06_bader_spin_density
 _atom_site_hse06_ddec_charge
 _atom_site_hse06_ddec_spin_density
 _atom_site_hse06_ddec_sum_bond_order
 _atom_site_hse06_magmom
 _atom_site_pbe_bader_spin_density
 _atom_site_pbe_cm5_charge
 _atom_site_pbe_ddec_charge
 _atom_site_pbe_ddec_spin_density
 _atom_site_pbe_ddec_sum_bond_order
 _atom_site_pbe_magmom
Zn  Zn0  1  0.65489493  0.85521758  0.09122480  1  0  0.867057  0  2.047452  0  0  0.669983  0  2.496954  0  0  0.711486  0  2.455783  0  0  0.719008  0.641903  0  2.524656  0
Zn  Zn1  1  0.15489435  0.14478246  0.90877723  1  0  0.866985  0  2.04752  0  0  0.669916  0  2.497032  0  0  0.711413  0  2.455868  0  0  0.718976  0.641831  0  2.524734  0
H  H2  1  0.40773963  0.10650804  0.52629064  1  0  0.104675  0  0.977717  0  0  0.113754  0  1.037651  0  0  0.115727  0  1.039473  0  0  0.105338  0.112309  0  1.036604  0
H  H3  1  0.90774502  0.89349253  0.47371151  1  0  0.10467  0  0.977708  0  0  0.113745  0  1.037665  0  0  0.115721  0  1.039476  0  0  0.105365  0.1123  0  1.03662  0
H  H4  1  0.43212770  0.91740290  0.58820147  1  0  0.100738  0  0.97124  0  0  0.098444  0  1.05191  0  0  0.102658  0  1.047345  0  0  0.103546  0.095283  0  1.055296  0
H  H5  1  0.93213287  0.08259862  0.41180271  1  0  0.100723  0  0.971276  0  0  0.098439  0  1.05192  0  0  0.102652  0  1.047361  0  0  0.103544  0.09528  0  1.055311  0
H  H6  1  0.57669316  0.70567037  0.44398991  1  0  0.1141  0  0.932764  0  0  0.125706  0  0.986532  0  0  0.128534  0  0.986507  0  0  0.114866  0.123641  0  0.986642  0
H  H7  1  0.07669893  0.29432982  0.55601470  1  0  0.114066  0  0.932881  0  0  0.125708  0  0.986586  0  0  0.12854  0  0.986562  0  0  0.114856  0.123659  0  0.986682  0
H  H8  1  0.69716852  0.69349659  0.24609700  1  0  0.087583  0  0.949173  0  0  0.08626  0  1.029207  0  0  0.089662  0  1.025711  0  0  0.116959  0.083694  0  1.03185  0
H  H9  1  0.19716889  0.30650338  0.75390748  1  0  0.087557  0  0.949236  0  0  0.086307  0  1.029201  0  0  0.089709  0  1.025703  0  0  0.11697  0.08374  0  1.031844  0
H  H10  1  0.29742705  0.45592165  0.49321115  1  0  0.116663  0  0.942904  0  0  0.125438  0  1.002295  0  0  0.128872  0  1.001297  0  0  0.109625  0.122913  0  1.003109  0
H  H11  1  0.79742561  0.54407912  0.50678863  1  0  0.116645  0  0.942912  0  0  0.125424  0  1.0023  0  0  0.128861  0  1.001295  0  0  0.109622  0.122897  0  1.003115  0
H  H12  1  0.32464353  0.59544026  0.72091168  1  0  0.103688  0  0.930184  0  0  0.113336  0  0.98775  0  0  0.116103  0  0.986183  0  0  0.107841  0.111383  0  0.988712  0
H  H13  1  0.82463877  0.40456245  0.27908884  1  0  0.103695  0  0.930195  0  0  0.113343  0  0.987767  0  0  0.116106  0  0.986204  0  0  0.107863  0.111395  0  0.98873  0
H  H14  1  0.55324130  0.53430759  0.83619709  1  0  0.111688  0  0.9579  0  0  0.115581  0  1.026009  0  0  0.118762  0  1.025442  0  0  0.106052  0.113294  0  1.02661  0
H  H15  1  0.05323906  0.46569363  0.16380294  1  0  0.111681  0  0.957876  0  0  0.115579  0  1.025981  0  0  0.118757  0  1.025413  0  0  0.106062  0.113275  0  1.026604  0
H  H16  1  0.74648892  0.33774320  0.72071268  1  0  0.06734  0  0.954595  0  0  0.073057  0  1.022855  0  0  0.07507  0  1.022332  0  0  0.106143  0.071711  0  1.023076  0
H  H17  1  0.24648862  0.66225467  0.27928683  1  0  0.0674  0  0.954553  0  0  0.073113  0  1.022816  0  0  0.075126  0  1.022294  0  0  0.106173  0.071769  0  1.02304  0
H  H18  1  0.16976826  0.69630163  0.05817009  1  0  0.077753  0  0.961475  0  0  0.092645  0  1.030937  0  0  0.092417  0  1.032679  0  0  0.095418  0.092758  0  1.02975  0
H  H19  1  0.66976589  0.30369637  0.94182368  1  0  0.077693  0  0.961487  0  0  0.092592  0  1.030961  0  0  0.092361  0  1.032707  0  0  0.095409  0.092706  0  1.029775  0
H  H20  1  0.22923438  0.83881577  0.03269835  1  0  0.071849  0  0.961097  0  0  0.08809  0  1.029075  0  0  0.087652  0  1.030922  0  0  0.087862  0.088324  0  1.027865  0
H  H21  1  0.72923239  0.16118211  0.96729453  1  0  0.071858  0  0.961067  0  0  0.088121  0  1.029006  0  0  0.087684  0  1.030851  0  0  0.087891  0.08836  0  1.027803  0
H  H22  1  0.25713193  0.84145897  0.18089810  1  0  0.064793  0  0.936732  0  0  0.082645  0  1.002204  0  0  0.083472  0  1.001729  0  0  0.084978  0.082023  0  1.002563  0
H  H23  1  0.75712877  0.15853886  0.81909558  1  0  0.064766  0  0.936889  0  0  0.082629  0  1.002355  0  0  0.083453  0  1.001885  0  0  0.084975  0.082009  0  1.002706  0
H  H24  1  0.44493543  0.63949107  0.05615630  1  0  0.324478  0  0.979935  0  0  0.283433  0  1.079252  0  0  0.294174  0  1.068481  0  0  0.289875  0.276074  0  1.08654  0
H  H25  1  0.94493158  0.36050741  0.94383923  1  0  0.324509  0  0.979945  0  0  0.283465  0  1.079249  0  0  0.294206  0  1.068479  0  0  0.289883  0.276106  0  1.086538  0
C  C26  1  0.47132220  0.01804768  0.97929902  1  0  0.232632  0  3.816763  0  0  0.205057  0  4.086886  0  0  0.214465  0  4.103402  0  0  0.210125  0.199044  0  4.075613  0
C  C27  1  0.97132117  0.98195177  0.02070103  1  0  0.232656  0  3.816651  0  0  0.205094  0  4.08677  0  0  0.214502  0  4.103288  0  0  0.210132  0.199087  0  4.075493  0
C  C28  1  0.40843593  0.33221846  0.10903408  1  0  0.229932  0  3.789117  0  0  0.20598  0  4.063196  0  0  0.213201  0  4.080688  0  0  0.215685  0.201013  0  4.05171  0
C  C29  1  0.90843905  0.66778110  0.89096436  1  0  0.229921  0  3.789011  0  0  0.20588  0  4.063193  0  0  0.213101  0  4.080686  0  0  0.215674  0.200915  0  4.051703  0
C  C30  1  0.46672574  0.10564409  0.11037781  1  0  0.119284  0  3.723612  0  0  0.106008  0  3.977978  0  0  0.11079  0  3.993265  0  0  0.138157  0.102236  0  3.968013  0
C  C31  1  0.96672560  0.89435536  0.88962307  1  0  0.119296  0  3.723665  0  0  0.106034  0  3.978042  0  0  0.11081  0  3.993333  0  0  0.138162  0.102258  0  3.968075  0
C  C32  1  0.43859488  0.24486301  0.17078128  1  0  0.134604  0  3.731208  0  0  0.12719  0  3.991069  0  0  0.132072  0  4.004648  0  0  0.147114  0.123559  0  3.982235  0
C  C33  1  0.93859388  0.75513749  0.82921835  1  0  0.134556  0  3.731327  0  0  0.127138  0  3.991237  0  0  0.132018  0  4.004819  0  0  0.147101  0.123505  0  3.982399  0
C  C34  1  0.48701664  0.23811588  0.35960299  1  0  0.141779  0  3.686617  0  0  0.133023  0  3.942808  0  0  0.138028  0  3.957458  0  0  0.145847  0.129507  0  3.932745  0
C  C35  1  0.98701707  0.76188453  0.64039742  1  0  0.141642  0  3.686785  0  0  0.132966  0  3.94286  0  0  0.13797  0  3.957512  0  0  0.145842  0.129443  0  3.932793  0
C  C36  1  0.51138139  0.09761247  0.30049237  1  0  0.138811  0  3.656341  0  0  0.122816  0  3.911185  0  0  0.128765  0  3.92593  0  0  0.144233  0.118934  0  3.901041  0
C  C37  1  0.01138529  0.90238684  0.69950943  1  0  0.138906  0  3.656255  0  0  0.122915  0  3.911062  0  0  0.128861  0  3.925806  0  0  0.14428  0.119033  0  3.900914  0
C  C38  1  0.53937532  0.99961340  0.35401645  1  0  0.188999  0  3.723264  0  0  0.183308  0  3.968856  0  0  0.189324  0  3.988474  0  0  0.125969  0.179249  0  3.955718  0
C  C39  1  0.03937926  0.00038686  0.64598654  1  0  0.18908  0  3.722966  0  0  0.183377  0  3.968566  0  0  0.189392  0  3.988182  0  0  0.125918  0.17932  0  3.955425  0
C  C40  1  0.47286373  0.01463632  0.46721227  1  0  -0.125876  0  3.687935  0  0  -0.145609  0  3.931935  0  0  -0.151841  0  3.953317  0  0  -0.0751  -0.141776  0  3.917779  0
C  C41  1  0.97287011  0.98536412  0.53278898  1  0  -0.12587  0  3.687814  0  0  -0.145632  0  3.931841  0  0  -0.151864  0  3.953228  0  0  -0.075129  -0.141802  0  3.917688  0
C  C42  1  0.48558103  0.90904245  0.50129659  1  0  0.012106  0  3.684059  0  0  -0.007452  0  3.939481  0  0  -0.003219  0  3.954905  0  0  -0.060503  -0.010037  0  3.929244  0
C  C43  1  0.98558612  0.09095996  0.49870708  1  0  0.012105  0  3.683829  0  0  -0.007428  0  3.93922  0  0  -0.003197  0  3.954642  0  0  -0.060477  -0.010017  0  3.929  0
C  C44  1  0.56701415  0.79140872  0.42204591  1  0  -0.100493  0  3.70003  0  0  -0.11533  0  3.95242  0  0  -0.12145  0  3.972496  0  0  -0.073037  -0.111463  0  3.938742  0
C  C45  1  0.06702015  0.20859448  0.57796069  1  0  -0.100453  0  3.699982  0  0  -0.115316  0  3.9524  0  0  -0.121439  0  3.972477  0  0  -0.073017  -0.111466  0  3.938723  0
C  C46  1  0.63360398  0.78369874  0.31162205  1  0  0.131425  0  3.675822  0  0  0.100208  0  3.931743  0  0  0.107406  0  3.94753  0  0  0.051435  0.095498  0  3.920939  0
C  C47  1  0.13360987  0.21630135  0.68838250  1  0  0.131434  0  3.675992  0  0  0.100117  0  3.931949  0  0  0.107313  0  3.947737  0  0  0.051409  0.095408  0  3.921148  0
C  C48  1  0.50228270  0.32169051  0.49292530  1  0  0.157552  0  3.814644  0  0  0.161194  0  4.057553  0  0  0.164952  0  4.07895  0  0  0.11155  0.158781  0  4.042711  0
C  C49  1  0.00227958  0.67830982  0.50707523  1  0  0.157635  0  3.814669  0  0  0.161243  0  4.057575  0  0  0.165001  0  4.078975  0  0  0.111571  0.158835  0  4.042724  0
C  C50  1  0.39278405  0.43277047  0.54844974  1  0  -0.142648  0  3.703618  0  0  -0.161143  0  3.94558  0  0  -0.167023  0  3.966497  0  0  -0.078781  -0.156441  0  3.93079  0
C  C51  1  0.89278129  0.56723211  0.45154987  1  0  -0.142676  0  3.703673  0  0  -0.16117  0  3.945646  0  0  -0.167049  0  3.966563  0  0  -0.078798  -0.156468  0  3.930854  0
C  C52  1  0.40942353  0.51004389  0.67390915  1  0  -0.00167  0  3.721021  0  0  -0.01955  0  3.973451  0  0  -0.017633  0  3.992199  0  0  -0.064425  -0.020456  0  3.960112  0
C  C53  1  0.90942108  0.48995766  0.32609006  1  0  -0.001685  0  3.720995  0  0  -0.019571  0  3.97344  0  0  -0.01765  0  3.992179  0  0  -0.064447  -0.020479  0  3.960104  0
C  C54  1  0.53682961  0.47586083  0.73816601  1  0  -0.098388  0  3.695855  0  0  -0.115704  0  3.951652  0  0  -0.121276  0  3.973229  0  0  -0.079644  -0.112771  0  3.937643  0
C  C55  1  0.03682582  0.52413942  0.26183365  1  0  -0.098331  0  3.695757  0  0  -0.115645  0  3.951546  0  0  -0.12121  0  3.973114  0  0  -0.079617  -0.112698  0  3.937553  0
C  C56  1  0.64251918  0.36527777  0.67401792  1  0  0.11838  0  3.73838  0  0  0.095213  0  3.996202  0  0  0.099915  0  4.014346  0  0  0.040202  0.092129  0  3.984214  0
C  C57  1  0.14251633  0.63472129  0.32598041  1  0  0.118249  0  3.738256  0  0  0.095086  0  3.996077  0  0  0.099787  0  4.014221  0  0  0.040131  0.092001  0  3.984092  0
C  C58  1  0.26381161  0.77804941  0.08158515  1  0  -0.016247  0  3.650675  0  0  -0.109769  0  3.919418  0  0  -0.103002  0  3.923483  0  0  -0.161105  -0.11415  0  3.916252  0
C  C59  1  0.76380818  0.22194742  0.91840730  1  0  -0.016138  0  3.650704  0  0  -0.109686  0  3.919467  0  0  -0.102917  0  3.923531  0  0  -0.161132  -0.11408  0  3.916305  0
N  N60  1  0.56919691  0.90656471  0.93884869  1  0  -0.312203  0  3.150975  0  0  -0.258506  0  3.442042  0  0  -0.273755  0  3.457131  0  0  -0.224163  -0.248066  0  3.4316  0
N  N61  1  0.06919322  0.09343549  0.06115094  1  0  -0.31211  0  3.151027  0  0  -0.258428  0  3.442107  0  0  -0.273678  0  3.457202  0  0  -0.224138  -0.247987  0  3.431663  0
N  N62  1  0.54126689  0.84355608  0.81761271  1  0  -0.064194  0  2.913556  0  0  -0.062471  0  3.211337  0  0  -0.061562  0  3.223455  0  0  -0.092302  -0.062785  0  3.202704  0
N  N63  1  0.04126552  0.15644416  0.18238611  1  0  -0.064312  0  2.913694  0  0  -0.062593  0  3.211491  0  0  -0.061683  0  3.223609  0  0  -0.09235  -0.062906  0  3.202863  0
N  N64  1  0.42848779  0.91306518  0.78538817  1  0  -0.079394  0  2.927035  0  0  -0.07094  0  3.224808  0  0  -0.071632  0  3.236508  0  0  -0.091789  -0.07042  0  3.216898  0
N  N65  1  0.92848790  0.08693634  0.21461269  1  0  -0.079292  0  2.926967  0  0  -0.070824  0  3.224729  0  0  -0.071517  0  3.236428  0  0  -0.091766  -0.070304  0  3.216825  0
N  N66  1  0.38254975  0.02334891  0.88539142  1  0  -0.317827  0  3.193462  0  0  -0.261458  0  3.486824  0  0  -0.277059  0  3.5013  0  0  -0.231754  -0.251375  0  3.477238  0
N  N67  1  0.88254996  0.97665071  0.11460955  1  0  -0.317881  0  3.193419  0  0  -0.261534  0  3.486818  0  0  -0.277136  0  3.501291  0  0  -0.231751  -0.251453  0  3.477236  0
N  N68  1  0.31139969  0.30391880  0.00719756  1  0  -0.30843  0  3.248968  0  0  -0.242731  0  3.545549  0  0  -0.258338  0  3.558404  0  0  -0.234299  -0.232069  0  3.536756  0
N  N69  1  0.81140135  0.69608194  0.99280470  1  0  -0.30839  0  3.248865  0  0  -0.242623  0  3.545416  0  0  -0.258232  0  3.558272  0  0  -0.234249  -0.231961  0  3.536627  0
N  N70  1  0.32157405  0.41018566  0.98157411  1  0  -0.077725  0  2.917992  0  0  -0.079449  0  3.206307  0  0  -0.077976  0  3.21814  0  0  -0.096255  -0.080178  0  3.198281  0
N  N71  1  0.82157676  0.58981507  0.01842731  1  0  -0.077697  0  2.91797  0  0  -0.07943  0  3.206274  0  0  -0.077959  0  3.218107  0  0  -0.096249  -0.080164  0  3.198254  0
N  N72  1  0.42318512  0.49860690  0.06531606  1  0  -0.097013  0  3.143969  0  0  -0.057521  0  3.440645  0  0  -0.061925  0  3.453054  0  0  -0.083983  -0.054259  0  3.432039  0
N  N73  1  0.92318608  0.50139264  0.93468320  1  0  -0.09711  0  3.143998  0  0  -0.057628  0  3.440681  0  0  -0.062028  0  3.453083  0  0  -0.083993  -0.054366  0  3.432074  0
N  N74  1  0.47898559  0.45453612  0.14692241  1  0  -0.267332  0  2.90235  0  0  -0.261594  0  3.189908  0  0  -0.269171  0  3.202547  0  0  -0.207563  -0.25659  0  3.181296  0
N  N75  1  0.97898389  0.54546231  0.85307557  1  0  -0.267266  0  2.902366  0  0  -0.261497  0  3.189961  0  0  -0.269077  0  3.2026  0  0  -0.207564  -0.256494  0  3.181345  0
N  N76  1  0.50336633  0.03903817  0.17824392  1  0  -0.318718  0  3.297214  0  0  -0.259563  0  3.560405  0  0  -0.27229  0  3.57541  0  0  -0.302006  -0.250914  0  3.550086  0
N  N77  1  0.00336996  0.96096215  0.82175744  1  0  -0.318804  0  3.297264  0  0  -0.25969  0  3.560499  0  0  -0.272407  0  3.575496  0  0  -0.302047  -0.251036  0  3.550162  0
N  N78  1  0.45163620  0.30632224  0.29298462  1  0  -0.278918  0  3.031411  0  0  -0.261046  0  3.30133  0  0  -0.266792  0  3.311875  0  0  -0.275677  -0.256613  0  3.294234  0
N  N79  1  0.95163417  0.69367823  0.70701499  1  0  -0.278857  0  3.031501  0  0  -0.26099  0  3.301381  0  0  -0.266733  0  3.311925  0  0  -0.275682  -0.256557  0  3.294282  0
N  N80  1  0.61908485  0.88491193  0.27810392  1  0  -0.341524  0  3.241088  0  0  -0.266753  0  3.497595  0  0  -0.283691  0  3.513231  0  0  -0.318774  -0.255346  0  3.486979  0
N  N81  1  0.11908970  0.11508619  0.72189738  1  0  -0.341589  0  3.241155  0  0  -0.266794  0  3.497691  0  0  -0.283731  0  3.513325  0  0  -0.318779  -0.255391  0  3.487074  0
N  N82  1  0.62581201  0.28803564  0.55404716  1  0  -0.346575  0  3.091388  0  0  -0.311477  0  3.349378  0  0  -0.323233  0  3.366928  0  0  -0.317752  -0.303527  0  3.3374  0
N  N83  1  0.12581015  0.71196245  0.44595164  1  0  -0.346542  0  3.091304  0  0  -0.311439  0  3.349293  0  0  -0.323196  0  3.366844  0  0  -0.317741  -0.303488  0  3.337313  0
O  O84  1  0.43414207  0.72511992  0.04349768  1  0  -0.522703  0  2.281406  0  0  -0.440288  0  2.548246  0  0  -0.460618  0  2.537856  0  0  -0.408899  -0.425996  0  2.554654  0
O  O85  1  0.93413976  0.27487658  0.95649460  1  0  -0.522754  0  2.281275  0  0  -0.440331  0  2.548116  0  0  -0.460659  0  2.537724  0  0  -0.408901  -0.42604  0  2.55453  0
