# generated using pymatgen
data_CoH10C10(NO)4
_symmetry_space_group_name_H-M   'P 1'
_cell_length_a   7.37598581
_cell_length_b   12.47747900
_cell_length_c   13.41960000
_cell_angle_alpha   90.00000000
_cell_angle_beta   90.00000000
_cell_angle_gamma   100.03677828
_symmetry_Int_Tables_number   1
_chemical_formula_structural   CoH10C10(NO)4
_chemical_formula_sum   'Co4 H40 C40 N16 O16'
_cell_volume   1216.15436452
_cell_formula_units_Z   4
loop_
 _symmetry_equiv_pos_site_id
 _symmetry_equiv_pos_as_xyz
  1  'x, y, z'
loop_
 _atom_site_type_symbol
 _atom_site_label
 _atom_site_symmetry_multiplicity
 _atom_site_fract_x
 _atom_site_fract_y
 _atom_site_fract_z
 _atom_site_occupancy
 _atom_site_hle17_ddec_charge
 _atom_site_hle17_ddec_spin_density
 _atom_site_hle17_ddec_sum_bond_order
 _atom_site_hle17_magmom
 _atom_site_hse06_10hf_ddec_charge
 _atom_site_hse06_10hf_ddec_spin_density
 _atom_site_hse06_10hf_ddec_sum_bond_order
 _atom_site_hse06_10hf_magmom
 _atom_site_hse06_ddec_charge
 _atom_site_hse06_ddec_spin_density
 _atom_site_hse06_ddec_sum_bond_order
 _atom_site_hse06_magmom
 _atom_site_pbe_bader_charge
 _atom_site_pbe_bader_spin_density
 _atom_site_pbe_cm5_charge
 _atom_site_pbe_ddec_charge
 _atom_site_pbe_ddec_spin_density
 _atom_site_pbe_ddec_sum_bond_order
 _atom_site_pbe_magmom
Co  Co0  1  0.21837272  0.15323617  0.07291350  1  0.962594  2.819439  2.050829  2.531  0.902852  2.819801  2.507736  2.581  0.993171  2.865424  2.420944  2.67  1.20429  2.561077  0.687465  0.831702  2.775499  2.572818  2.498
Co  Co1  1  0.28162683  0.84676426  0.57291424  1  0.962656  2.819434  2.05075  2.531  0.90294  2.819806  2.507654  2.581  0.993234  2.865423  2.420861  2.67  1.204301  2.56108  0.687505  0.831764  2.775497  2.572745  2.498
Co  Co2  1  0.78162915  0.84676426  0.92708650  1  0.962637  2.819438  2.050821  2.531  0.902862  2.819791  2.507744  2.581  0.993196  2.86542  2.420947  2.67  1.204306  2.561077  0.687466  0.831725  2.775498  2.572833  2.498
Co  Co3  1  0.71837209  0.15323536  0.42708650  1  0.962584  2.819436  2.050857  2.531  0.90288  2.819808  2.507745  2.581  0.993189  2.865427  2.420942  2.67  1.204306  2.561081  0.687452  0.831708  2.775502  2.572831  2.498
H  H4  1  0.65863819  0.55808784  0.12102894  1  0.114984  -9e-05  0.945411  0.0  0.133724  -6.6e-05  1.009098  0.0  0.135366  -6.5e-05  1.00766  0.0  0.079779  5e-05  0.109722  0.13242  -6e-05  1.010222  0.0
H  H5  1  0.84136194  0.44191259  0.62102969  1  0.114989  -9.1e-05  0.945399  0.0  0.133732  -6.6e-05  1.009086  0.0  0.135374  -6.5e-05  1.007647  0.0  0.079794  5e-05  0.109713  0.132427  -6e-05  1.01021  0.0
H  H6  1  0.34136233  0.44191259  0.87897180  1  0.114991  -9.1e-05  0.945381  0.0  0.133736  -6.6e-05  1.00907  0.0  0.135378  -6.5e-05  1.007631  0.0  0.079769  5e-05  0.109721  0.132432  -6e-05  1.010194  0.0
H  H7  1  0.15863858  0.55808784  0.37897180  1  0.114987  -9.1e-05  0.945409  0.0  0.133726  -6.6e-05  1.009098  0.0  0.135367  -6.5e-05  1.00766  0.0  0.079764  5e-05  0.109724  0.13242  -6e-05  1.010223  0.0
H  H8  1  0.87196710  0.52647760  0.07862678  1  0.120215  0.000108  0.932413  0.0  0.1383  8.9e-05  0.995373  0.0  0.139872  5.4e-05  0.994085  0.0  0.093174  0.000385  0.110535  0.137074  0.000134  0.996369  0.0
H  H9  1  0.62803302  0.47352283  0.57862753  1  0.120211  0.000109  0.932425  0.0  0.138296  8.9e-05  0.995386  0.0  0.139866  5.4e-05  0.994099  0.0  0.093223  0.000385  0.11054  0.13707  0.000134  0.996381  0.0
H  H10  1  0.12803501  0.47352365  0.92137396  1  0.120215  0.000107  0.932419  0.0  0.138308  9e-05  0.995373  0.0  0.139879  5.4e-05  0.994084  0.0  0.093206  0.000385  0.110536  0.137083  0.000134  0.996368  0.0
H  H11  1  0.37196749  0.52647760  0.42137322  1  0.12021  0.000109  0.932414  0.0  0.138296  9e-05  0.995376  0.0  0.139866  5.4e-05  0.994088  0.0  0.093171  0.000385  0.110533  0.137068  0.000134  0.996371  0.0
H  H12  1  0.81781886  0.51840859  0.20831768  1  0.105675  -5.6e-05  0.925479  0.0  0.127635  -4e-06  0.986302  0.0  0.128503  -8e-06  0.985641  0.0  0.072313  7.1e-05  0.108781  0.126833  -1e-06  0.98697  0.0
H  H13  1  0.68218127  0.48159184  0.70831917  1  0.105692  -5.5e-05  0.925458  0.0  0.127656  -4e-06  0.986287  0.0  0.128525  -9e-06  0.985623  0.0  0.072261  7.1e-05  0.108792  0.126853  -1e-06  0.986956  0.0
H  H14  1  0.18218278  0.48159102  0.79168232  1  0.105706  -5.9e-05  0.925461  0.0  0.12767  -4e-06  0.986282  0.0  0.128538  -8e-06  0.985621  0.0  0.072288  7.1e-05  0.108797  0.126868  -1e-06  0.98695  0.0
H  H15  1  0.31781925  0.51840859  0.29168157  1  0.105665  -5.5e-05  0.925482  0.0  0.127625  -4e-06  0.986308  0.0  0.128493  -8e-06  0.985647  0.0  0.072277  7.1e-05  0.108774  0.126822  -1e-06  0.986977  0.0
H  H16  1  0.38509116  0.41000447  0.11562565  1  0.111174  6.2e-05  0.947564  0.001  0.117071  0.000178  1.014108  0.0  0.121038  0.000126  1.008717  0.0  0.185344  0.000836  0.136534  0.114033  0.000225  1.01825  0.001
H  H17  1  0.11490839  0.58999596  0.61562640  1  0.11119  6.2e-05  0.947563  0.001  0.117088  0.000178  1.014103  0.0  0.121055  0.000126  1.008712  0.0  0.185353  0.000836  0.13654  0.114049  0.000225  1.018248  0.001
H  H18  1  0.61491095  0.58999678  0.88437286  1  0.111179  6.1e-05  0.94758  0.001  0.117079  0.000178  1.014115  0.0  0.121046  0.000126  1.008725  0.0  0.185337  0.000837  0.13654  0.114042  0.000225  1.018258  0.001
H  H19  1  0.88509077  0.41000447  0.38437435  1  0.111174  6.2e-05  0.947558  0.001  0.117071  0.000178  1.014101  0.0  0.121038  0.000126  1.008711  0.0  0.185341  0.000837  0.13653  0.114032  0.000225  1.018246  0.001
H  H20  1  0.62438295  0.12835118  0.09604012  1  0.111039  0.000319  0.953349  0.001  0.119119  0.000407  1.017719  0.001  0.121995  0.000255  1.015141  0.001  0.114425  0.001648  0.123798  0.116956  0.000566  1.019778  0.001
H  H21  1  0.87561606  0.87165006  0.59604087  1  0.11108  0.00032  0.953324  0.001  0.119155  0.000407  1.017706  0.001  0.122029  0.000255  1.015132  0.001  0.114413  0.001648  0.123814  0.117  0.000566  1.019742  0.001
H  H22  1  0.37561893  0.87164924  0.90395764  1  0.111069  0.00032  0.953294  0.001  0.119151  0.000407  1.017662  0.001  0.122028  0.000255  1.015083  0.001  0.114429  0.001647  0.123825  0.116986  0.000566  1.019726  0.001
H  H23  1  0.12438310  0.12835037  0.40395988  1  0.111072  0.00032  0.953321  0.001  0.119148  0.000407  1.017702  0.001  0.122018  0.000255  1.015139  0.001  0.114411  0.001648  0.123814  0.116993  0.000566  1.019738  0.001
H  H24  1  0.11948006  0.68097938  0.22383156  1  0.116232  9.5e-05  0.946898  0.0  0.135425  8.3e-05  1.009296  0.0  0.136993  4.6e-05  1.008092  0.0  0.104343  0.000358  0.111722  0.134202  0.000128  1.010251  0.0
H  H25  1  0.38051925  0.31902023  0.72383156  1  0.116228  9.3e-05  0.946866  0.0  0.135413  8.3e-05  1.009281  0.0  0.13698  4.6e-05  1.008079  0.0  0.104353  0.000358  0.111716  0.134191  0.000128  1.010236  0.0
H  H26  1  0.88051910  0.31902105  0.77616919  1  0.11624  9.5e-05  0.946866  0.0  0.135424  8.3e-05  1.009271  0.0  0.136991  4.6e-05  1.008069  0.0  0.104354  0.000358  0.111723  0.134202  0.000128  1.010226  0.0
H  H27  1  0.61947967  0.68097938  0.27616844  1  0.116241  9.4e-05  0.946873  0.0  0.135433  8.3e-05  1.009281  0.0  0.137001  4.6e-05  1.008077  0.0  0.104337  0.000358  0.111728  0.134211  0.000128  1.010236  0.0
H  H28  1  0.32838493  0.70276260  0.15404259  1  0.106811  -5.7e-05  0.918824  0.0  0.129438  -0.0  0.97634  0.0  0.130043  -1.5e-05  0.976163  0.0  0.067347  0.000175  0.108117  0.128946  1.9e-05  0.976502  0.0
H  H29  1  0.17161439  0.29723702  0.65404259  1  0.106803  -6.2e-05  0.918827  0.0  0.129445  -0.0  0.976333  0.0  0.130051  -1.5e-05  0.976154  0.0  0.067322  0.000175  0.108116  0.128952  1.9e-05  0.976495  0.0
H  H30  1  0.67161535  0.29723702  0.84595815  1  0.106802  -6e-05  0.918826  0.0  0.129426  -0.0  0.976344  0.0  0.130031  -1.5e-05  0.976167  0.0  0.067334  0.000175  0.108111  0.128935  1.9e-05  0.976506  0.0
H  H31  1  0.82838453  0.70276260  0.34595815  1  0.106807  -6.1e-05  0.918822  0.0  0.129438  -1e-06  0.976342  0.0  0.130042  -1.5e-05  0.976167  0.0  0.067349  0.000175  0.108119  0.128946  1.9e-05  0.976504  0.0
H  H32  1  0.11323045  0.70804806  0.09294241  1  0.11254  -0.000142  0.947625  0.0  0.131251  -9e-05  1.012245  0.0  0.131385  -9e-05  1.013462  0.0  0.090197  6.6e-05  0.112429  0.131073  -8.4e-05  1.011454  0.0
H  H33  1  0.38676886  0.29195156  0.59294241  1  0.112446  -0.000146  0.947723  0.0  0.131172  -9e-05  1.012337  0.0  0.131306  -9e-05  1.013549  0.0  0.090214  6.6e-05  0.112393  0.130993  -8.4e-05  1.01155  0.0
H  H34  1  0.88676847  0.29195156  0.90705833  1  0.112443  -0.000145  0.94773  0.0  0.131167  -9e-05  1.012342  0.0  0.1313  -9e-05  1.013555  0.0  0.090205  6.6e-05  0.112391  0.130989  -8.4e-05  1.011554  0.0
H  H35  1  0.61323006  0.70804806  0.40705759  1  0.112491  -0.000146  0.94769  0.0  0.131247  -9e-05  1.012257  0.0  0.131384  -9e-05  1.013473  0.0  0.090195  6.6e-05  0.112423  0.131069  -8.4e-05  1.011467  0.0
H  H36  1  0.16657245  0.89811238  0.03280426  1  0.107395  -0.000406  0.960467  0.001  0.111804  -0.000264  1.032957  0.0  0.115099  -0.00034  1.02857  0.0  0.188526  0.000652  0.13873  0.109286  -0.00015  1.036301  0.001
H  H37  1  0.33342686  0.10188723  0.53280500  1  0.107423  -0.000407  0.960464  0.001  0.111846  -0.000264  1.032932  0.0  0.115141  -0.000339  1.028547  0.0  0.188539  0.000652  0.138743  0.109324  -0.00015  1.036282  0.001
H  H38  1  0.83342671  0.10188805  0.96719500  1  0.107405  -0.000405  0.960466  0.001  0.111817  -0.000264  1.032953  0.0  0.115113  -0.00034  1.028567  0.0  0.188532  0.000652  0.138743  0.1093  -0.00015  1.036297  0.001
H  H39  1  0.66657341  0.89811238  0.46719574  1  0.107402  -0.000406  0.960469  0.001  0.111817  -0.000264  1.032953  0.0  0.115112  -0.00034  1.028567  0.0  0.188528  0.000652  0.138734  0.109296  -0.00015  1.036302  0.001
H  H40  1  0.30872950  0.07569024  0.29789785  1  0.116171  4.2e-05  0.97926  0.001  0.121803  0.000129  1.047187  0.001  0.124512  -7e-06  1.045135  0.001  0.17056  0.001325  0.119972  0.119834  0.000288  1.048735  0.001
H  H41  1  0.19126982  0.92430938  0.79789860  1  0.116162  4.1e-05  0.979257  0.001  0.121776  0.000129  1.047199  0.001  0.124485  -7e-06  1.045148  0.001  0.170559  0.001325  0.119971  0.119809  0.000288  1.048743  0.001
H  H42  1  0.69127214  0.92430938  0.70210215  1  0.116149  4.1e-05  0.979205  0.001  0.121768  0.000129  1.047148  0.001  0.124476  -7e-06  1.045097  0.001  0.170566  0.001325  0.119952  0.119799  0.000288  1.048695  0.001
H  H43  1  0.80872751  0.07568943  0.20210140  1  0.116133  4e-05  0.979188  0.001  0.121769  0.000129  1.047117  0.001  0.124478  -7e-06  1.045066  0.001  0.17044  0.001326  0.119956  0.119801  0.000288  1.048662  0.001
C  C44  1  0.76089087  0.50575327  0.13293988  1  -0.162747  0.00053  3.630502  0.001  -0.270869  0.000435  3.885778  0.001  -0.266908  0.000305  3.892436  0.0  0.291036  0.001024  -0.12508  -0.273275  0.000574  3.881439  0.001
C  C45  1  0.73910789  0.49424716  0.63294062  1  -0.162748  0.000529  3.630469  0.001  -0.270886  0.000435  3.885762  0.001  -0.266925  0.000305  3.892421  0.0  0.291034  0.001024  -0.125073  -0.273294  0.000574  3.881427  0.001
C  C46  1  0.23910829  0.49424716  0.86706012  1  -0.162748  0.000535  3.630372  0.001  -0.270898  0.000435  3.885675  0.001  -0.266936  0.000305  3.892334  0.0  0.291055  0.001024  -0.125066  -0.273306  0.000574  3.881337  0.001
C  C47  1  0.26089126  0.50575327  0.36706012  1  -0.162735  0.000528  3.630496  0.001  -0.270859  0.000435  3.885774  0.001  -0.266897  0.000305  3.892434  0.0  0.291088  0.001024  -0.125075  -0.273266  0.000574  3.881437  0.001
C  C48  1  0.48947605  0.35840892  0.11317774  1  0.180874  -0.008382  3.613876  -0.004  0.11732  0.002466  3.88681  0.004  0.133329  0.001935  3.898595  0.003  0.956352  0.004146  0.155406  0.10641  0.002946  3.878642  0.004
C  C49  1  0.01052351  0.64159151  0.61317849  1  0.180825  -0.00838  3.613997  -0.004  0.117272  0.002466  3.88691  0.004  0.133281  0.001935  3.898693  0.003  0.956361  0.004145  0.15537  0.106363  0.002946  3.878743  0.004
C  C50  1  0.51052742  0.64159233  0.88682002  1  0.180897  -0.008376  3.614016  -0.004  0.11733  0.002466  3.886935  0.004  0.133339  0.001935  3.898719  0.003  0.956349  0.004145  0.155391  0.106422  0.002945  3.878769  0.004
C  C51  1  0.98947565  0.35840892  0.38682301  1  0.180871  -0.008385  3.61388  -0.004  0.117325  0.002466  3.886804  0.004  0.133334  0.001934  3.898587  0.003  0.956352  0.004145  0.155409  0.106414  0.002945  3.878637  0.004
C  C52  1  0.61671692  0.21382776  0.10393454  1  0.01591  -0.010881  3.707012  -0.007  -0.029029  0.000832  3.982098  0.001  -0.021217  0.000397  3.999167  0.001  0.386273  0.002584  0.014308  -0.034979  0.001269  3.971298  0.002
C  C53  1  0.88328320  0.78617267  0.60393603  1  0.015822  -0.010903  3.707093  -0.007  -0.029108  0.000832  3.982189  0.001  -0.021295  0.000397  3.999255  0.001  0.386278  0.002583  0.014262  -0.035054  0.001269  3.971392  0.002
C  C54  1  0.38328519  0.78617349  0.89606248  1  0.015913  -0.010909  3.706951  -0.007  -0.029058  0.000832  3.982031  0.001  -0.021247  0.000397  3.999098  0.001  0.386118  0.002583  0.014261  -0.035003  0.001269  3.971228  0.002
C  C55  1  0.11671572  0.21382694  0.39606546  1  0.015871  -0.010895  3.707027  -0.007  -0.029074  0.000832  3.98212  0.001  -0.021262  0.000397  3.999185  0.001  0.386302  0.002583  0.014274  -0.035021  0.001269  3.971324  0.002
C  C56  1  0.75819037  0.30162231  0.11467331  1  -0.053622  0.008426  3.69744  0.012  -0.05621  0.00377  3.941057  0.005  -0.061534  0.002527  3.959856  0.004  0.360398  0.010059  0.073742  -0.052912  0.00514  3.929435  0.007
C  C57  1  0.74180975  0.69837812  0.61467555  1  -0.053587  0.008436  3.697413  0.012  -0.05623  0.00377  3.941091  0.005  -0.061555  0.002527  3.959891  0.004  0.360538  0.010059  0.073746  -0.052935  0.00514  3.929477  0.007
C  C58  1  0.24180990  0.69837730  0.88532520  1  -0.053617  0.008437  3.697489  0.012  -0.056151  0.00377  3.94105  0.005  -0.061473  0.002527  3.959848  0.004  0.360713  0.010058  0.073777  -0.052858  0.00514  3.929434  0.007
C  C59  1  0.25819077  0.30162231  0.38532669  1  -0.053594  0.00843  3.697404  0.012  -0.056181  0.00377  3.941019  0.005  -0.061503  0.002527  3.959818  0.004  0.360395  0.010059  0.073769  -0.052886  0.00514  3.929403  0.007
C  C60  1  0.95919664  0.30189334  0.11485588  1  0.629555  -0.003453  3.983465  -0.003  0.585258  0.002507  4.287668  0.003  0.622049  0.001832  4.280804  0.002  1.595082  0.00352  0.203785  0.559077  0.003056  4.291554  0.003
C  C61  1  0.54080348  0.69810709  0.61485663  1  0.629588  -0.00345  3.983405  -0.003  0.585298  0.002507  4.287622  0.003  0.622089  0.001832  4.280757  0.002  1.595081  0.00352  0.203793  0.559117  0.003056  4.291512  0.003
C  C62  1  0.04080523  0.69810709  0.88514561  1  0.629535  -0.003459  3.983575  -0.003  0.585203  0.002507  4.287803  0.003  0.621993  0.001832  4.280939  0.002  1.595059  0.00352  0.203716  0.559024  0.003056  4.291691  0.003
C  C63  1  0.45919704  0.30189334  0.38514337  1  0.629534  -0.00345  3.983512  -0.003  0.585235  0.002507  4.287721  0.003  0.622024  0.001832  4.280858  0.002  1.595058  0.00352  0.203768  0.559054  0.003056  4.29161  0.003
C  C64  1  0.19206815  0.72593921  0.16174327  1  -0.162427  0.00052  3.617099  0.001  -0.267599  0.000467  3.864283  0.001  -0.263912  0.000326  3.872755  0.0  0.244015  0.001136  -0.124284  -0.269816  0.000624  3.858536  0.001
C  C65  1  0.30792981  0.27406041  0.66174327  1  -0.162325  0.00053  3.61709  0.001  -0.267527  0.000467  3.864278  0.001  -0.263837  0.000326  3.872752  0.0  0.244025  0.001136  -0.124245  -0.269746  0.000624  3.858531  0.001
C  C66  1  0.80793077  0.27406041  0.83825673  1  -0.162338  0.000525  3.617108  0.001  -0.267511  0.000468  3.86429  0.001  -0.263821  0.000326  3.872763  0.0  0.244025  0.001136  -0.124241  -0.269732  0.000624  3.858542  0.001
C  C67  1  0.69206751  0.72593839  0.33825673  1  -0.162404  0.000528  3.617103  0.001  -0.267618  0.000467  3.864268  0.001  -0.263935  0.000326  3.872746  0.0  0.244007  0.001136  -0.124311  -0.269834  0.000624  3.85852  0.001
C  C68  1  0.20204932  0.91785271  0.10991833  1  0.181216  -0.007016  3.609745  -0.004  0.11993  0.002539  3.87813  0.003  0.135835  0.001865  3.890955  0.003  0.993643  0.00466  0.151882  0.109053  0.003201  3.869296  0.004
C  C69  1  0.29794864  0.08214691  0.60991833  1  0.18108  -0.007004  3.609756  -0.004  0.119774  0.002539  3.878173  0.003  0.135678  0.001865  3.890998  0.003  0.993647  0.00466  0.151818  0.108897  0.003201  3.86934  0.004
C  C70  1  0.79795095  0.08214691  0.89008167  1  0.181159  -0.007035  3.609803  -0.004  0.119862  0.002539  3.878201  0.003  0.135767  0.001864  3.891025  0.003  0.993665  0.004659  0.151842  0.108986  0.003201  3.869366  0.004
C  C71  1  0.70205028  0.91785271  0.39008167  1  0.181197  -0.007001  3.609739  -0.004  0.119898  0.002539  3.878136  0.003  0.135802  0.001865  3.89096  0.003  0.993654  0.00466  0.151868  0.109021  0.003201  3.869304  0.004
C  C72  1  0.26970334  0.00671305  0.24855063  1  0.02302  -0.008565  3.687816  -0.005  -0.023155  0.001481  3.964473  0.002  -0.015977  0.000752  3.982703  0.001  0.438088  0.003607  0.014937  -0.028261  0.002263  3.952276  0.003
C  C73  1  0.23029461  0.99328657  0.74855063  1  0.023005  -0.008551  3.687812  -0.005  -0.023154  0.001481  3.964481  0.002  -0.015978  0.000752  3.982711  0.001  0.438058  0.003607  0.014926  -0.028258  0.002263  3.952279  0.003
C  C74  1  0.73029829  0.99328657  0.75145012  1  0.022968  -0.008555  3.687965  -0.005  -0.023203  0.001481  3.964645  0.002  -0.016025  0.000752  3.982879  0.001  0.438064  0.003607  0.014921  -0.028308  0.002263  3.952448  0.003
C  C75  1  0.76970271  0.00671223  0.25144937  1  0.023111  -0.008532  3.687775  -0.005  -0.023063  0.001481  3.964422  0.002  -0.015886  0.000752  3.982653  0.001  0.438209  0.003607  0.014975  -0.028168  0.002263  3.952221  0.003
C  C76  1  0.25358166  0.89735301  0.27085308  1  -0.04866  0.008052  3.69926  0.011  -0.052637  0.003665  3.946416  0.005  -0.057648  0.002475  3.964781  0.003  0.315333  0.00947  0.070887  -0.049627  0.004962  3.934909  0.006
C  C77  1  0.24641606  0.10264579  0.77085234  1  -0.048669  0.008048  3.69921  0.011  -0.052654  0.003665  3.946366  0.005  -0.057665  0.002475  3.964732  0.003  0.315315  0.009469  0.07086  -0.049642  0.004962  3.934856  0.006
C  C78  1  0.74641813  0.10264497  0.72914766  1  -0.048662  0.008051  3.699302  0.011  -0.052634  0.003665  3.946452  0.005  -0.057645  0.002475  3.964819  0.003  0.315332  0.009469  0.070883  -0.049626  0.004962  3.934945  0.006
C  C79  1  0.75358127  0.89735301  0.22914766  1  -0.048701  0.00804  3.69934  0.011  -0.052688  0.003665  3.946503  0.005  -0.057698  0.002475  3.964867  0.003  0.315299  0.009469  0.070856  -0.049675  0.004962  3.934994  0.006
C  C80  1  0.26438468  0.84599268  0.36897225  1  0.611297  -0.005366  4.009023  -0.006  0.567804  0.002125  4.310318  0.001  0.604439  0.001135  4.304846  0.0  1.553916  0.003779  0.195226  0.541888  0.003183  4.312834  0.001
C  C81  1  0.23561439  0.15400612  0.86897374  1  0.611304  -0.005367  4.008998  -0.006  0.567829  0.002126  4.310273  0.001  0.604463  0.001135  4.304802  0.0  1.553973  0.003778  0.195235  0.541913  0.003183  4.312788  0.001
C  C82  1  0.73561623  0.15400449  0.63102551  1  0.611317  -0.005367  4.008972  -0.006  0.567828  0.002126  4.310264  0.001  0.604463  0.001135  4.304791  0.0  1.553984  0.003778  0.195237  0.541913  0.003183  4.312781  0.001
C  C83  1  0.76438181  0.84599350  0.13102701  1  0.611348  -0.005365  4.009021  -0.006  0.567871  0.002126  4.310291  0.001  0.604506  0.001135  4.304815  0.0  1.553967  0.003779  0.195268  0.541954  0.003183  4.312808  0.001
N  N84  1  0.67313450  0.39264642  0.12029271  1  -0.024071  0.001971  3.554139  0.004  0.073652  0.001913  3.766344  0.003  0.060076  0.001379  3.793268  0.002  -1.191458  0.005814  -0.227666  0.082512  0.002426  3.748283  0.004
N  N85  1  0.82686562  0.60735401  0.62029494  1  -0.024081  0.001965  3.554152  0.004  0.073668  0.001913  3.766363  0.003  0.060092  0.001379  3.793288  0.002  -1.191601  0.005813  -0.227656  0.08253  0.002425  3.748304  0.004
N  N86  1  0.32686872  0.60735401  0.87970580  1  -0.02413  0.001966  3.554098  0.004  0.073591  0.001913  3.766298  0.003  0.060014  0.001379  3.79322  0.002  -1.19158  0.005814  -0.227713  0.082453  0.002426  3.748239  0.004
N  N87  1  0.17313354  0.39264642  0.37970729  1  -0.024049  0.00197  3.55412  0.004  0.073676  0.001913  3.766317  0.003  0.0601  0.001379  3.793242  0.002  -1.191448  0.005814  -0.227657  0.082537  0.002426  3.748257  0.004
N  N88  1  0.45150903  0.24995839  0.10295612  1  -0.385904  0.041411  3.389089  0.062  -0.342201  0.030835  3.724958  0.036  -0.373455  0.024327  3.736628  0.027  -1.235427  0.071003  -0.373962  -0.319109  0.036573  3.716636  0.043
N  N89  1  0.04849052  0.75004203  0.60295687  1  -0.385883  0.041413  3.38915  0.062  -0.342169  0.030835  3.725006  0.036  -0.373418  0.024327  3.736667  0.027  -1.235431  0.071002  -0.373931  -0.319074  0.036573  3.716684  0.043
N  N90  1  0.54849284  0.75004203  0.89704090  1  -0.38599  0.041415  3.389156  0.062  -0.342249  0.030836  3.725004  0.036  -0.373509  0.024328  3.736681  0.027  -1.235478  0.071003  -0.37396  -0.319162  0.036574  3.716691  0.043
N  N91  1  0.95150864  0.24995839  0.39704388  1  -0.385944  0.041414  3.389111  0.062  -0.342254  0.030835  3.724992  0.036  -0.373504  0.024327  3.736652  0.027  -1.235436  0.071003  -0.373979  -0.319159  0.036574  3.716668  0.043
N  N92  1  0.21241926  0.84252710  0.18088840  1  -0.030204  0.001779  3.544308  0.003  0.066216  0.001853  3.759419  0.003  0.05258  0.001301  3.785685  0.002  -1.215375  0.005687  -0.230101  0.075087  0.002371  3.741972  0.004
N  N93  1  0.28758005  0.15747252  0.68088915  1  -0.030117  0.001776  3.544216  0.003  0.066318  0.001853  3.759325  0.003  0.052682  0.001301  3.785591  0.002  -1.215375  0.005688  -0.230036  0.075187  0.002371  3.74188  0.004
N  N94  1  0.78758101  0.15747252  0.81911085  1  -0.030145  0.001785  3.544291  0.003  0.066278  0.001853  3.759397  0.003  0.052642  0.001301  3.785662  0.002  -1.215367  0.005688  -0.230063  0.075149  0.002371  3.741951  0.004
N  N95  1  0.71241863  0.84252628  0.31911085  1  -0.030174  0.001777  3.544337  0.003  0.066255  0.001853  3.759456  0.003  0.052619  0.001301  3.785721  0.002  -1.215381  0.005687  -0.230033  0.075123  0.00237  3.74201  0.004
N  N96  1  0.23583899  0.01834612  0.14894185  1  -0.380924  0.041933  3.342009  0.068  -0.332393  0.030943  3.661988  0.041  -0.364055  0.02462  3.675474  0.032  -1.249977  0.071871  -0.365462  -0.308944  0.036634  3.652312  0.048
N  N97  1  0.26415920  0.98165431  0.64894259  1  -0.380871  0.04193  3.341896  0.068  -0.332342  0.030943  3.661883  0.041  -0.363995  0.024619  3.675361  0.032  -1.249986  0.071871  -0.365462  -0.308888  0.036633  3.652203  0.048
N  N98  1  0.76416288  0.98165431  0.85105815  1  -0.380875  0.041934  3.342054  0.068  -0.33233  0.030943  3.662023  0.041  -0.363995  0.02462  3.675513  0.032  -1.250031  0.071871  -0.365443  -0.308885  0.036633  3.652351  0.048
N  N99  1  0.73583972  0.01834530  0.35105741  1  -0.380958  0.041927  3.34197  0.068  -0.332427  0.030942  3.661964  0.041  -0.364084  0.02462  3.67544  0.032  -1.249973  0.07187  -0.365497  -0.308975  0.036633  3.652284  0.048
O  O100  1  0.99358115  0.20309242  0.10405899  1  -0.651418  0.052059  2.126057  0.084  -0.610019  0.040747  2.429433  0.057  -0.653086  0.030764  2.412514  0.042  -1.149178  0.099102  -0.336272  -0.576147  0.050611  2.439469  0.072
O  O101  1  0.50641762  0.79690801  0.60405824  1  -0.651434  0.052061  2.126075  0.084  -0.610039  0.040747  2.429472  0.057  -0.653098  0.030765  2.41254  0.042  -1.149189  0.099102  -0.336257  -0.576161  0.050611  2.439506  0.072
O  O102  1  0.00642072  0.79690801  0.89594250  1  -0.65142  0.052061  2.126076  0.084  -0.609997  0.040747  2.42945  0.057  -0.653076  0.030764  2.412547  0.042  -1.149191  0.099101  -0.336238  -0.576131  0.050609  2.43949  0.072
O  O103  1  0.49358154  0.20309242  0.39594027  1  -0.651402  0.052058  2.126105  0.084  -0.610006  0.040746  2.429474  0.057  -0.653076  0.030764  2.412566  0.042  -1.149164  0.099102  -0.336264  -0.576131  0.050611  2.439508  0.072
O  O104  1  0.07447671  0.38716888  0.12325405  1  -0.590073  0.001633  1.888733  0.003  -0.552449  0.002188  2.102291  0.004  -0.575052  0.001192  2.093884  0.002  -1.166446  0.007625  -0.317471  -0.536378  0.003408  2.107649  0.005
O  O105  1  0.42552284  0.61283155  0.62325330  1  -0.590079  0.00163  1.888741  0.003  -0.552447  0.002188  2.102295  0.004  -0.57505  0.001191  2.093887  0.002  -1.166437  0.007624  -0.317467  -0.536373  0.003408  2.10765  0.005
O  O106  1  0.92552540  0.61283236  0.87674968  1  -0.590034  0.001634  1.888808  0.003  -0.552407  0.002188  2.102378  0.004  -0.575009  0.001192  2.093971  0.002  -1.166402  0.007624  -0.317405  -0.536332  0.003408  2.10773  0.005
O  O107  1  0.57447608  0.38716806  0.37674595  1  -0.590054  0.001632  1.888766  0.003  -0.552434  0.002188  2.102332  0.004  -0.575036  0.001191  2.093926  0.002  -1.166444  0.007626  -0.317455  -0.536362  0.003409  2.107688  0.005
O  O108  1  0.27945458  0.91490965  0.44277475  1  -0.626977  0.059826  2.062202  0.101  -0.588052  0.043047  2.346113  0.067  -0.633501  0.031909  2.336009  0.049  -1.142934  0.106403  -0.331529  -0.552232  0.053763  2.351082  0.082
O  O109  1  0.22054290  0.08508834  0.94277549  1  -0.62696  0.059825  2.062269  0.101  -0.588034  0.043047  2.346176  0.067  -0.633491  0.031909  2.336076  0.049  -1.143005  0.106404  -0.331499  -0.552221  0.053763  2.351152  0.082
O  O110  1  0.72054745  0.08508671  0.55722451  1  -0.62694  0.059824  2.06222  0.101  -0.588026  0.043045  2.346147  0.067  -0.633478  0.031908  2.336042  0.049  -1.143041  0.106401  -0.33152  -0.552209  0.05376  2.351116  0.082
O  O111  1  0.77945036  0.91491046  0.05722451  1  -0.627004  0.059825  2.062222  0.101  -0.588072  0.043047  2.346136  0.067  -0.633533  0.031909  2.336034  0.049  -1.142976  0.106404  -0.331538  -0.552261  0.053763  2.351111  0.082
O  O112  1  0.25802595  0.74574709  0.37905452  1  -0.609717  0.006213  1.92557  0.011  -0.574046  0.007924  2.159867  0.013  -0.599983  0.00558  2.15248  0.009  -1.153646  0.022157  -0.316195  -0.554752  0.010726  2.16413  0.017
O  O113  1  0.24197720  0.25425172  0.87905675  1  -0.6097  0.006213  1.925606  0.011  -0.574027  0.007924  2.159875  0.013  -0.599966  0.005581  2.152488  0.009  -1.153612  0.022159  -0.316179  -0.554743  0.010727  2.164158  0.017
O  O114  1  0.74197497  0.25425009  0.62094176  1  -0.609723  0.006213  1.925618  0.011  -0.57405  0.007925  2.159908  0.013  -0.599989  0.005581  2.152521  0.009  -1.153602  0.022159  -0.316173  -0.55475  0.010728  2.164158  0.017
O  O115  1  0.75802308  0.74574790  0.12094325  1  -0.609692  0.006212  1.925578  0.011  -0.574027  0.007924  2.159859  0.013  -0.599966  0.005581  2.15247  0.009  -1.153624  0.022159  -0.316181  -0.554745  0.010727  2.164145  0.017
