# generated using pymatgen
data_CuH5C5SIN
_symmetry_space_group_name_H-M   'P 1'
_cell_length_a   7.79383328
_cell_length_b   13.19439414
_cell_length_c   13.27096107
_cell_angle_alpha   65.74887709
_cell_angle_beta   82.60669129
_cell_angle_gamma   83.10739353
_symmetry_Int_Tables_number   1
_chemical_formula_structural   CuH5C5SIN
_chemical_formula_sum   'Cu6 H30 C30 S6 I6 N6'
_cell_volume   1230.53422074
_cell_formula_units_Z   6
loop_
 _symmetry_equiv_pos_site_id
 _symmetry_equiv_pos_as_xyz
  1  'x, y, z'
loop_
 _atom_site_type_symbol
 _atom_site_label
 _atom_site_symmetry_multiplicity
 _atom_site_fract_x
 _atom_site_fract_y
 _atom_site_fract_z
 _atom_site_occupancy
 _atom_site_hle17_bader_spin_density
 _atom_site_hle17_ddec_charge
 _atom_site_hle17_ddec_spin_density
 _atom_site_hle17_ddec_sum_bond_order
 _atom_site_hle17_magmom
 _atom_site_hse06_10hf_bader_spin_density
 _atom_site_hse06_10hf_ddec_charge
 _atom_site_hse06_10hf_ddec_spin_density
 _atom_site_hse06_10hf_ddec_sum_bond_order
 _atom_site_hse06_10hf_magmom
 _atom_site_hse06_bader_spin_density
 _atom_site_hse06_ddec_charge
 _atom_site_hse06_ddec_spin_density
 _atom_site_hse06_ddec_sum_bond_order
 _atom_site_hse06_magmom
 _atom_site_pbe_bader_spin_density
 _atom_site_pbe_cm5_charge
 _atom_site_pbe_ddec_charge
 _atom_site_pbe_ddec_spin_density
 _atom_site_pbe_ddec_sum_bond_order
 _atom_site_pbe_magmom
Cu  Cu0  1  0.45722848  0.09165961  0.62248898  1  0  0.271262  0  2.307721  0  0  0.220787  0  2.790642  0  0  0.218619  0  2.748943  0  0  0.273441  0.225011  0  2.817035  0
Cu  Cu1  1  0.54278105  0.90834400  0.37750689  1  0  0.271269  0  2.307646  0  0  0.220799  0  2.790547  0  0  0.218639  0  2.748838  0  0  0.273441  0.225024  0  2.816964  0
Cu  Cu2  1  0.21747235  0.10446981  0.48893691  1  0  0.293169  0  2.290842  0  0  0.249798  0  2.768186  0  0  0.247572  0  2.725217  0  0  0.285474  0.252808  0  2.797077  0
Cu  Cu3  1  0.78253412  0.89552799  0.51106468  1  0  0.293159  0  2.290942  0  0  0.249782  0  2.768279  0  0  0.247565  0  2.725313  0  0  0.285462  0.252806  0  2.797166  0
Cu  Cu4  1  0.70007990  0.21637062  0.33237203  1  0  0.32927  0  2.212077  0  0  0.278556  0  2.686568  0  0  0.278945  0  2.644572  0  0  0.252359  0.280269  0  2.714154  0
Cu  Cu5  1  0.29993017  0.78362883  0.66762629  1  0  0.32933  0  2.212076  0  0  0.278596  0  2.68658  0  0  0.278999  0  2.644593  0  0  0.25238  0.280303  0  2.714161  0
H  H6  1  0.57540643  0.41764251  0.30092140  1  0  0.259423  0  0.967442  0  0  0.23467  0  1.049803  0  0  0.245922  0  1.039491  0  0  0.261996  0.226671  0  1.057111  0
H  H7  1  0.42459358  0.58236612  0.69907699  1  0  0.259405  0  0.967347  0  0  0.234661  0  1.04973  0  0  0.245919  0  1.039409  0  0  0.261983  0.226661  0  1.057042  0
H  H8  1  0.97820576  0.11642719  0.65476514  1  0  0.259122  0  0.962076  0  0  0.23632  0  1.040979  0  0  0.246723  0  1.032005  0  0  0.268309  0.228962  0  1.047294  0
H  H9  1  0.02181633  0.88356723  0.34522820  1  0  0.259248  0  0.961948  0  0  0.236391  0  1.040896  0  0  0.246792  0  1.031925  0  0  0.268359  0.229032  0  1.047214  0
H  H10  1  0.48267129  0.95694043  0.82247072  1  0  0.256777  0  0.957273  0  0  0.234434  0  1.034757  0  0  0.244251  0  1.02666  0  0  0.271117  0.227457  0  1.040491  0
H  H11  1  0.51732180  0.04306153  0.17753183  1  0  0.256812  0  0.957245  0  0  0.234497  0  1.034716  0  0  0.244315  0  1.02662  0  0  0.271121  0.227516  0  1.040457  0
H  H12  1  0.19843307  0.31458478  0.57198948  1  0  0.110729  0  0.978601  0  0  0.116554  0  1.044751  0  0  0.121587  0  1.041319  0  0  0.089268  0.112921  0  1.047321  0
H  H13  1  0.80157881  0.68540966  0.42800852  1  0  0.110694  0  0.978684  0  0  0.116522  0  1.044829  0  0  0.121557  0  1.041391  0  0  0.089301  0.112879  0  1.047407  0
H  H14  1  0.13478212  0.51378091  0.54785083  1  0  0.098753  0  0.940156  0  0  0.109902  0  0.998196  0  0  0.113027  0  0.99558  0  0  0.101675  0.107565  0  1.000124  0
H  H15  1  0.86521206  0.48621014  0.45215014  1  0  0.098761  0  0.940083  0  0  0.109888  0  0.998157  0  0  0.113015  0  0.995537  0  0  0.101635  0.107542  0  1.000084  0
H  H16  1  0.30554256  0.66234732  0.39916584  1  0  0.105009  0  0.980163  0  0  0.108035  0  1.054698  0  0  0.11227  0  1.053095  0  0  0.090758  0.104794  0  1.05623  0
H  H17  1  0.69443935  0.33765129  0.60084060  1  0  0.10508  0  0.980176  0  0  0.108093  0  1.054705  0  0  0.112329  0  1.0531  0  0  0.090715  0.104866  0  1.05622  0
H  H18  1  0.53346668  0.60515176  0.27514914  1  0  0.086884  0  0.959768  0  0  0.094368  0  1.026552  0  0  0.09826  0  1.02265  0  0  0.110817  0.091443  0  1.029493  0
H  H19  1  0.46652097  0.39485442  0.72485891  1  0  0.086887  0  0.95966  0  0  0.094375  0  1.026472  0  0  0.098262  0  1.022587  0  0  0.110807  0.09145  0  1.029414  0
H  H20  1  0.16356987  0.80920403  0.88836058  1  0  0.114491  0  0.990894  0  0  0.121699  0  1.055447  0  0  0.126418  0  1.053085  0  0  0.089722  0.11825  0  1.057407  0
H  H21  1  0.83641864  0.19079204  0.11164181  1  0  0.114469  0  0.990913  0  0  0.121714  0  1.055437  0  0  0.126433  0  1.053073  0  0  0.08973  0.118268  0  1.057398  0
H  H22  1  0.94145533  0.83587320  0.03187703  1  0  0.095283  0  0.936971  0  0  0.106776  0  0.993779  0  0  0.110027  0  0.99083  0  0  0.101887  0.104258  0  0.996104  0
H  H23  1  0.05854043  0.16412706  0.96812297  1  0  0.095254  0  0.937031  0  0  0.106757  0  0.993824  0  0  0.110003  0  0.990875  0  0  0.101874  0.104242  0  0.996145  0
H  H24  1  0.73739580  0.00657639  0.97914985  1  0  0.099286  0  0.978046  0  0  0.100995  0  1.054496  0  0  0.105107  0  1.052751  0  0  0.090904  0.098018  0  1.055883  0
H  H25  1  0.26261476  0.99343059  0.02084830  1  0  0.099257  0  0.97798  0  0  0.10101  0  1.054408  0  0  0.105125  0  1.052659  0  0  0.090917  0.098031  0  1.055794  0
H  H26  1  0.76642866  0.15007531  0.77980871  1  0  0.085322  0  0.954398  0  0  0.093866  0  1.019889  0  0  0.097731  0  1.015472  0  0  0.111667  0.09094  0  1.023212  0
H  H27  1  0.23358424  0.84993162  0.22018247  1  0  0.085239  0  0.95443  0  0  0.0938  0  1.019899  0  0  0.097665  0  1.015483  0  0  0.111643  0.090877  0  1.023216  0
H  H28  1  0.86114257  0.74455922  0.73782795  1  0  0.113482  0  0.991353  0  0  0.119282  0  1.059375  0  0  0.12423  0  1.056595  0  0  0.08739  0.115668  0  1.061656  0
H  H29  1  0.13885600  0.25543852  0.26217059  1  0  0.113512  0  0.991343  0  0  0.119279  0  1.059413  0  0  0.124214  0  1.056645  0  0  0.087377  0.115663  0  1.061697  0
H  H30  1  0.82130561  0.60143900  0.93093087  1  0  0.101694  0  0.947649  0  0  0.111111  0  1.007488  0  0  0.114458  0  1.004276  0  0  0.096679  0.108604  0  1.009852  0
H  H31  1  0.17868511  0.39856042  0.06907068  1  0  0.101719  0  0.947607  0  0  0.111119  0  1.007443  0  0  0.114468  0  1.004231  0  0  0.096671  0.108619  0  1.009786  0
H  H32  1  0.60432975  0.64083605  0.06930497  1  0  0.104854  0  0.969176  0  0  0.109694  0  1.037193  0  0  0.11344  0  1.035707  0  0  0.09552  0.107029  0  1.038365  0
H  H33  1  0.39566193  0.35916587  0.93069470  1  0  0.104932  0  0.969139  0  0  0.109786  0  1.037129  0  0  0.113534  0  1.035637  0  0  0.09554  0.10712  0  1.038304  0
H  H34  1  0.43359113  0.82955681  0.00592732  1  0  0.084239  0  0.936441  0  0  0.097115  0  0.994946  0  0  0.099455  0  0.992866  0  0  0.118881  0.095415  0  0.996442  0
H  H35  1  0.56640062  0.17044599  0.99407650  1  0  0.084268  0  0.936482  0  0  0.097139  0  0.994974  0  0  0.099478  0  0.992897  0  0  0.118892  0.09544  0  0.996475  0
C  C36  1  0.39726830  0.35278554  0.43632421  1  0  0.277447  0  3.67782  0  0  0.27136  0  3.934479  0  0  0.286589  0  3.950112  0  0  0.119602  0.261256  0  3.924313  0
C  C37  1  0.60274336  0.64721141  0.56367502  1  0  0.277186  0  3.677802  0  0  0.271059  0  3.93457  0  0  0.286283  0  3.950209  0  0  0.119459  0.260957  0  3.924415  0
C  C38  1  0.26720198  0.38118705  0.50646244  1  0  -0.154733  0  3.715124  0  0  -0.170854  0  3.963701  0  0  -0.180227  0  3.982384  0  0  -0.091672  -0.165089  0  3.951713  0
C  C39  1  0.73280727  0.61880823  0.49353695  1  0  -0.154563  0  3.714964  0  0  -0.170679  0  3.96356  0  0  -0.180049  0  3.98225  0  0  -0.091628  -0.164908  0  3.951579  0
C  C40  1  0.23351074  0.49137785  0.49279284  1  0  0.01445  0  3.695066  0  0  -0.003575  0  3.944051  0  0  0.004553  0  3.957347  0  0  -0.066891  -0.009144  0  3.935328  0
C  C41  1  0.76648223  0.50861322  0.50721049  1  0  0.014628  0  3.695098  0  0  -0.00338  0  3.944036  0  0  0.004746  0  3.957339  0  0  -0.066797  -0.008937  0  3.935311  0
C  C42  1  0.32747021  0.57581816  0.40894155  1  0  -0.13939  0  3.746802  0  0  -0.155573  0  4.004291  0  0  -0.16305  0  4.024124  0  0  -0.099023  -0.150801  0  3.991509  0
C  C43  1  0.67252041  0.42418210  0.59105966  1  0  -0.139715  0  3.747181  0  0  -0.155853  0  4.004649  0  0  -0.163333  0  4.024475  0  0  -0.099021  -0.151092  0  3.991846  0
C  C44  1  0.45244395  0.54582859  0.34089408  1  0  0.136504  0  3.662578  0  0  0.101689  0  3.907491  0  0  0.110432  0  3.921806  0  0  0.050666  0.095712  0  3.898161  0
C  C45  1  0.54754544  0.45417254  0.65911140  1  0  0.136639  0  3.66248  0  0  0.101803  0  3.907427  0  0  0.110546  0  3.921741  0  0  0.050735  0.095825  0  3.898101  0
C  C46  1  0.08951520  0.96703730  0.75989719  1  0  0.278548  0  3.7059  0  0  0.270382  0  3.966193  0  0  0.286511  0  3.981062  0  0  0.115939  0.259384  0  3.956279  0
C  C47  1  0.91048844  0.03296129  0.24010055  1  0  0.278563  0  3.705842  0  0  0.270451  0  3.966067  0  0  0.286577  0  3.980942  0  0  0.115947  0.259452  0  3.956161  0
C  C48  1  0.07694625  0.88477292  0.86903950  1  0  -0.154303  0  3.674004  0  0  -0.168521  0  3.919991  0  0  -0.17925  0  3.938618  0  0  -0.089515  -0.162083  0  3.908441  0
C  C49  1  0.92305459  0.11522647  0.13095514  1  0  -0.154352  0  3.674002  0  0  -0.168641  0  3.919993  0  0  -0.179372  0  3.938619  0  0  -0.08956  -0.162206  0  3.908452  0
C  C50  1  0.95265101  0.89942120  0.94730753  1  0  0.021526  0  3.698826  0  0  0.002336  0  3.947823  0  0  0.011474  0  3.961409  0  0  -0.065888  -0.003711  0  3.939081  0
C  C51  1  0.04735530  0.10057655  0.05268958  1  0  0.021563  0  3.698935  0  0  0.002383  0  3.94792  0  0  0.011526  0  3.961507  0  0  -0.065821  -0.003663  0  3.93918  0
C  C52  1  0.83793607  0.99603950  0.91855007  1  0  -0.14053  0  3.755438  0  0  -0.156275  0  4.019453  0  0  -0.16401  0  4.038383  0  0  -0.099906  -0.151606  0  4.007275  0
C  C53  1  0.16206994  0.00396162  0.08144867  1  0  -0.140492  0  3.755369  0  0  -0.156302  0  4.019414  0  0  -0.164042  0  4.038343  0  0  -0.099963  -0.151631  0  4.007234  0
C  C54  1  0.85332845  0.07504915  0.81143885  1  0  0.141845  0  3.662223  0  0  0.102584  0  3.914101  0  0  0.112818  0  3.926745  0  0  0.047571  0.095722  0  3.906039  0
C  C55  1  0.14667472  0.92495361  0.18855794  1  0  0.141893  0  3.662221  0  0  0.102633  0  3.914113  0  0  0.112867  0  3.926762  0  0  0.047571  0.095769  0  3.906057  0
C  C56  1  0.66821065  0.86328127  0.76631081  1  0  0.267676  0  3.710769  0  0  0.25887  0  3.970481  0  0  0.274525  0  3.987959  0  0  0.117049  0.248459  0  3.958368  0
C  C57  1  0.33179097  0.13671403  0.23369301  1  0  0.267768  0  3.710593  0  0  0.259067  0  3.970172  0  0  0.274722  0  3.987652  0  0  0.117094  0.248655  0  3.958064  0
C  C58  1  0.76586328  0.75973039  0.79869425  1  0  -0.147895  0  3.67731  0  0  -0.160792  0  3.92249  0  0  -0.171814  0  3.942086  0  0  -0.08678  -0.154064  0  3.910002  0
C  C59  1  0.23412677  0.24026318  0.20130755  1  0  -0.147962  0  3.6772  0  0  -0.160911  0  3.922402  0  0  -0.171922  0  3.942008  0  0  -0.086786  -0.15418  0  3.909921  0
C  C60  1  0.74340369  0.68078388  0.90629910  1  0  0.033315  0  3.677898  0  0  0.012551  0  3.92421  0  0  0.021518  0  3.937029  0  0  -0.061337  0.00679  0  3.915768  0
C  C61  1  0.25659480  0.31921642  0.09370441  1  0  0.033293  0  3.678082  0  0  0.012572  0  3.92436  0  0  0.021539  0  3.937176  0  0  -0.061309  0.006815  0  3.915922  0
C  C62  1  0.62300731  0.70277813  0.98470447  1  0  -0.130421  0  3.753356  0  0  -0.145752  0  4.013606  0  0  -0.153486  0  4.032895  0  0  -0.092074  -0.141011  0  4.000893  0
C  C63  1  0.37697278  0.29722292  0.01529508  1  0  -0.130489  0  3.753512  0  0  -0.1458  0  4.013654  0  0  -0.153541  0  4.032961  0  0  -0.092068  -0.141062  0  4.000952  0
C  C64  1  0.52821534  0.80410085  0.95137746  1  0  0.13469  0  3.673958  0  0  0.095802  0  3.927476  0  0  0.104249  0  3.943979  0  0  0.048517  0.090328  0  3.916383  0
C  C65  1  0.47177868  0.19590359  0.04862246  1  0  0.134681  0  3.674006  0  0  0.095789  0  3.927525  0  0  0.104234  0  3.944033  0  0  0.048503  0.090309  0  3.916438  0
S  S66  1  0.45448263  0.21940179  0.44396386  1  0  -0.34033  0  3.054982  0  0  -0.325553  0  3.582344  0  0  -0.325658  0  3.54401  0  0  -0.250695  -0.327178  0  3.610054  0
S  S67  1  0.54552228  0.78059680  0.55603302  1  0  -0.340341  0  3.054988  0  0  -0.325536  0  3.58236  0  0  -0.325651  0  3.54404  0  0  -0.250695  -0.327158  0  3.610084  0
S  S68  1  0.24117882  0.95860259  0.65639531  1  0  -0.3459  0  3.045133  0  0  -0.334914  0  3.58068  0  0  -0.333151  0  3.538753  0  0  -0.25345  -0.337055  0  3.608522  0
S  S69  1  0.75883478  0.04139024  0.34360924  1  0  -0.345895  0  3.045048  0  0  -0.334941  0  3.580615  0  0  -0.333171  0  3.53867  0  0  -0.253466  -0.337089  0  3.608478  0
S  S70  1  0.69591546  0.97107474  0.63761577  1  0  -0.320039  0  2.739234  0  0  -0.301622  0  3.212398  0  0  -0.313193  0  3.191402  0  0  -0.224758  -0.294225  0  3.225956  0
S  S71  1  0.30408197  0.02892390  0.36238928  1  0  -0.320087  0  2.73927  0  0  -0.301711  0  3.212423  0  0  -0.313281  0  3.191422  0  0  -0.224775  -0.294314  0  3.226002  0
I  I72  1  0.37624222  0.16206457  0.78120316  1  0  -0.530427  0  1.147785  0  0  -0.482836  0  1.478066  0  0  -0.503346  0  1.455396  0  0  -0.257628  -0.467189  0  1.492458  0
I  I73  1  0.62376540  0.83794231  0.21878550  1  0  -0.530469  0  1.147746  0  0  -0.48287  0  1.478005  0  0  -0.503388  0  1.45533  0  0  -0.257634  -0.467211  0  1.492381  0
I  I74  1  0.74568164  0.38671456  0.14738311  1  0  -0.534477  0  1.138792  0  0  -0.486095  0  1.446764  0  0  -0.506143  0  1.423713  0  0  -0.277567  -0.471009  0  1.461704  0
I  I75  1  0.25431450  0.61328236  0.85261750  1  0  -0.534511  0  1.138745  0  0  -0.486132  0  1.446732  0  0  -0.50618  0  1.423678  0  0  -0.277568  -0.471044  0  1.461669  0
I  I76  1  0.93729278  0.23854758  0.46011318  1  0  -0.446635  0  1.523405  0  0  -0.400117  0  1.931714  0  0  -0.419459  0  1.901078  0  0  -0.195288  -0.385517  0  1.952924  0
I  I77  1  0.06270973  0.76145105  0.53988917  1  0  -0.446646  0  1.523402  0  0  -0.40012  0  1.931717  0  0  -0.41947  0  1.901089  0  0  -0.195277  -0.38552  0  1.952928  0
N  N78  1  0.48306125  0.43784744  0.35565065  1  0  -0.251665  0  3.460264  0  0  -0.176594  0  3.66397  0  0  -0.193238  0  3.678246  0  0  -0.355853  -0.165749  0  3.654632  0
N  N79  1  0.51694056  0.56215702  0.64434932  1  0  -0.251575  0  3.460128  0  0  -0.176505  0  3.663846  0  0  -0.193148  0  3.678121  0  0  -0.355841  -0.165659  0  3.65451  0
N  N80  1  0.97686192  0.05925336  0.73690570  1  0  -0.26609  0  3.518212  0  0  -0.19227  0  3.724714  0  0  -0.208872  0  3.739678  0  0  -0.363803  -0.181673  0  3.715055  0
N  N81  1  0.02315414  0.94075114  0.26309376  1  0  -0.266073  0  3.518143  0  0  -0.192237  0  3.724708  0  0  -0.208837  0  3.73967  0  0  -0.363794  -0.181643  0  3.715057  0
N  N82  1  0.55122478  0.87960483  0.84529438  1  0  -0.272207  0  3.500259  0  0  -0.198159  0  3.711118  0  0  -0.215786  0  3.72717  0  0  -0.365078  -0.186619  0  3.700456  0
N  N83  1  0.44876833  0.12039627  0.15470626  1  0  -0.272345  0  3.500331  0  0  -0.198382  0  3.711193  0  0  -0.21599  0  3.727195  0  0  -0.365152  -0.186817  0  3.700502  0
