# generated using pymatgen
data_Al4H20C41Br2O21
_symmetry_space_group_name_H-M   'P 1'
_cell_length_a   6.70373680
_cell_length_b   19.65973217
_cell_length_c   21.22755702
_cell_angle_alpha   86.78788615
_cell_angle_beta   88.21326056
_cell_angle_gamma   88.95419007
_symmetry_Int_Tables_number   1
_chemical_formula_structural   Al4H20C41Br2O21
_chemical_formula_sum   'Al4 H20 C41 Br2 O21'
_cell_volume   2791.52242136
_cell_formula_units_Z   1
loop_
 _symmetry_equiv_pos_site_id
 _symmetry_equiv_pos_as_xyz
  1  'x, y, z'
loop_
 _atom_site_type_symbol
 _atom_site_label
 _atom_site_symmetry_multiplicity
 _atom_site_fract_x
 _atom_site_fract_y
 _atom_site_fract_z
 _atom_site_occupancy
 _atom_site_pbe_bader_charge
 _atom_site_pbe_bader_spin_density
 _atom_site_pbe_cm5_charge
 _atom_site_pbe_ddec_charge
 _atom_site_pbe_ddec_spin_density
 _atom_site_pbe_ddec_sum_bond_order
 _atom_site_pbe_magmom
Al  Al0  1  0.87377935  0.51046887  0.50752806  1  2.491792  0  0.408806  1.646898  0  2.576112  0
Al  Al1  1  0.37257813  0.51019383  0.50851575  1  2.50385  0  0.408385  1.649798  0  2.573188  0
Al  Al2  1  0.34676512  0.98195715  0.98415459  1  2.50546  0  0.408185  1.647936  0  2.576636  0
Al  Al3  1  0.84784151  0.98204520  0.98377766  1  2.501439  0  0.408292  1.648532  0  2.573158  0
H  H4  1  0.01500861  0.28284948  0.13956999  1  0.027672  0  0.097287  0.106854  0  0.971456  0
H  H5  1  0.07673344  0.36135362  0.21456481  1  0.033547  0  0.104476  0.041308  0  0.982551  0
H  H6  1  0.43155346  0.25363524  0.29954160  1  0.100357  0  0.092626  0.110927  0  1.026136  0
H  H7  1  0.39824927  0.32150907  0.24348793  1  0.071382  0  0.100594  0.111306  0  0.998951  0
H  H8  1  0.37079642  0.24632832  0.16356711  1  0.089646  0  0.105548  0.089759  0  0.957285  0
H  H9  1  0.16071902  0.20103901  0.35533852  1  0.066359  0  0.107041  0.094273  0  0.955016  0
H  H10  1  0.87214108  0.15425251  0.26535324  1  0.096656  0  0.083693  0.104049  0  1.052155  0
H  H11  1  0.81773654  0.24695762  0.18774029  1  0.071335  0  0.097491  0.114842  0  1.009107  0
H  H12  1  0.11384963  0.12077647  0.28186351  1  0.070698  0  0.096737  0.114188  0  0.98072  0
H  H13  1  0.58526932  0.41202218  0.23972636  1  0.009838  0  0.099677  0.064877  0  0.982591  0
H  H14  1  0.78181999  0.41316417  0.18135578  1  0.042215  0  0.089333  0.043999  0  0.983093  0
H  H15  1  0.80797091  0.45926058  0.31684721  1  0.050782  0  0.096607  0.10387  0  0.970216  0
H  H16  1  0.01014653  0.45920802  0.26179777  1  -0.028796  0  0.084969  0.074338  0  0.997685  0
H  H17  1  0.82199363  0.54124314  0.18781575  1  -0.011989  0  0.081751  0.104076  0  1.009018  0
H  H18  1  0.85450002  0.57560542  0.26238187  1  0.050402  0  0.087842  0.121139  0  1.00863  0
H  H19  1  0.62023142  0.54296918  0.24397211  1  0.046995  0  0.083289  0.108195  0  1.006878  0
H  H20  1  0.62853981  0.42171456  0.50371408  1  0.61936  0  0.364221  0.447116  0  0.827809  0
H  H21  1  0.11711117  0.59756886  0.52139954  1  0.631315  0  0.36181  0.443758  0  0.833473  0
H  H22  1  0.59196174  0.06927521  0.99420392  1  0.64531  0  0.36174  0.443029  0  0.834205  0
H  H23  1  0.10303985  0.89401948  0.97324118  1  0.605122  0  0.362131  0.444025  0  0.832605  0
C  C24  1  0.62545346  0.59451249  0.42056880  1  1.688883  0  0.275915  0.696875  0  4.18674  0
C  C25  1  0.61169633  0.59052200  0.59064446  1  1.686778  0  0.279508  0.705569  0  4.172523  0
C  C26  1  0.11872650  0.42404456  0.59409396  1  1.703193  0  0.275817  0.700154  0  4.183621  0
C  C27  1  0.13650965  0.42947918  0.42654189  1  1.653874  0  0.282197  0.731656  0  4.136693  0
C  C28  1  0.99291504  0.31771394  0.23610935  1  0.493652  0  0.01254  0.150677  0  3.79905  0
C  C29  1  0.33310096  0.27342885  0.26226068  1  -0.057338  0  -0.156487  -0.239116  0  3.835851  0
C  C30  1  0.32033116  0.22339574  0.20940642  1  -0.025833  0  -0.060027  0.028628  0  3.673824  0
C  C31  1  0.08046787  0.10979317  0.11512071  1  0.221812  0  -0.046858  -0.21707  0  3.962055  0
C  C32  1  0.12184624  0.28858655  0.29169997  1  0.138032  0  -0.00169  0.083769  0  3.873959  0
C  C33  1  0.97408775  0.26270562  0.18747839  1  -0.025614  0  -0.157619  -0.265391  0  3.820751  0
C  C34  1  0.10421689  0.19868511  0.20472930  1  0.130132  0  -0.002813  0.150877  0  3.903975  0
C  C35  1  0.02876442  0.16765256  0.26968886  1  -0.036626  0  -0.164657  -0.239518  0  3.833584  0
C  C36  1  0.05035817  0.21894293  0.32094773  1  -0.007504  0  -0.058058  0.04845  0  3.654145  0
C  C37  1  0.08892310  0.14985861  0.15642800  1  -0.483787  0  -0.019228  -0.014991  0  4.027869  0
C  C38  1  0.13538626  0.33801892  0.33941042  1  -0.434353  0  -0.013034  -0.002027  0  4.028328  0
C  C39  1  0.14258837  0.38023947  0.37882486  1  0.207455  0  -0.041455  -0.214223  0  3.955309  0
C  C40  1  0.10415833  0.12152563  0.84848561  1  0.268755  0  0.002009  -0.131413  0  3.822612  0
C  C41  1  0.10627791  0.16930750  0.80876702  1  -0.397872  0  -0.007058  0.027493  0  4.254245  0
C  C42  1  0.10813548  0.22190374  0.76572113  1  0.167054  0  0.002735  1.6e-05  0  4.185057  0
C  C43  1  0.11006371  0.27067117  0.72652131  1  -0.120215  0  0.002106  -0.00145  0  4.186277  0
C  C44  1  0.11260363  0.32323274  0.68345145  1  -0.264985  0  -0.005254  0.030506  0  4.252276  0
C  C45  1  0.11528401  0.37092069  0.64363971  1  0.170216  0  0.001744  -0.132605  0  3.820396  0
C  C46  1  0.62395964  0.64264290  0.36681138  1  0.087536  0  0.004259  -0.132686  0  3.822462  0
C  C47  1  0.61766429  0.68330819  0.32091014  1  -0.161049  0  -0.0046  0.027308  0  4.257732  0
C  C48  1  0.61126856  0.72711639  0.27023924  1  0.078737  0  0.000825  -0.00509  0  4.185569  0
C  C49  1  0.60523266  0.76733451  0.22353381  1  -0.124939  0  0.00417  0.002905  0  4.184959  0
C  C50  1  0.59893542  0.81120110  0.17289179  1  -0.153084  0  -0.007763  0.024101  0  4.254738  0
C  C51  1  0.59373576  0.85141122  0.12663614  1  0.063849  0  0.00426  -0.127239  0  3.816043  0
C  C52  1  0.60738424  0.63780989  0.64011363  1  0.250494  0  0.001446  -0.136922  0  3.81773  0
C  C53  1  0.60836616  0.67942310  0.68103864  1  -0.312138  0  -0.004317  0.032426  0  4.246289  0
C  C54  1  0.60996767  0.72520516  0.72555016  1  0.01092  0  0.005023  0.001746  0  4.179995  0
C  C55  1  0.61206078  0.76750659  0.76632728  1  -0.056036  0  0.004199  0.001162  0  4.180935  0
C  C56  1  0.61307965  0.81317926  0.81095663  1  -0.181515  0  -0.004004  0.031999  0  4.25063  0
C  C57  1  0.61381566  0.85464751  0.85202492  1  0.117776  0  0.002584  -0.135589  0  3.820895  0
C  C58  1  0.60935922  0.90208930  0.90137278  1  1.68525  0  0.280329  0.706909  0  4.169979  0
C  C59  1  0.59347520  0.89826388  0.07188870  1  1.687318  0  0.276951  0.699713  0  4.180505  0
C  C60  1  0.08428381  0.06216355  0.06604289  1  1.659065  0  0.280682  0.735341  0  4.135722  0
C  C61  1  0.10198153  0.06825776  0.89793931  1  1.668135  0  0.275291  0.697621  0  4.186838  0
C  C62  1  0.74849890  0.40822864  0.23283412  1  0.441554  0  -0.07107  0.034661  0  3.937142  0
C  C63  1  0.84665431  0.46493779  0.26611793  1  0.02045  0  -0.173276  -0.140125  0  3.980544  0
C  C64  1  0.78251508  0.53498312  0.23847988  1  -0.085312  0  -0.247169  -0.354085  0  3.986334  0
Br  Br65  1  0.50485662  0.14433055  0.22201196  1  -0.139564  0  0.015926  -0.100568  0  1.384142  0
Br  Br66  1  0.80438311  0.22472798  0.37456056  1  -0.134463  0  -0.026282  -0.130324  0  1.284828  0
O  O67  1  0.44381998  0.57230532  0.57143233  1  -1.225022  0  -0.222591  -0.575082  0  2.277594  0
O  O68  1  0.79565498  0.57622937  0.44114921  1  -1.217356  0  -0.224741  -0.572665  0  2.278219  0
O  O69  1  0.96350958  0.44959240  0.44495413  1  -1.237581  0  -0.225336  -0.587089  0  2.28613  0
O  O70  1  0.78421630  0.57240999  0.57035073  1  -1.219173  0  -0.222143  -0.575512  0  2.285213  0
O  O71  1  0.94975050  0.44401655  0.57362276  1  -1.221149  0  -0.225009  -0.576781  0  2.285289  0
O  O72  1  0.45477975  0.57573293  0.44222213  1  -1.221502  0  -0.223519  -0.573764  0  2.291199  0
O  O73  1  0.62541699  0.47035234  0.50903924  1  -1.417361  0  -0.446105  -1.002111  0  2.194802  0
O  O74  1  0.29051223  0.44453268  0.57499938  1  -1.229095  0  -0.225752  -0.578235  0  2.283145  0
O  O75  1  0.30283272  0.44815166  0.44662223  1  -1.24752  0  -0.228383  -0.588098  0  2.282345  0
O  O76  1  0.12103961  0.55125532  0.50795121  1  -1.430926  0  -0.446393  -0.998726  0  2.188666  0
O  O77  1  0.76459683  0.91580138  0.04957866  1  -1.21674  0  -0.22497  -0.575652  0  2.283455  0
O  O78  1  0.43681473  0.92003291  0.92175405  1  -1.231044  0  -0.221818  -0.575249  0  2.284484  0
O  O79  1  0.27148841  0.04777570  0.91750981  1  -1.232221  0  -0.224384  -0.57381  0  2.285536  0
O  O80  1  0.42357552  0.91647169  0.05106225  1  -1.225108  0  -0.225031  -0.574249  0  2.279648  0
O  O81  1  0.25678165  0.04365601  0.04581809  1  -1.232556  0  -0.227094  -0.588771  0  2.284884  0
O  O82  1  0.77703572  0.92065847  0.92035873  1  -1.22902  0  -0.222181  -0.574101  0  2.279152  0
O  O83  1  0.59531200  0.02207658  0.98325067  1  -1.443505  0  -0.445064  -0.997629  0  2.194782  0
O  O84  1  0.91716055  0.04337917  0.04660383  1  -1.233742  0  -0.228416  -0.589166  0  2.278193  0
O  O85  1  0.93054141  0.04827891  0.91789021  1  -1.229268  0  -0.225739  -0.576486  0  2.284544  0
O  O86  1  0.09934825  0.94120771  0.98419764  1  -1.404606  0  -0.445891  -0.998616  0  2.191671  0
O  O87  1  0.80141098  0.34080613  0.25688450  1  -1.044944  0  -0.229766  -0.257429  0  2.486061  0
