# generated using pymatgen
data_GdH20C21N4O9
_symmetry_space_group_name_H-M   'P 1'
_cell_length_a   9.88841357
_cell_length_b   11.53028900
_cell_length_c   13.53791187
_cell_angle_alpha   67.07115115
_cell_angle_beta   86.46451270
_cell_angle_gamma   76.39790207
_symmetry_Int_Tables_number   1
_chemical_formula_structural   GdH20C21N4O9
_chemical_formula_sum   'Gd2 H40 C42 N8 O18'
_cell_volume   1380.93995911
_cell_formula_units_Z   2
loop_
 _symmetry_equiv_pos_site_id
 _symmetry_equiv_pos_as_xyz
  1  'x, y, z'
loop_
 _atom_site_type_symbol
 _atom_site_label
 _atom_site_symmetry_multiplicity
 _atom_site_fract_x
 _atom_site_fract_y
 _atom_site_fract_z
 _atom_site_occupancy
 _atom_site_pbe_bader_charge
 _atom_site_pbe_bader_spin_density
 _atom_site_pbe_cm5_charge
 _atom_site_pbe_ddec_charge
 _atom_site_pbe_ddec_spin_density
 _atom_site_pbe_ddec_sum_bond_order
 _atom_site_pbe_magmom
Gd  Gd0  1  0.23675235  0.02929873  0.00262093  1  2.210038  0  1.458818  2.100258  0  2.187298  0
Gd  Gd1  1  0.76324589  0.97070164  0.99738059  1  2.210029  0  1.458807  2.100197  0  2.187396  0
H  H2  1  0.99280499  0.62564846  0.45111041  1  0.125959  0  0.106692  0.074139  0  1.022706  0
H  H3  1  0.00719068  0.37434213  0.54888639  1  0.126007  0  0.106649  0.074154  0  1.022819  0
H  H4  1  0.03687272  0.74925715  0.25974244  1  0.123388  0  0.111142  0.1226  0  1.023234  0
H  H5  1  0.96312628  0.25074028  0.74025635  1  0.123374  0  0.111131  0.122592  0  1.023251  0
H  H6  1  0.45305626  0.50818468  0.31320551  1  0.145861  0  0.109045  0.117305  0  1.030098  0
H  H7  1  0.54694554  0.49181372  0.68679210  1  0.146089  0  0.109064  0.117316  0  1.030088  0
H  H8  1  0.29305251  0.33770522  0.66230354  1  0.135175  0  0.115652  0.130765  0  1.002895  0
H  H9  1  0.70694852  0.66229220  0.33769369  1  0.135096  0  0.115665  0.130777  0  1.002896  0
H  H10  1  0.70368361  0.08698574  0.70618143  1  0.110887  0  0.107515  0.112119  0  1.049581  0
H  H11  1  0.29631591  0.91301364  0.29381816  1  0.110875  0  0.107514  0.112127  0  1.049551  0
H  H12  1  0.73295787  0.19586167  0.50822501  1  0.083693  0  0.107534  0.078286  0  0.996264  0
H  H13  1  0.26704540  0.80413481  0.49177540  1  0.083716  0  0.107547  0.078312  0  0.996288  0
H  H14  1  0.32319417  0.11099595  0.54349661  1  0.074855  0  0.109291  0.077821  0  0.993911  0
H  H15  1  0.67680837  0.88900346  0.45650506  1  0.074882  0  0.109276  0.077794  0  0.993849  0
H  H16  1  0.25235451  0.07390658  0.73283426  1  0.130061  0  0.113772  0.118646  0  1.043314  0
H  H17  1  0.74764471  0.92608990  0.26716706  1  0.130002  0  0.113757  0.118627  0  1.043301  0
H  H18  1  0.89873804  0.95426352  0.66585003  1  0.125006  0  0.105047  0.10545  0  1.062638  0
H  H19  1  0.10125800  0.04574165  0.33414701  1  0.124791  0  0.105038  0.105431  0  1.062641  0
H  H20  1  0.49321591  0.37915677  0.11288798  1  0.061805  0  0.112894  0.132948  0  0.963612  0
H  H21  1  0.50678690  0.62084556  0.88711417  1  0.061861  0  0.112925  0.132989  0  0.963612  0
H  H22  1  0.32807357  0.48964069  0.08211115  1  0.086325  0  0.104546  0.121858  0  1.001818  0
H  H23  1  0.67193251  0.51036068  0.91789119  1  0.086346  0  0.104549  0.121865  0  1.00178  0
H  H24  1  0.38357552  0.38539739  0.00963804  1  0.123478  0  0.117725  0.144932  0  0.990659  0
H  H25  1  0.61643062  0.61460784  0.99036152  1  0.123238  0  0.117723  0.144911  0  0.990676  0
H  H26  1  0.23771161  0.38024707  0.27446470  1  0.050865  0  0.103671  0.122292  0  0.991079  0
H  H27  1  0.76228794  0.61975619  0.72553432  1  0.050885  0  0.10369  0.122315  0  0.991081  0
H  H28  1  0.41119756  0.28528382  0.30727481  1  0.065353  0  0.107374  0.127412  0  0.988845  0
H  H29  1  0.58880348  0.71471752  0.69272554  1  0.065364  0  0.107379  0.127404  0  0.988866  0
H  H30  1  0.26850026  0.20768349  0.32666739  1  0.087459  0  0.106892  0.118751  0  1.029583  0
H  H31  1  0.73149902  0.79231685  0.67333114  1  0.087463  0  0.106863  0.118717  0  1.029614  0
H  H32  1  0.23309225  0.13905209  0.20729970  1  0.095911  0  0.125717  0.051862  0  1.036758  0
H  H33  1  0.76690403  0.86095212  0.79269840  1  0.095839  0  0.125705  0.05185  0  1.036789  0
H  H34  1  0.04069844  0.27544006  0.97125005  1  0.595631  0  0.329454  0.411974  0  0.869952  0
H  H35  1  0.95929886  0.72456415  0.02874727  1  0.595667  0  0.329451  0.411986  0  0.869897  0
H  H36  1  0.95800862  0.20822030  0.91953159  1  0.642374  0  0.30096  0.399794  0  0.940095  0
H  H37  1  0.04198814  0.79178198  0.08046787  1  0.642392  0  0.300973  0.399807  0  0.940084  0
H  H38  1  0.48871638  0.89371543  0.93448704  1  0.623676  0  0.303396  0.382337  0  0.956445  0
H  H39  1  0.51128014  0.10628782  0.06551211  1  0.62366  0  0.303404  0.382328  0  0.956466  0
H  H40  1  0.40610899  0.78852943  0.00569247  1  0.634603  0  0.290292  0.381119  0  0.967194  0
H  H41  1  0.59388926  0.21147092  0.99430758  1  0.634595  0  0.290324  0.381204  0  0.967087  0
C  C42  1  0.28497939  0.71122745  0.15771747  1  1.571127  0  0.220492  0.587416  0  4.179772  0
C  C43  1  0.71501885  0.28877292  0.84228406  1  1.571145  0  0.220528  0.587421  0  4.17978  0
C  C44  1  0.09462767  0.60274360  0.41834938  1  0.529108  0  0.041731  0.093843  0  4.001018  0
C  C45  1  0.90537057  0.39725285  0.58164830  1  0.529186  0  0.041716  0.093727  0  4.001125  0
C  C46  1  0.11872330  0.67188816  0.31113360  1  -0.125902  0  -0.082524  -0.141532  0  3.930077  0
C  C47  1  0.88127520  0.32811122  0.68886603  1  -0.125895  0  -0.082466  -0.141468  0  3.930167  0
C  C48  1  0.24967430  0.63818683  0.27147104  1  -0.044738  0  -0.008902  -0.011334  0  3.983401  0
C  C49  1  0.75032876  0.36181452  0.72852996  1  -0.044495  0  -0.008937  -0.01137  0  3.983535  0
C  C50  1  0.34975843  0.53670569  0.34087570  1  0.012555  0  -0.076227  -0.173535  0  3.936423  0
C  C51  1  0.65024513  0.46329371  0.65912446  1  0.012138  0  -0.076212  -0.173474  0  3.936418  0
C  C52  1  0.31576649  0.47201411  0.44723892  1  0.483524  0  0.116011  0.167354  0  3.999729  0
C  C53  1  0.68423478  0.52798235  0.55275936  1  0.483844  0  0.115969  0.167323  0  3.999734  0
C  C54  1  0.41937986  0.36203231  0.52246553  1  0.484994  0  0.116803  0.165467  0  3.998613  0
C  C55  1  0.58062219  0.63796511  0.47753166  1  0.484902  0  0.116813  0.165421  0  3.998687  0
C  C56  1  0.39212300  0.30337641  0.63160941  1  0.018653  0  -0.068892  -0.15681  0  3.883571  0
C  C57  1  0.60788057  0.69662298  0.36838927  1  0.018558  0  -0.0689  -0.156828  0  3.883602  0
C  C58  1  0.49445989  0.20188496  0.69901337  1  -0.061884  0  -0.002723  -0.004293  0  3.94069  0
C  C59  1  0.50554087  0.79811346  0.30098722  1  -0.061785  0  -0.002747  -0.004327  0  3.940617  0
C  C60  1  0.62043175  0.16318342  0.65501385  1  -0.049266  0  -0.082734  -0.149915  0  3.945746  0
C  C61  1  0.37957184  0.83681986  0.34498647  1  -0.049198  0  -0.082745  -0.149906  0  3.94574  0
C  C62  1  0.63681509  0.22538429  0.54519382  1  0.540498  0  0.041068  0.095558  0  4.014809  0
C  C63  1  0.36318923  0.77461609  0.45480671  1  0.540551  0  0.041074  0.095477  0  4.014841  0
C  C64  1  0.47122594  0.13235027  0.81632126  1  1.597486  0  0.241865  0.655653  0  4.119553  0
C  C65  1  0.52877283  0.86765202  0.18367812  1  1.59749  0  0.241891  0.655718  0  4.119392  0
C  C66  1  0.22934858  0.07555373  0.57356667  1  0.51283  0  0.042982  0.091737  0  4.003345  0
C  C67  1  0.77065396  0.92444567  0.42643352  1  0.512874  0  0.042973  0.091725  0  4.003263  0
C  C68  1  0.19121560  0.05480948  0.67909735  1  -0.071097  0  -0.072983  -0.130867  0  3.909347  0
C  C69  1  0.80878416  0.94518893  0.32090255  1  -0.071089  0  -0.072924  -0.130754  0  3.909248  0
C  C70  1  0.06977931  0.01061509  0.71402962  1  -0.032787  0  0.001431  0.003777  0  3.949103  0
C  C71  1  0.93022145  0.98938334  0.28597098  1  -0.032831  0  0.001382  0.003581  0  3.949137  0
C  C72  1  0.99380408  0.98849850  0.64257086  1  0.026018  0  -0.076362  -0.161472  0  3.917914  0
C  C73  1  0.00619596  0.01150282  0.35742806  1  0.026266  0  -0.076336  -0.161431  0  3.917832  0
C  C74  1  0.04007873  0.01155607  0.53850081  1  0.49081  0  0.1153  0.167028  0  4.011431  0
C  C75  1  0.95992004  0.98844623  0.46150005  1  0.454263  0  0.115361  0.167126  0  4.011356  0
C  C76  1  0.01860111  0.99052728  0.82499714  1  1.58968  0  0.238567  0.646625  0  4.159394  0
C  C77  1  0.98140186  0.00946632  0.17500647  1  1.589192  0  0.238713  0.647085  0  4.159036  0
C  C78  1  0.38511445  0.39320933  0.08755421  1  0.233592  0  -0.130004  -0.273526  0  3.871496  0
C  C79  1  0.61488861  0.60679202  0.91244678  1  0.233739  0  -0.130016  -0.273491  0  3.871493  0
C  C80  1  0.30936685  0.29128332  0.27485090  1  0.27347  0  -0.12923  -0.276619  0  3.885376  0
C  C81  1  0.69063368  0.70871605  0.72514791  1  0.273425  0  -0.129217  -0.276545  0  3.885404  0
C  C82  1  0.27722631  0.20918658  0.14036651  1  1.359318  0  0.180208  0.307332  0  4.09117  0
C  C83  1  0.72277097  0.79081764  0.85963228  1  1.359278  0  0.180256  0.30746  0  4.091105  0
N  N84  1  0.53941053  0.32210324  0.47964385  1  -1.222562  0  -0.31484  -0.299267  0  3.316674  0
N  N85  1  0.46059074  0.67789322  0.52035443  1  -1.222532  0  -0.314835  -0.29917  0  3.316698  0
N  N86  1  0.18975125  0.50488208  0.48562141  1  -1.204383  0  -0.311787  -0.295324  0  3.311317  0
N  N87  1  0.81024572  0.49511143  0.51437435  1  -1.204839  0  -0.311736  -0.295266  0  3.311134  0
N  N88  1  0.15664706  0.05532463  0.50387931  1  -1.195399  0  -0.31334  -0.303166  0  3.323568  0
N  N89  1  0.84335350  0.94467864  0.49611967  1  -1.195434  0  -0.31337  -0.30321  0  3.323617  0
N  N90  1  0.32263284  0.29410535  0.16615713  1  -1.207618  0  -0.274135  0.045098  0  3.7104  0
N  N91  1  0.67736820  0.70589599  0.83384321  1  -1.207447  0  -0.274217  0.04488  0  3.710424  0
O  O92  1  0.39780023  0.66927321  0.12160421  1  -1.166721  0  -0.2971  -0.517566  0  2.143619  0
O  O93  1  0.60219729  0.33073005  0.87839564  1  -1.166829  0  -0.297114  -0.517586  0  2.143546  0
O  O94  1  0.19525312  0.81626867  0.10313886  1  -1.213259  0  -0.389146  -0.679202  0  2.348708  0
O  O95  1  0.80474536  0.18373073  0.89686372  1  -1.213234  0  -0.389207  -0.679235  0  2.348761  0
O  O96  1  0.57665604  0.05274647  0.87430928  1  -1.223352  0  -0.403487  -0.712327  0  2.386654  0
O  O97  1  0.42334223  0.94725778  0.12569242  1  -1.223398  0  -0.403513  -0.712334  0  2.386591  0
O  O98  1  0.34923663  0.15117460  0.85045815  1  -1.178628  0  -0.371189  -0.623764  0  2.239045  0
O  O99  1  0.65076162  0.84882576  0.14954264  1  -1.178596  0  -0.371202  -0.623788  0  2.238977  0
O  O100  1  0.05123271  0.22450630  0.92744700  1  -1.214012  0  -0.622692  -0.825948  0  2.066338  0
O  O101  1  0.94876452  0.77549405  0.07255383  1  -1.214063  0  -0.622702  -0.825966  0  2.066245  0
O  O102  1  0.39634423  0.87451807  0.94302367  1  -1.260884  0  -0.64205  -0.849545  0  2.089903  0
O  O103  1  0.60365227  0.12548520  0.05697695  1  -1.260853  0  -0.642074  -0.849582  0  2.089899  0
O  O104  1  0.90124858  0.96142121  0.84744128  1  -1.193047  0  -0.377805  -0.664503  0  2.342307  0
O  O105  1  0.09875511  0.03856950  0.15256401  1  -1.192875  0  -0.377896  -0.664761  0  2.342356  0
O  O106  1  0.09385615  0.00555387  0.88940951  1  -1.200965  0  -0.403598  -0.666434  0  2.3757  0
O  O107  1  0.90614508  0.99444263  0.11059320  1  -1.200633  0  -0.403658  -0.666567  0  2.375596  0
O  O108  1  0.28137336  0.20645593  0.04807927  1  -1.171284  0  -0.352121  -0.542592  0  2.338583  0
O  O109  1  0.71862696  0.79354830  0.95191939  1  -1.171278  0  -0.352097  -0.542608  0  2.338581  0
