# generated using pymatgen
data_Zn4H4C24S4Br2N2O17
_symmetry_space_group_name_H-M   'P 1'
_cell_length_a   19.63789250
_cell_length_b   19.69787437
_cell_length_c   33.28160306
_cell_angle_alpha   79.18811985
_cell_angle_beta   79.36833094
_cell_angle_gamma   64.02893210
_symmetry_Int_Tables_number   1
_chemical_formula_structural   Zn4H4C24S4Br2N2O17
_chemical_formula_sum   'Zn16 H16 C96 S16 Br8 N8 O68'
_cell_volume   11291.98033119
_cell_formula_units_Z   4
loop_
 _symmetry_equiv_pos_site_id
 _symmetry_equiv_pos_as_xyz
  1  'x, y, z'
loop_
 _atom_site_type_symbol
 _atom_site_label
 _atom_site_symmetry_multiplicity
 _atom_site_fract_x
 _atom_site_fract_y
 _atom_site_fract_z
 _atom_site_occupancy
 _atom_site_pbe_bader_charge
 _atom_site_pbe_bader_spin_density
 _atom_site_pbe_cm5_charge
 _atom_site_pbe_ddec_charge
 _atom_site_pbe_ddec_spin_density
 _atom_site_pbe_ddec_sum_bond_order
 _atom_site_pbe_magmom
Zn  Zn0  1  0.05822841  0.40005996  0.47805666  1  1.317675  0  0.674315  0.973304  0  2.333972  0
Zn  Zn1  1  0.98396250  0.48372639  0.55999367  1  1.323354  0  0.675185  0.966687  0  2.382813  0
Zn  Zn2  1  0.05903197  0.56100673  0.48186156  1  1.32623  0  0.679489  0.976013  0  2.356843  0
Zn  Zn3  1  0.89936000  0.55399879  0.48018254  1  1.324274  0  0.680029  0.976954  0  2.352861  0
Zn  Zn4  1  0.69396182  0.35113692  0.27008801  1  1.318281  0  0.67451  0.972025  0  2.341684  0
Zn  Zn5  1  0.68968439  0.18945140  0.26742681  1  1.315738  0  0.673629  0.965333  0  2.362953  0
Zn  Zn6  1  0.76803124  0.26753248  0.18967330  1  1.321666  0  0.680041  0.978199  0  2.347698  0
Zn  Zn7  1  0.84662905  0.19276042  0.27310756  1  1.322935  0  0.678839  0.970249  0  2.365552  0
Zn  Zn8  1  0.26631235  0.76839059  0.68945985  1  1.31223  0  0.673053  0.961308  0  2.369128  0
Zn  Zn9  1  0.34923861  0.69545738  0.77161307  1  1.316986  0  0.674961  0.96833  0  2.372351  0
Zn  Zn10  1  0.19265307  0.84934618  0.77094339  1  1.325133  0  0.67959  0.977188  0  2.344631  0
Zn  Zn11  1  0.19376337  0.68614503  0.76767990  1  1.324693  0  0.680721  0.978655  0  2.348834  0
Zn  Zn12  1  0.56222684  0.05875450  0.98245192  1  1.314225  0  0.673788  0.965425  0  2.359421  0
Zn  Zn13  1  0.39985756  0.05584476  0.97909889  1  1.320139  0  0.672988  0.962086  0  2.357787  0
Zn  Zn14  1  0.55752849  0.90226084  0.97780865  1  1.322023  0  0.679412  0.974881  0  2.351747  0
Zn  Zn15  1  0.48068020  0.98356171  0.06029282  1  1.326483  0  0.679734  0.973954  0  2.349849  0
H  H16  1  0.74845309  0.45210419  0.35010559  1  0.169048  0  0.130014  0.150359  0  0.960893  0
H  H17  1  0.00152437  0.29702005  0.40017668  1  0.167106  0  0.129804  0.149307  0  0.962308  0
H  H18  1  0.20170810  0.70064471  0.59864329  1  0.114693  0  0.129037  0.149384  0  0.963804  0
H  H19  1  0.04989091  0.54972214  0.65046863  1  0.147125  0  0.128969  0.14832  0  0.966039  0
H  H20  1  0.46359031  0.24093306  0.34007566  1  0.140467  0  0.122919  0.148496  0  0.966815  0
H  H21  1  0.47912681  0.70362587  0.60085379  1  0.151484  0  0.122823  0.148256  0  0.967408  0
H  H22  1  0.20273977  0.98019150  0.60065623  1  0.125978  0  0.12247  0.147802  0  0.968603  0
H  H23  1  0.94736032  0.96928671  0.34950806  1  0.12766  0  0.1249  0.151556  0  0.96393  0
H  H24  1  0.65127075  0.15109182  0.04912042  1  0.178427  0  0.129507  0.149642  0  0.96246  0
H  H25  1  0.59906364  0.09861170  0.20073225  1  0.172256  0  0.129863  0.14966  0  0.963338  0
H  H26  1  0.55030706  0.77188937  0.14801659  1  0.127443  0  0.125289  0.152597  0  0.96336  0
H  H27  1  0.15986553  0.14083296  0.04084873  1  0.141174  0  0.121803  0.146971  0  0.968671  0
H  H28  1  0.29671447  0.00202876  0.89997385  1  0.130252  0  0.129195  0.148986  0  0.963645  0
H  H29  1  0.45139445  0.74969523  0.85045288  1  0.115888  0  0.129768  0.149855  0  0.963336  0
H  H30  1  0.30099434  0.28003908  0.90188863  1  0.103496  0  0.123127  0.148254  0  0.966894  0
H  H31  1  0.79118445  0.00827614  0.90924671  1  0.114721  0  0.122563  0.148188  0  0.966791  0
C  C32  1  0.06308459  0.31700854  0.56162166  1  1.576847  0  0.215793  0.623363  0  4.20601  0
C  C33  1  0.06948332  0.56939583  0.56852653  1  1.602442  0  0.23307  0.608691  0  4.174561  0
C  C34  1  0.18428524  0.43950731  0.43778858  1  1.575187  0  0.216141  0.622947  0  4.206517  0
C  C35  1  0.93578965  0.68286972  0.43929575  1  1.569413  0  0.217154  0.621025  0  4.203192  0
C  C36  1  0.93125827  0.42867135  0.43209533  1  1.61538  0  0.234967  0.612735  0  4.16938  0
C  C37  1  0.81641796  0.56032946  0.56300108  1  1.588618  0  0.216154  0.620525  0  4.209034  0
C  C38  1  0.56659675  0.31159326  0.31122736  1  1.573075  0  0.219325  0.61402  0  4.211535  0
C  C39  1  0.67985613  0.18171264  0.18131235  1  1.602495  0  0.234234  0.611134  0  4.172833  0
C  C40  1  0.68979511  0.43497705  0.18724938  1  1.576228  0  0.216512  0.622082  0  4.206152  0
C  C41  1  0.93344420  0.18808274  0.19030571  1  1.58136  0  0.216818  0.621232  0  4.202275  0
C  C42  1  0.81737397  0.31911194  0.31955139  1  1.626718  0  0.234008  0.610661  0  4.170339  0
C  C43  1  0.81079175  0.06427937  0.31201614  1  1.564108  0  0.218938  0.611062  0  4.212914  0
C  C44  1  0.43305355  0.69049228  0.68803478  1  1.557714  0  0.218883  0.612347  0  4.211602  0
C  C45  1  0.31920947  0.81991152  0.81846443  1  1.620157  0  0.234867  0.613612  0  4.168982  0
C  C46  1  0.18735691  0.93443834  0.68762212  1  1.561472  0  0.219573  0.612715  0  4.216779  0
C  C47  1  0.06777611  0.80834895  0.81078027  1  1.59046  0  0.216505  0.621702  0  4.204826  0
C  C48  1  0.18336716  0.67966660  0.68064236  1  1.615572  0  0.234608  0.611879  0  4.168794  0
C  C49  1  0.31513967  0.56511057  0.81213104  1  1.606824  0  0.216433  0.62063  0  4.208363  0
C  C50  1  0.43861097  0.18284662  0.93854836  1  1.574363  0  0.219213  0.614073  0  4.212345  0
C  C51  1  0.43009281  0.93301635  0.93071137  1  1.6183  0  0.233933  0.61074  0  4.170934  0
C  C52  1  0.68681318  0.93868911  0.93845314  1  1.563957  0  0.219396  0.61183  0  4.213445  0
C  C53  1  0.56006867  0.81754386  0.06097324  1  1.557189  0  0.220155  0.612698  0  4.208101  0
C  C54  1  0.56855307  0.06998024  0.06851565  1  1.596378  0  0.234319  0.61238  0  4.168375  0
C  C55  1  0.31350634  0.06189583  0.06155589  1  1.581587  0  0.219448  0.611319  0  4.214595  0
C  C56  1  0.90188803  0.40270254  0.40209208  1  -0.000487  0  0.005004  -0.050612  0  3.912107  0
C  C57  1  0.84896497  0.34727343  0.34735358  1  0.051218  0  0.005921  -0.045768  0  3.908607  0
C  C58  1  0.83093943  0.44595179  0.38719632  1  0.197474  0  0.094703  0.072551  0  3.907139  0
C  C59  1  0.92064832  0.30477955  0.36149496  1  0.211933  0  0.094668  0.070532  0  3.909282  0
C  C60  1  0.80425086  0.41859099  0.36086622  1  -0.003218  0  -0.059693  -0.123794  0  3.906095  0
C  C61  1  0.94635401  0.33114538  0.38880609  1  0.061643  0  -0.060712  -0.122707  0  3.90676  0
C  C62  1  0.09772310  0.60011861  0.59668879  1  0.018459  0  0.006074  -0.046799  0  3.909647  0
C  C63  1  0.15161816  0.65248798  0.65243767  1  0.079042  0  0.004707  -0.049816  0  3.911428  0
C  C64  1  0.14004034  0.64350673  0.58268936  1  0.200361  0  0.094133  0.070557  0  3.90903  0
C  C65  1  0.10792050  0.61049491  0.66642141  1  0.17892  0  0.095308  0.072754  0  3.908318  0
C  C66  1  0.16765810  0.66822498  0.60986868  1  0.070499  0  -0.060748  -0.123947  0  3.909263  0
C  C67  1  0.08250969  0.58358320  0.63925442  1  0.042404  0  -0.060179  -0.122144  0  3.906551  0
C  C68  1  0.30577906  0.45492935  0.40096430  1  -0.022079  0  -0.021808  0.057436  0  4.004387  0
C  C69  1  0.44689228  0.29732981  0.34843037  1  0.058485  0  -0.086153  -0.128294  0  3.954363  0
C  C70  1  0.25931834  0.41613578  0.41336649  1  -0.102641  0  -0.03037  -0.174679  0  3.952545  0
C  C71  1  0.49208359  0.33700051  0.33638549  1  -0.175848  0  -0.02408  -0.120727  0  3.978531  0
C  C72  1  0.37894234  0.34013518  0.37215055  1  -0.170585  0  -0.019259  0.004746  0  4.068722  0
C  C73  1  0.37405225  0.41154989  0.37751058  1  -0.129617  0  -0.02891  -0.070702  0  4.090051  0
C  C74  1  0.72527586  0.57583513  0.63107001  1  -0.045531  0  -0.022512  0.05973  0  4.006417  0
C  C75  1  0.52365270  0.67478242  0.62113767  1  -0.03045  0  -0.085119  -0.127979  0  3.955539  0
C  C76  1  0.74245547  0.58509013  0.58848480  1  -0.102849  0  -0.029608  -0.174355  0  3.953878  0
C  C77  1  0.50817004  0.66510776  0.66358426  1  -0.121674  0  -0.023908  -0.118841  0  3.980595  0
C  C78  1  0.60304299  0.64259917  0.60914444  1  -0.183873  0  -0.018795  0.002623  0  4.068058  0
C  C79  1  0.64585559  0.60883810  0.64291498  1  -0.104292  0  -0.029216  -0.070623  0  4.094545  0
C  C80  1  0.07600200  0.22610946  0.62979957  1  -0.020185  0  -0.022131  0.060796  0  4.00302  0
C  C81  1  0.17323949  0.02477478  0.62067162  1  0.056293  0  -0.087041  -0.131358  0  3.958978  0
C  C82  1  0.08604809  0.24310248  0.58719034  1  -0.125739  0  -0.031039  -0.176542  0  3.956051  0
C  C83  1  0.16237448  0.00952954  0.66311154  1  -0.160778  0  -0.02254  -0.117383  0  3.978447  0
C  C84  1  0.14119646  0.10392194  0.60838340  1  -0.168234  0  -0.019055  0.004315  0  4.069519  0
C  C85  1  0.10715034  0.14682155  0.64192279  1  -0.121777  0  -0.028864  -0.071771  0  4.093776  0
C  C86  1  0.84138200  0.79940999  0.39706019  1  -0.023716  0  -0.022324  0.056981  0  4.010047  0
C  C87  1  0.90312735  0.94866810  0.35361771  1  0.031175  0  -0.083718  -0.125987  0  3.945126  0
C  C88  1  0.90939019  0.75741478  0.41441639  1  -0.129279  0  -0.030463  -0.175446  0  3.952685  0
C  C89  1  0.83485172  0.98951069  0.33687899  1  -0.176825  0  -0.022935  -0.116456  0  3.974776  0
C  C90  1  0.90553918  0.87931463  0.37583256  1  -0.158308  0  -0.018339  0.00313  0  4.065082  0
C  C91  1  0.83903398  0.86900905  0.37519432  1  -0.09371  0  -0.028919  -0.069737  0  4.093666  0
C  C92  1  0.65380633  0.15159454  0.15171153  1  0.080352  0  0.005423  -0.049986  0  3.909875  0
C  C93  1  0.59864604  0.09601051  0.09814551  1  0.018579  0  0.005303  -0.050179  0  3.910637  0
C  C94  1  0.66878170  0.16486318  0.10877911  1  0.191106  0  0.0945  0.072792  0  3.904638  0
C  C95  1  0.58540416  0.08103755  0.14108475  1  0.193404  0  0.093738  0.070763  0  3.909072  0
C  C96  1  0.64076348  0.13891521  0.08240580  1  0.03519  0  -0.060054  -0.122406  0  3.904352  0
C  C97  1  0.61112988  0.10925027  0.16744749  1  -0.019943  0  -0.059945  -0.122491  0  3.907506  0
C  C98  1  0.67239114  0.52561892  0.11886614  1  0.008267  0  -0.022328  0.057748  0  4.005501  0
C  C99  1  0.57737850  0.72719414  0.12796415  1  0.05024  0  -0.084119  -0.126759  0  3.946978  0
C  C100  1  0.66498420  0.50880743  0.16157978  1  -0.091354  0  -0.030934  -0.175451  0  3.952707  0
C  C101  1  0.58528048  0.74238197  0.08542643  1  -0.136176  0  -0.022589  -0.119265  0  3.975459  0
C  C102  1  0.60897917  0.64803562  0.14025397  1  -0.219281  0  -0.018456  0.005605  0  4.066147  0
C  C103  1  0.64041339  0.60494923  0.10669465  1  -0.172028  0  -0.028289  -0.072989  0  4.091557  0
C  C104  1  0.08117010  0.12446919  0.17909442  1  -0.008505  0  -0.02171  0.057981  0  4.007395  0
C  C105  1  0.16782515  0.12468986  0.07330418  1  0.060834  0  -0.086261  -0.129287  0  3.957678  0
C  C106  1  0.00876464  0.16239096  0.16616062  1  -0.110116  0  -0.030061  -0.174421  0  3.950759  0
C  C107  1  0.23919974  0.08657308  0.08691618  1  -0.248602  0  -0.023498  -0.118983  0  3.975984  0
C  C108  1  0.10990078  0.13830855  0.10689389  1  -0.192479  0  -0.019563  0.002279  0  4.069361  0
C  C109  1  0.13884409  0.11052035  0.14531866  1  -0.148026  0  -0.028391  -0.070862  0  4.092058  0
C  C110  1  0.34541102  0.84919459  0.84838086  1  0.109002  0  0.005128  -0.050268  0  3.91224  0
C  C111  1  0.40168533  0.90160023  0.90296600  1  0.059828  0  0.005237  -0.048835  0  3.913731  0
C  C112  1  0.30228269  0.91985765  0.86319851  1  0.154113  0  0.094381  0.070685  0  3.910345  0
C  C113  1  0.44396024  0.83006092  0.88903167  1  0.181942  0  0.095075  0.071626  0  3.910355  0
C  C114  1  0.33011668  0.94636617  0.88937784  1  0.096607  0  -0.06069  -0.123455  0  3.909813  0
C  C115  1  0.41727055  0.80467682  0.86173385  1  0.023706  0  -0.059826  -0.121947  0  3.906121  0
C  C116  1  0.40970105  0.44732418  0.85379487  1  -0.025504  0  -0.022917  0.059337  0  4.005503  0
C  C117  1  0.34586417  0.29980532  0.89767446  1  0.078656  0  -0.084813  -0.127096  0  3.952533  0
C  C118  1  0.34121230  0.49060538  0.83712203  1  -0.113171  0  -0.029426  -0.174081  0  3.952056  0
C  C119  1  0.41446720  0.25785993  0.91393402  1  -0.185165  0  -0.023095  -0.118512  0  3.978547  0
C  C120  1  0.34382294  0.36925174  0.87580511  1  -0.162432  0  -0.019022  0.003526  0  4.065096  0
C  C121  1  0.41122864  0.37820703  0.87594148  1  -0.109582  0  -0.028778  -0.071468  0  4.094641  0
C  C122  1  0.94636165  0.79354236  0.84846864  1  0.009466  0  -0.022116  0.057409  0  4.00815  0
C  C123  1  0.80732506  0.95175625  0.90123853  1  0.062727  0  -0.086098  -0.129228  0  3.954385  0
C  C124  1  0.99341882  0.83166764  0.83583061  1  -0.136153  0  -0.03046  -0.176217  0  3.953159  0
C  C125  1  0.76159711  0.91268394  0.91359523  1  -0.203562  0  -0.023319  -0.119754  0  3.976453  0
C  C126  1  0.87509176  0.90818145  0.87764651  1  -0.147402  0  -0.019298  0.002261  0  4.069381  0
C  C127  1  0.87896106  0.83705583  0.87243391  1  -0.113781  0  -0.028284  -0.070442  0  4.090373  0
S  S128  1  0.29963898  0.32654945  0.39640542  1  0.280794  0  0.088696  0.139102  0  2.72836  0
S  S129  1  0.45285458  0.42600504  0.35366708  1  0.30186  0  0.09147  0.142867  0  2.771697  0
S  S130  1  0.66112011  0.63412573  0.56303767  1  0.293403  0  0.098452  0.153019  0  2.727907  0
S  S131  1  0.58903354  0.61719734  0.68924661  1  0.299348  0  0.090546  0.142234  0  2.78043  0
S  S132  1  0.13355700  0.16169924  0.56210872  1  0.278696  0  0.090371  0.141435  0  2.730275  0
S  S133  1  0.11372842  0.09030216  0.68839704  1  0.309284  0  0.098015  0.153228  0  2.77103  0
S  S134  1  0.97019192  0.80345438  0.40388521  1  0.302513  0  0.097379  0.152742  0  2.724845  0
S  S135  1  0.77341157  0.94448867  0.34775262  1  0.286471  0  0.086922  0.135924  0  2.776313  0
S  S136  1  0.61853100  0.59037824  0.18662441  1  0.282771  0  0.089049  0.139713  0  2.727789  0
S  S137  1  0.63075886  0.66139247  0.06010858  1  0.308187  0  0.09786  0.153514  0  2.768756  0
S  S138  1  0.01164412  0.18072345  0.11264087  1  0.321937  0  0.095648  0.150151  0  2.726416  0
S  S139  1  0.23678061  0.06719942  0.14026301  1  0.362643  0  0.094754  0.148528  0  2.770922  0
S  S140  1  0.27881879  0.44639016  0.84864213  1  0.291507  0  0.098161  0.152324  0  2.727434  0
S  S141  1  0.47674143  0.30194073  0.90301553  1  0.28939  0  0.089224  0.140842  0  2.778025  0
S  S142  1  0.95494424  0.92067035  0.85336875  1  0.28473  0  0.095779  0.150777  0  2.726559  0
S  S143  1  0.79999347  0.82336128  0.89674023  1  0.300629  0  0.097011  0.151539  0  2.768316  0
Br  Br144  1  0.28621359  0.55153363  0.41308338  1  0.025834  0  0.05794  0.009705  0  1.415818  0
Br  Br145  1  0.79441585  0.52686278  0.67043158  1  0.008545  0  0.046885  -0.006822  0  1.403599  0
Br  Br146  1  0.02749520  0.29525056  0.66888657  1  0.020059  0  0.049106  -0.004509  0  1.404241  0
Br  Br147  1  0.76019406  0.77185829  0.40045931  1  0.027368  0  0.056281  0.00717  0  1.42822  0
Br  Br148  1  0.71658320  0.45600431  0.07993878  1  0.036401  0  0.05776  0.00933  0  1.414062  0
Br  Br149  1  0.10492741  0.09361848  0.23351622  1  0.027222  0  0.05692  0.008126  0  1.425457  0
Br  Br150  1  0.49283696  0.47247497  0.84932806  1  0.012498  0  0.048621  -0.004178  0  1.391833  0
Br  Br151  1  0.96499177  0.69709518  0.83660941  1  0.030054  0  0.058273  0.009618  0  1.425616  0
N  N152  1  0.78102005  0.52421412  0.39735209  1  0.420031  0  0.06039  0.519532  0  4.244014  0
N  N153  1  0.97461051  0.23059488  0.34726270  1  0.434457  0  0.059997  0.518766  0  4.242977  0
N  N154  1  0.15569857  0.66800411  0.53833431  1  0.437316  0  0.061458  0.520466  0  4.242547  0
N  N155  1  0.08380763  0.59420884  0.71073937  1  0.417681  0  0.061197  0.520041  0  4.240884  0
N  N156  1  0.71704529  0.20523812  0.08881439  1  0.449885  0  0.062361  0.520805  0  4.242489  0
N  N157  1  0.54529008  0.03261694  0.16112782  1  0.448289  0  0.061151  0.519433  0  4.244874  0
N  N158  1  0.22378250  0.96967538  0.85294021  1  0.421562  0  0.060443  0.519367  0  4.246573  0
N  N159  1  0.51834860  0.77611541  0.90342018  1  0.444543  0  0.060243  0.516971  0  4.24855  0
O  O160  1  0.00065544  0.49881159  0.49964934  1  -1.239068  0  -0.57093  -1.033479  0  2.519547  0
O  O161  1  0.07433620  0.31521758  0.52253113  1  -1.169883  0  -0.320971  -0.549561  0  2.320919  0
O  O162  1  0.02379981  0.53962093  0.58559830  1  -1.154265  0  -0.303882  -0.527004  0  2.325207  0
O  O163  1  0.15261093  0.50713763  0.44732605  1  -1.172271  0  -0.315223  -0.540025  0  2.391202  0
O  O164  1  0.03456253  0.37614942  0.58023161  1  -1.168992  0  -0.317194  -0.542195  0  2.388837  0
O  O165  1  0.15701318  0.38929610  0.44722410  1  -1.172919  0  -0.321562  -0.549497  0  2.321793  0
O  O166  1  0.09422043  0.57516055  0.53059253  1  -1.154984  0  -0.300498  -0.528058  0  2.361974  0
O  O167  1  0.00021104  0.66013107  0.45304566  1  -1.163086  0  -0.319225  -0.543536  0  2.329342  0
O  O168  1  0.88388430  0.48747077  0.44854194  1  -1.164067  0  -0.302891  -0.529879  0  2.364211  0
O  O169  1  0.89352564  0.64708729  0.44508016  1  -1.150026  0  -0.314611  -0.539631  0  2.386238  0
O  O170  1  0.00044068  0.38876101  0.43852958  1  -1.16462  0  -0.3041  -0.530316  0  2.313049  0
O  O171  1  0.87595411  0.52148144  0.58124253  1  -1.168517  0  -0.316252  -0.541875  0  2.386355  0
O  O172  1  0.81422766  0.58029593  0.52413851  1  -1.148096  0  -0.317211  -0.54113  0  2.329406  0
O  O173  1  0.74879905  0.25071533  0.25016287  1  -1.228931  0  -0.570087  -1.033437  0  2.520099  0
O  O174  1  0.59947306  0.35691930  0.30464340  1  -1.168682  0  -0.319341  -0.546694  0  2.33029  0
O  O175  1  0.66925862  0.15831179  0.21926766  1  -1.155353  0  -0.305229  -0.530402  0  2.319129  0
O  O176  1  0.72850370  0.37563222  0.16916864  1  -1.172927  0  -0.314957  -0.540497  0  2.388495  0
O  O177  1  0.59158062  0.24689640  0.29819671  1  -1.174918  0  -0.316868  -0.539387  0  2.313634  0
O  O178  1  0.67029135  0.43683312  0.22620682  1  -1.151583  0  -0.322485  -0.550154  0  2.324254  0
O  O179  1  0.70915197  0.22819328  0.16576916  1  -1.150408  0  -0.300636  -0.528035  0  2.366067  0
O  O180  1  0.87607578  0.21817168  0.16947780  1  -1.166018  0  -0.318219  -0.543385  0  2.326669  0
O  O181  1  0.85343303  0.24938812  0.31424183  1  -1.164967  0  -0.301931  -0.528648  0  2.364814  0
O  O182  1  0.93104012  0.17878644  0.22942174  1  -1.17029  0  -0.314932  -0.540162  0  2.38728  0
O  O183  1  0.75694868  0.36749691  0.30444855  1  -1.169853  0  -0.304107  -0.530201  0  2.313162  0
O  O184  1  0.74349366  0.09326655  0.30110328  1  -1.167472  0  -0.320959  -0.549115  0  2.333779  0
O  O185  1  0.85887628  0.09380458  0.30345619  1  -1.161962  0  -0.312721  -0.532016  0  2.317634  0
O  O186  1  0.25039971  0.75012950  0.74972657  1  -1.229633  0  -0.570906  -1.0338  0  2.523103  0
O  O187  1  0.37470268  0.72144043  0.66827715  1  -1.168128  0  -0.316803  -0.539676  0  2.309705  0
O  O188  1  0.36053670  0.75142192  0.81154913  1  -1.171039  0  -0.304961  -0.530228  0  2.321899  0
O  O189  1  0.16804112  0.93394008  0.72652044  1  -1.162315  0  -0.316386  -0.540494  0  2.336439  0
O  O190  1  0.43327762  0.67905025  0.72720705  1  -1.155818  0  -0.319369  -0.544824  0  2.341121  0
O  O191  1  0.22591023  0.87664440  0.66807516  1  -1.164363  0  -0.316892  -0.540293  0  2.314535  0
O  O192  1  0.25912125  0.86614385  0.80253624  1  -1.164607  0  -0.301556  -0.531187  0  2.362705  0
O  O193  1  0.09931642  0.85485394  0.80563374  1  -1.176627  0  -0.319453  -0.544775  0  2.333045  0
O  O194  1  0.17916511  0.65323382  0.71840322  1  -1.163129  0  -0.301343  -0.528528  0  2.359097  0
O  O195  1  0.09461665  0.74498899  0.79625147  1  -1.164872  0  -0.31462  -0.540752  0  2.388028  0
O  O196  1  0.21245562  0.72600482  0.66376918  1  -1.161324  0  -0.305718  -0.531288  0  2.319526  0
O  O197  1  0.36153555  0.59640881  0.80192406  1  -1.18491  0  -0.316611  -0.54328  0  2.386454  0
O  O198  1  0.24691509  0.59220881  0.80266127  1  -1.159861  0  -0.317457  -0.541776  0  2.329944  0
O  O199  1  0.49984407  0.00069074  0.99985101  1  -1.228648  0  -0.569863  -1.033233  0  2.521415  0
O  O200  1  0.50393098  0.15661678  0.95159376  1  -1.176319  0  -0.320061  -0.547758  0  2.337925  0
O  O201  1  0.38178176  0.99382346  0.94522772  1  -1.169573  0  -0.305379  -0.530987  0  2.316866  0
O  O202  1  0.65636512  0.89123097  0.94755886  1  -1.157563  0  -0.316795  -0.540584  0  2.336394  0
O  O203  1  0.39280581  0.15073870  0.94466933  1  -1.170475  0  -0.316412  -0.538965  0  2.310907  0
O  O204  1  0.65857797  0.00587440  0.94880194  1  -1.168382  0  -0.316928  -0.540165  0  2.309555  0
O  O205  1  0.49977072  0.89668280  0.93658739  1  -1.169333  0  -0.301325  -0.529052  0  2.364727  0
O  O206  1  0.57230927  0.81791647  0.02176422  1  -1.146418  0  -0.317042  -0.542597  0  2.338453  0
O  O207  1  0.52102260  0.04182112  0.08388763  1  -1.154647  0  -0.301531  -0.530731  0  2.36557  0
O  O208  1  0.52846400  0.87550824  0.08078855  1  -1.167014  0  -0.313364  -0.535571  0  2.315464  0
O  O209  1  0.59300665  0.07954729  0.03065941  1  -1.155792  0  -0.305171  -0.530547  0  2.31643  0
O  O210  1  0.31336260  0.08019449  0.02260574  1  -1.187119  0  -0.317212  -0.540427  0  2.311445  0
O  O211  1  0.37215916  0.02394702  0.08090610  1  -1.165095  0  -0.317479  -0.541453  0  2.337134  0
O  O212  1  0.79999378  0.57505123  0.37920325  1  -0.422533  0  -0.122126  -0.313441  0  1.889849  0
O  O213  1  0.72262258  0.53242790  0.42125912  1  -0.419958  0  -0.126041  -0.314024  0  1.84859  0
O  O214  1  0.00845577  0.23284873  0.31223998  1  -0.428099  0  -0.121737  -0.312788  0  1.889129  0
O  O215  1  0.98426553  0.17337823  0.37241608  1  -0.425996  0  -0.127144  -0.314522  0  1.845945  0
O  O216  1  0.10219540  0.72093509  0.52206441  1  -0.42825  0  -0.12319  -0.310957  0  1.862354  0
O  O217  1  0.22177111  0.63622870  0.52209756  1  -0.43579  0  -0.12643  -0.317706  0  1.866617  0
O  O218  1  0.03194752  0.64764522  0.72736506  1  -0.415817  0  -0.121577  -0.31291  0  1.890719  0
O  O219  1  0.11472528  0.52772956  0.72658969  1  -0.415484  0  -0.126564  -0.314485  0  1.846337  0
O  O220  1  0.78657984  0.16824624  0.08865641  1  -0.438193  0  -0.124766  -0.312699  0  1.862608  0
O  O221  1  0.68395733  0.27072882  0.07217936  1  -0.429412  0  -0.125123  -0.315787  0  1.866678  0
O  O222  1  0.58174968  0.96336206  0.16049531  1  -0.441971  0  -0.124967  -0.312719  0  1.860318  0
O  O223  1  0.48047685  0.06533986  0.17862542  1  -0.425743  0  -0.124839  -0.31305  0  1.849225  0
O  O224  1  0.17284737  0.95099527  0.87134102  1  -0.426393  0  -0.12354  -0.311714  0  1.864315  0
O  O225  1  0.21561229  0.02754784  0.82857272  1  -0.419347  0  -0.125567  -0.31377  0  1.848761  0
O  O226  1  0.51620612  0.74314190  0.93871697  1  -0.429035  0  -0.122247  -0.309581  0  1.86703  0
O  O227  1  0.57547269  0.76592673  0.87816341  1  -0.428828  0  -0.124152  -0.311261  0  1.848228  0
