# generated using pymatgen
data_AgH6C7SNO2
_symmetry_space_group_name_H-M   'P 1'
_cell_length_a   8.15761624
_cell_length_b   9.69075514
_cell_length_c   10.23365329
_cell_angle_alpha   89.99952509
_cell_angle_beta   90.00007304
_cell_angle_gamma   105.63722782
_symmetry_Int_Tables_number   1
_chemical_formula_structural   AgH6C7SNO2
_chemical_formula_sum   'Ag4 H24 C28 S4 N4 O8'
_cell_volume   779.06250036
_cell_formula_units_Z   4
loop_
 _symmetry_equiv_pos_site_id
 _symmetry_equiv_pos_as_xyz
  1  'x, y, z'
loop_
 _atom_site_type_symbol
 _atom_site_label
 _atom_site_symmetry_multiplicity
 _atom_site_fract_x
 _atom_site_fract_y
 _atom_site_fract_z
 _atom_site_occupancy
 _atom_site_pbe_bader_spin_density
 _atom_site_pbe_cm5_charge
 _atom_site_pbe_ddec_charge
 _atom_site_pbe_ddec_spin_density
 _atom_site_pbe_ddec_sum_bond_order
 _atom_site_pbe_magmom
Ag  Ag0  1  0.39236980  0.79480519  0.38778917  1  0  0.418623  0.329114  0  2.053434  0
Ag  Ag1  1  0.39237189  0.29481289  0.11221214  1  0  0.418643  0.329144  0  2.053474  0
Ag  Ag2  1  0.60762477  0.20519535  0.61220804  1  0  0.418616  0.329096  0  2.053422  0
Ag  Ag3  1  0.60763332  0.70519409  0.88779093  1  0  0.418605  0.329128  0  2.053375  0
H  H4  1  0.19471722  0.93808065  0.18315874  1  0  0.116127  0.099091  0  1.014278  0
H  H5  1  0.19471836  0.43808437  0.31683537  1  0  0.116114  0.09914  0  1.014276  0
H  H6  1  0.80528363  0.06192418  0.81683554  1  0  0.116155  0.099197  0  1.01431  0
H  H7  1  0.80528778  0.56191404  0.68316868  1  0  0.116113  0.099131  0  1.014277  0
H  H8  1  0.93661073  0.02220388  0.16897719  1  0  0.10978  0.126074  0  1.020901  0
H  H9  1  0.93660777  0.52220527  0.33101998  1  0  0.109761  0.126014  0  1.020831  0
H  H10  1  0.06338704  0.97779131  0.83102295  1  0  0.109766  0.125994  0  1.020769  0
H  H11  1  0.06339211  0.47778885  0.66898407  1  0  0.109773  0.126042  0  1.020893  0
H  H12  1  0.77171507  0.80632822  0.53700973  1  0  0.109417  0.13892  0  1.017078  0
H  H13  1  0.77171138  0.30631990  0.96298764  1  0  0.10941  0.138935  0  1.017008  0
H  H14  1  0.22828352  0.19367340  0.46298748  1  0  0.109418  0.138911  0  1.016991  0
H  H15  1  0.22829197  0.69367743  0.03701152  1  0  0.10946  0.138964  0  1.017029  0
H  H16  1  0.04299816  0.73273443  0.53652302  1  0  0.109868  0.077906  0  1.023694  0
H  H17  1  0.04300348  0.23273898  0.96347614  1  0  0.109883  0.077896  0  1.023757  0
H  H18  1  0.95700132  0.26726612  0.46347517  1  0  0.109892  0.077963  0  1.02371  0
H  H19  1  0.95701031  0.76726801  0.03652497  1  0  0.109871  0.077952  0  1.02362  0
H  H20  1  0.51521265  0.07927371  0.19707327  1  0  0.105701  0.149049  0  1.010521  0
H  H21  1  0.51521708  0.57927535  0.30292107  1  0  0.105716  0.149063  0  1.010548  0
H  H22  1  0.48479011  0.92073326  0.80292101  1  0  0.105682  0.149032  0  1.01059  0
H  H23  1  0.48478970  0.42073270  0.69707711  1  0  0.10569  0.14906  0  1.010523  0
H  H24  1  0.73481434  0.11790673  0.16060335  1  0  0.096634  0.124855  0  1.039567  0
H  H25  1  0.73481545  0.61790161  0.33939286  1  0  0.096628  0.124844  0  1.039667  0
H  H26  1  0.26518876  0.88210132  0.83939972  1  0  0.096638  0.124871  0  1.039716  0
H  H27  1  0.26518286  0.38209144  0.66061217  1  0  0.096646  0.124836  0  1.039639  0
C  C28  1  0.09918577  0.91110705  0.26058569  1  0  0.042715  0.092513  0  3.938111  0
C  C29  1  0.09918790  0.41111040  0.23941244  1  0  0.042734  0.09248  0  3.938031  0
C  C30  1  0.90080709  0.08888813  0.73941152  1  0  0.0427  0.092387  0  3.938146  0
C  C31  1  0.90081388  0.58888587  0.76059259  1  0  0.042765  0.092524  0  3.938092  0
C  C32  1  0.95327909  0.95894417  0.25317412  1  0  -0.089758  -0.171475  0  3.931446  0
C  C33  1  0.95327513  0.45893994  0.24681766  1  0  -0.089826  -0.171517  0  3.931495  0
C  C34  1  0.04671970  0.04105423  0.74681527  1  0  -0.089779  -0.171393  0  3.93148  0
C  C35  1  0.04672548  0.54104882  0.75318346  1  0  -0.089778  -0.171504  0  3.931563  0
C  C36  1  0.83373229  0.92500718  0.35477036  1  0  0.005798  0.095676  0  3.988023  0
C  C37  1  0.83372881  0.42500493  0.14522743  1  0  0.005836  0.09574  0  3.988073  0
C  C38  1  0.16626513  0.07498694  0.64522587  1  0  0.005817  0.095678  0  3.988224  0
C  C39  1  0.16627195  0.57498812  0.85477662  1  0  0.005779  0.095581  0  3.988363  0
C  C40  1  0.86464744  0.84035331  0.45850982  1  0  -0.089428  -0.176256  0  3.939568  0
C  C41  1  0.86464674  0.34034878  0.04148770  1  0  -0.089368  -0.176212  0  3.939408  0
C  C42  1  0.13534836  0.15964724  0.54149032  1  0  -0.089374  -0.176164  0  3.939434  0
C  C43  1  0.13536015  0.65964427  0.95851147  1  0  -0.08947  -0.176247  0  3.939552  0
C  C44  1  0.01405193  0.79763616  0.45717376  1  0  0.03576  0.081416  0  3.984201  0
C  C45  1  0.01405607  0.29763912  0.04282225  1  0  0.035729  0.081413  0  3.984335  0
C  C46  1  0.98594005  0.20236010  0.54281856  1  0  0.035678  0.081272  0  3.984331  0
C  C47  1  0.98595042  0.70236036  0.95717985  1  0  0.035708  0.081307  0  3.984122  0
C  C48  1  0.62519653  0.03401900  0.19530385  1  0  -0.157861  -0.333976  0  3.86171  0
C  C49  1  0.62519414  0.53401847  0.30469487  1  0  -0.157883  -0.333976  0  3.861713  0
C  C50  1  0.37479716  0.96598262  0.80469532  1  0  -0.157804  -0.33392  0  3.861864  0
C  C51  1  0.37480254  0.46598100  0.69531114  1  0  -0.157832  -0.333924  0  3.861917  0
C  C52  1  0.58740057  0.90215508  0.10562763  1  0  0.186803  0.624783  0  4.186317  0
C  C53  1  0.58740127  0.40215703  0.39437400  1  0  0.18674  0.624834  0  4.186342  0
C  C54  1  0.41260185  0.09785083  0.89437153  1  0  0.186826  0.62487  0  4.186633  0
C  C55  1  0.41259139  0.59784138  0.60563982  1  0  0.186857  0.624906  0  4.186192  0
S  S56  1  0.65360942  0.99174629  0.36354889  1  0  0.026371  0.080838  0  3.255749  0
S  S57  1  0.65361154  0.49174627  0.13644819  1  0  0.02632  0.080768  0  3.255791  0
S  S58  1  0.34638692  0.00825212  0.63645028  1  0  0.02631  0.08078  0  3.255794  0
S  S59  1  0.34639113  0.50824892  0.86355586  1  0  0.026357  0.08084  0  3.255858  0
N  N60  1  0.13123655  0.83238287  0.36103500  1  0  -0.349094  -0.234175  0  3.583002  0
N  N61  1  0.13123969  0.33238604  0.13896183  1  0  -0.349045  -0.234141  0  3.582942  0
N  N62  1  0.86876380  0.16761661  0.63896221  1  0  -0.349066  -0.234128  0  3.583043  0
N  N63  1  0.86876890  0.66761237  0.86103831  1  0  -0.349008  -0.234081  0  3.583009  0
O  O64  1  0.67044435  0.92094600  0.99816810  1  0  -0.34007  -0.53167  0  2.234632  0
O  O65  1  0.67044159  0.42094290  0.50182435  1  0  -0.339992  -0.531622  0  2.234805  0
O  O66  1  0.32957729  0.07906634  0.00182716  1  0  -0.340048  -0.531631  0  2.234841  0
O  O67  1  0.32955122  0.57905978  0.49817872  1  0  -0.34004  -0.531653  0  2.234608  0
O  O68  1  0.48128890  0.78807874  0.14174807  1  0  -0.337387  -0.572707  0  2.222126  0
O  O69  1  0.48129196  0.28807673  0.35825240  1  0  -0.337396  -0.57278  0  2.222063  0
O  O70  1  0.51870228  0.21193038  0.85824328  1  0  -0.337443  -0.57283  0  2.222339  0
O  O71  1  0.51870261  0.71192382  0.64175849  1  0  -0.337483  -0.572845  0  2.221879  0
