# generated using pymatgen
data_Ni7H38C18(N3O10)2
_symmetry_space_group_name_H-M   'P 1'
_cell_length_a   9.48579803
_cell_length_b   9.48579374
_cell_length_c   9.48584153
_cell_angle_alpha   101.70948849
_cell_angle_beta   101.70976691
_cell_angle_gamma   101.70924187
_symmetry_Int_Tables_number   1
_chemical_formula_structural   Ni7H38C18(N3O10)2
_chemical_formula_sum   'Ni7 H38 C18 N6 O20'
_cell_volume   791.40884918
_cell_formula_units_Z   1
loop_
 _symmetry_equiv_pos_site_id
 _symmetry_equiv_pos_as_xyz
  1  'x, y, z'
loop_
 _atom_site_type_symbol
 _atom_site_label
 _atom_site_symmetry_multiplicity
 _atom_site_fract_x
 _atom_site_fract_y
 _atom_site_fract_z
 _atom_site_occupancy
 _atom_site_hle17_ddec_charge
 _atom_site_hle17_ddec_spin_density
 _atom_site_hle17_ddec_sum_bond_order
 _atom_site_hle17_magmom
 _atom_site_hse06_10hf_ddec_charge
 _atom_site_hse06_10hf_ddec_spin_density
 _atom_site_hse06_10hf_ddec_sum_bond_order
 _atom_site_hse06_10hf_magmom
 _atom_site_hse06_ddec_charge
 _atom_site_hse06_ddec_spin_density
 _atom_site_hse06_ddec_sum_bond_order
 _atom_site_hse06_magmom
 _atom_site_pbe_cm5_charge
 _atom_site_pbe_ddec_charge
 _atom_site_pbe_ddec_spin_density
 _atom_site_pbe_ddec_sum_bond_order
 _atom_site_pbe_magmom
Ni  Ni0  1  0.49999976  0.49999955  0.50000121  1  0.988563  1.771632  2.106861  1.525  1.020972  1.807264  2.495691  1.624  1.113286  1.848465  2.415373  1.696  0.569458  0.962032  1.791427  2.547369  1.58
Ni  Ni1  1  0.32647800  0.42838460  0.18111731  1  0.913062  1.731424  1.98092  1.504  0.939414  1.807231  2.366173  1.632  1.034696  1.857056  2.28484  1.713  0.601416  0.866772  1.760743  2.425972  1.562
Ni  Ni2  1  0.18112086  0.32647512  0.42838297  1  0.912951  1.731398  1.981033  1.504  0.939303  1.807224  2.366324  1.632  1.034603  1.857043  2.284933  1.713  0.601396  0.866657  1.760729  2.426119  1.562
Ni  Ni3  1  0.42838068  0.18112190  0.32647551  1  0.912965  1.73137  1.981033  1.504  0.939315  1.807213  2.36632  1.632  1.034626  1.857031  2.28493  1.713  0.601407  0.866667  1.760713  2.426115  1.562
Ni  Ni4  1  0.81888081  0.67352398  0.57161777  1  0.913005  1.731391  1.98102  1.504  0.939354  1.807224  2.366294  1.632  1.034627  1.857046  2.284961  1.713  0.601386  0.866702  1.760727  2.426082  1.562
Ni  Ni5  1  0.57161592  0.81888274  0.67352637  1  0.913062  1.731415  1.980962  1.504  0.93941  1.807232  2.366231  1.632  1.034692  1.857051  2.284893  1.713  0.601408  0.866765  1.760743  2.426021  1.562
Ni  Ni6  1  0.67352824  0.57161561  0.81887823  1  0.91294  1.73135  1.980992  1.504  0.939294  1.807217  2.366263  1.632  1.034576  1.857025  2.284918  1.713  0.601385  0.866635  1.760706  2.426049  1.562
H  H7  1  0.06809467  0.43139619  0.17107837  1  0.25859  -0.002299  0.931112  -0.002  0.252064  -0.00062  0.988137  -0.001  0.25751  -0.000819  0.985795  -0.001  0.291434  0.247548  -0.000314  0.990613  -0.001
H  H8  1  0.17107605  0.06808856  0.43139607  1  0.2587  -0.00231  0.930892  -0.002  0.252157  -0.00062  0.987979  -0.001  0.257601  -0.000819  0.985643  -0.001  0.291458  0.247643  -0.000314  0.990453  -0.001
H  H9  1  0.43139662  0.17107635  0.06809261  1  0.258697  -0.002301  0.930982  -0.002  0.252151  -0.00062  0.988048  -0.001  0.257597  -0.000819  0.985708  -0.001  0.291453  0.247634  -0.000314  0.990518  -0.001
H  H10  1  0.82891833  0.93191159  0.56859814  1  0.258733  -0.002296  0.930823  -0.002  0.252169  -0.00062  0.987955  -0.001  0.257618  -0.000818  0.985609  -0.001  0.291448  0.247652  -0.000314  0.990425  -0.001
H  H11  1  0.56859642  0.82891828  0.93191077  1  0.258738  -0.002308  0.930833  -0.002  0.252175  -0.00062  0.987966  -0.001  0.257624  -0.000819  0.98562  -0.001  0.291452  0.24766  -0.000314  0.990436  -0.001
H  H12  1  0.93191423  0.56859738  0.82892059  1  0.258743  -0.002315  0.93085  -0.002  0.252179  -0.00062  0.987973  -0.001  0.257628  -0.000819  0.985625  -0.001  0.291459  0.247661  -0.000314  0.990446  -0.001
H  H13  1  0.03283263  0.24664150  0.94799012  1  0.060669  0.000607  0.918106  0.001  0.079996  0.000677  0.977344  0.001  0.080126  0.000428  0.977039  0.001  0.102775  0.07978  0.001111  0.977592  0.001
H  H14  1  0.94798635  0.03283013  0.24664385  1  0.060685  0.000607  0.918137  0.001  0.080007  0.000677  0.977344  0.001  0.080138  0.000427  0.977036  0.001  0.10278  0.079785  0.001111  0.977599  0.001
H  H15  1  0.24664145  0.94798765  0.03283272  1  0.060632  0.000611  0.91813  0.001  0.079991  0.000677  0.977335  0.001  0.080121  0.000427  0.977034  0.001  0.102786  0.079776  0.001111  0.977586  0.001
H  H16  1  0.05200721  0.96716670  0.75335270  1  0.06064  0.000612  0.918168  0.001  0.079983  0.000677  0.977389  0.001  0.080117  0.000427  0.977069  0.001  0.102776  0.079771  0.001111  0.977635  0.001
H  H17  1  0.75335186  0.05200808  0.96716883  1  0.060651  0.000601  0.918158  0.001  0.08  0.000677  0.977351  0.001  0.080137  0.000427  0.977023  0.001  0.10278  0.079783  0.001111  0.977606  0.001
H  H18  1  0.96716928  0.75335427  0.05201000  1  0.060657  0.000604  0.918127  0.001  0.079995  0.000677  0.977344  0.001  0.080132  0.000428  0.977018  0.001  0.102769  0.079779  0.001111  0.977594  0.001
H  H19  1  0.09597043  0.38887329  0.86271773  1  0.080332  1.7e-05  0.928885  0.0  0.09384  7.1e-05  0.995415  0.0  0.094314  2.6e-05  0.995773  0.0  0.106986  0.092998  0.000137  0.996334  0.0
H  H20  1  0.86271624  0.09597188  0.38887650  1  0.080404  6e-06  0.928833  0.0  0.093895  7.1e-05  0.995355  0.0  0.094371  2.6e-05  0.995712  0.0  0.107034  0.093055  0.000137  0.996263  0.0
H  H21  1  0.38887339  0.86271443  0.09597111  1  0.080375  -0.0  0.928798  0.0  0.093886  7.2e-05  0.995341  0.0  0.094369  2.6e-05  0.995686  0.0  0.107013  0.093047  0.000137  0.996253  0.0
H  H22  1  0.13727516  0.90402492  0.61111856  1  0.080332  9e-06  0.92887  0.0  0.093849  7.2e-05  0.995398  0.0  0.094297  2.6e-05  0.995784  0.0  0.106993  0.093007  0.000137  0.996322  0.0
H  H23  1  0.61111773  0.13727685  0.90403017  1  0.080367  9e-06  0.928811  0.0  0.093856  7.1e-05  0.995355  0.0  0.094319  2.6e-05  0.995721  0.0  0.106996  0.093014  0.000137  0.996273  0.0
H  H24  1  0.90402740  0.61111910  0.13727773  1  0.080348  1.5e-05  0.92881  0.0  0.093851  7.1e-05  0.995343  0.0  0.094292  2.6e-05  0.995739  0.0  0.106983  0.093009  0.000137  0.996259  0.0
H  H25  1  0.18348061  0.64993151  0.01573776  1  0.071005  -4e-05  0.921812  0.0  0.088748  6e-05  0.982486  0.0  0.088622  2.3e-05  0.983272  0.0  0.106868  0.088623  0.00012  0.982646  0.0
H  H26  1  0.01573439  0.18347796  0.64993069  1  0.07101  -1.4e-05  0.92178  0.0  0.088716  5.9e-05  0.982506  0.0  0.088587  2.3e-05  0.983298  0.0  0.106858  0.08859  0.00012  0.982663  0.0
H  H27  1  0.64992866  0.01573168  0.18347796  1  0.071089  -3e-05  0.921834  0.0  0.088768  5.9e-05  0.982599  0.0  0.088642  2.3e-05  0.983391  0.0  0.106877  0.08864  0.00012  0.982763  0.0
H  H28  1  0.98426025  0.81651888  0.35006713  1  0.071002  -3e-05  0.92183  0.0  0.088727  5.9e-05  0.982509  0.0  0.088606  2.3e-05  0.983294  0.0  0.106858  0.088603  0.00012  0.98267  0.0
H  H29  1  0.35006544  0.98426294  0.81652248  1  0.070994  -2.9e-05  0.921791  0.0  0.088663  5.9e-05  0.982546  0.0  0.088538  2.3e-05  0.983329  0.0  0.106853  0.088537  0.00012  0.982713  0.0
H  H30  1  0.81652215  0.35006761  0.98426530  1  0.070975  -3e-05  0.921814  0.0  0.088678  6e-05  0.982554  0.0  0.088555  2.3e-05  0.983344  0.0  0.106847  0.088551  0.00012  0.982716  0.0
H  H31  1  0.18396616  0.68854741  0.20674989  1  0.083817  0.000859  0.921763  0.001  0.098487  0.000873  0.984574  0.001  0.099479  0.000571  0.983539  0.001  0.108594  0.097313  0.001233  0.98601  0.001
H  H32  1  0.20674878  0.18396538  0.68854704  1  0.083793  0.000864  0.921751  0.001  0.098466  0.000873  0.984557  0.001  0.099458  0.000571  0.983525  0.001  0.108569  0.097291  0.001233  0.985994  0.001
H  H33  1  0.68854475  0.20674530  0.18396617  1  0.083794  0.000856  0.921743  0.001  0.098483  0.000873  0.984542  0.001  0.099472  0.000571  0.983517  0.001  0.108554  0.097336  0.001233  0.985943  0.001
H  H34  1  0.79324829  0.81603256  0.31144832  1  0.083825  0.000842  0.921767  0.001  0.098481  0.000873  0.984576  0.001  0.099482  0.000571  0.983534  0.001  0.108589  0.097301  0.001233  0.986014  0.001
H  H35  1  0.31144640  0.79325042  0.81603495  1  0.083786  0.000846  0.921817  0.001  0.098438  0.000873  0.984633  0.001  0.099435  0.000571  0.98359  0.001  0.10856  0.097291  0.001234  0.98604  0.001
H  H36  1  0.81603522  0.31144615  0.79325284  1  0.08378  0.000844  0.921768  0.001  0.09845  0.000873  0.984584  0.001  0.099449  0.000571  0.983548  0.001  0.108551  0.097293  0.001233  0.985998  0.001
H  H37  1  0.15482123  0.15481909  0.15482268  1  0.368657  0.001331  0.887155  0.0  0.361283  0.002965  0.945072  0.002  0.372116  0.001982  0.935831  0.002  0.290537  0.353572  0.004062  0.951146  0.003
H  H38  1  0.84517529  0.84517664  0.84517530  1  0.368728  0.001334  0.887069  0.0  0.361351  0.002965  0.944992  0.002  0.372179  0.001982  0.93576  0.002  0.29053  0.353638  0.004062  0.951069  0.003
H  H39  1  0.29399051  0.61778566  0.41997311  1  0.401855  0.001647  0.870988  0.001  0.385086  0.002925  0.938084  0.003  0.396491  0.002106  0.922122  0.002  0.2894  0.377298  0.003666  0.945764  0.004
H  H40  1  0.41997392  0.29399001  0.61778749  1  0.401869  0.001642  0.870948  0.001  0.385114  0.002925  0.938033  0.003  0.396518  0.002106  0.922071  0.002  0.289414  0.377325  0.003667  0.945693  0.004
H  H41  1  0.61778794  0.41997316  0.29399242  1  0.401882  0.001649  0.870947  0.001  0.385132  0.002925  0.938003  0.003  0.396536  0.002107  0.922042  0.002  0.289422  0.377345  0.003667  0.94567  0.004
H  H42  1  0.58002102  0.70600796  0.38221483  1  0.401897  0.001643  0.87099  0.001  0.385135  0.002924  0.938028  0.003  0.396542  0.002106  0.922062  0.002  0.289424  0.37735  0.003666  0.945733  0.004
H  H43  1  0.38221262  0.58002149  0.70600720  1  0.401905  0.001643  0.870909  0.001  0.385153  0.002924  0.937977  0.003  0.396553  0.002106  0.922021  0.002  0.289441  0.377362  0.003666  0.945648  0.004
H  H44  1  0.70600627  0.38221117  0.58002092  1  0.401877  0.001646  0.870989  0.001  0.385117  0.002924  0.938045  0.003  0.396516  0.002107  0.92209  0.002  0.289407  0.377323  0.003666  0.945741  0.004
C  C45  1  0.03554050  0.36262477  0.94547566  1  0.003052  0.002437  3.635955  0.002  -0.054467  0.002618  3.911514  0.002  -0.050356  0.001364  3.924683  0.001  -0.074154  -0.057152  0.00386  3.902561  0.003
C  C46  1  0.94547402  0.03553826  0.36262575  1  0.002889  0.002427  3.636091  0.002  -0.054559  0.002619  3.911534  0.002  -0.050452  0.001367  3.924704  0.001  -0.074225  -0.057239  0.00386  3.902571  0.003
C  C47  1  0.36262208  0.94547356  0.03553960  1  0.003024  0.00244  3.635873  0.002  -0.054529  0.00262  3.91141  0.002  -0.050427  0.001365  3.924568  0.001  -0.074191  -0.057214  0.00386  3.902459  0.003
C  C48  1  0.05451818  0.96445744  0.63736925  1  0.00301  0.002442  3.63619  0.002  -0.054545  0.002619  3.911789  0.002  -0.050414  0.001364  3.924935  0.001  -0.074202  -0.057228  0.00386  3.902823  0.003
C  C49  1  0.63736931  0.05451883  0.96445984  1  0.002997  0.002456  3.636095  0.002  -0.054488  0.002619  3.911644  0.002  -0.05036  0.001365  3.924791  0.001  -0.074185  -0.057178  0.003859  3.902684  0.003
C  C50  1  0.96446140  0.63737098  0.05452128  1  0.003008  0.002443  3.636121  0.002  -0.054515  0.002618  3.911697  0.002  -0.050384  0.001363  3.924847  0.001  -0.074188  -0.0572  0.003859  3.90273  0.003
C  C51  1  0.47362608  0.41809165  0.95160397  1  0.524751  -0.014116  3.889943  -0.009  0.48828  -0.004474  4.187614  -0.003  0.520316  -0.003819  4.181429  -0.002  0.20481  0.46428  -0.005706  4.193675  -0.004
C  C52  1  0.95161052  0.47362069  0.41808888  1  0.524647  -0.014112  3.890005  -0.009  0.488142  -0.004471  4.187762  -0.003  0.520177  -0.003817  4.181583  -0.002  0.204752  0.464145  -0.005703  4.193824  -0.004
C  C53  1  0.41807850  0.95162762  0.47359720  1  0.524598  -0.014131  3.889917  -0.009  0.488102  -0.004471  4.187655  -0.003  0.520137  -0.003817  4.181479  -0.002  0.204739  0.464106  -0.005703  4.193718  -0.004
C  C54  1  0.04840337  0.52639290  0.58191298  1  0.524741  -0.014106  3.889703  -0.009  0.488243  -0.004472  4.187444  -0.003  0.520276  -0.003818  4.181265  -0.002  0.204781  0.464246  -0.005703  4.193509  -0.004
C  C55  1  0.58191231  0.04840140  0.52639679  1  0.524711  -0.014106  3.889983  -0.009  0.488252  -0.004472  4.187648  -0.003  0.520286  -0.003818  4.181468  -0.002  0.204754  0.464253  -0.005703  4.193709  -0.004
C  C56  1  0.52641522  0.58191980  0.04838818  1  0.524793  -0.014121  3.889677  -0.009  0.488339  -0.004472  4.187344  -0.003  0.520372  -0.003818  4.181166  -0.002  0.204853  0.464343  -0.005703  4.193402  -0.004
C  C57  1  0.12215631  0.61761526  0.09576649  1  0.003932  0.002028  3.621223  0.002  -0.052342  0.002368  3.89378  0.002  -0.048011  0.00112  3.906239  0.001  -0.073489  -0.055283  0.003721  3.885427  0.003
C  C58  1  0.09576365  0.12215553  0.61761318  1  0.004008  0.001955  3.621087  0.002  -0.052215  0.002371  3.893633  0.002  -0.047886  0.001119  3.906097  0.001  -0.073428  -0.055157  0.003721  3.885273  0.003
C  C59  1  0.61761235  0.09575808  0.12215580  1  0.003899  0.002018  3.621203  0.002  -0.052404  0.002369  3.893877  0.002  -0.04807  0.001119  3.906323  0.001  -0.073475  -0.055375  0.003721  3.885517  0.003
C  C60  1  0.90423342  0.87784242  0.38238324  1  0.003928  0.002071  3.621292  0.002  -0.052292  0.00237  3.893768  0.002  -0.04798  0.001121  3.906267  0.001  -0.073485  -0.055237  0.003721  3.885406  0.003
C  C61  1  0.38238012  0.90423432  0.87784491  1  0.003952  0.002033  3.621264  0.002  -0.052197  0.002368  3.893705  0.002  -0.04787  0.001118  3.906189  0.001  -0.07348  -0.055164  0.003721  3.885352  0.003
C  C62  1  0.87784482  0.38238163  0.90423791  1  0.004023  0.002034  3.621216  0.002  -0.052232  0.002368  3.893797  0.002  -0.047916  0.001119  3.906286  0.001  -0.073467  -0.055197  0.00372  3.885431  0.003
N  N63  1  0.12092932  0.46088250  0.09245604  1  -0.400168  0.05578  3.26561  0.091  -0.367166  0.035613  3.550333  0.059  -0.396692  0.026509  3.565044  0.047  -0.496098  -0.345094  0.042674  3.539438  0.066
N  N64  1  0.09245299  0.12092543  0.46088189  1  -0.400169  0.055805  3.265355  0.091  -0.367275  0.035613  3.55022  0.059  -0.396777  0.02651  3.564864  0.047  -0.49613  -0.345201  0.042676  3.539324  0.066
N  N65  1  0.46088008  0.09245315  0.12092829  1  -0.400204  0.055799  3.265366  0.091  -0.367204  0.035616  3.550131  0.059  -0.396735  0.026511  3.564849  0.047  -0.496121  -0.345129  0.042679  3.539237  0.066
N  N66  1  0.90754112  0.87907362  0.53911521  1  -0.400221  0.055779  3.265657  0.091  -0.367214  0.035615  3.550294  0.059  -0.396743  0.026509  3.565016  0.047  -0.49605  -0.345137  0.042677  3.539398  0.066
N  N67  1  0.53911215  0.90754258  0.87907410  1  -0.400236  0.055795  3.265646  0.091  -0.367254  0.035613  3.550297  0.059  -0.396795  0.026509  3.56502  0.047  -0.496067  -0.345177  0.042676  3.5394  0.066
N  N68  1  0.87907717  0.53911438  0.90754205  1  -0.400227  0.055811  3.265592  0.091  -0.367237  0.035617  3.550315  0.059  -0.396751  0.026514  3.564994  0.047  -0.49604  -0.345159  0.04268  3.539415  0.066
O  O69  1  0.36952560  0.33060371  0.98114778  1  -0.563546  0.035955  2.091286  0.062  -0.53257  0.027904  2.346775  0.047  -0.563438  0.021109  2.335107  0.038  -0.30352  -0.510084  0.033754  2.356228  0.055
O  O70  1  0.98114841  0.36951851  0.33060528  1  -0.563408  0.035965  2.091445  0.062  -0.532401  0.027902  2.346945  0.047  -0.563275  0.021109  2.33528  0.038  -0.303425  -0.509918  0.033751  2.3564  0.055
O  O71  1  0.33061315  0.98114921  0.36952399  1  -0.56327  0.035919  2.092164  0.062  -0.532279  0.027882  2.347698  0.047  -0.563127  0.021097  2.33602  0.038  -0.303383  -0.50981  0.033724  2.357159  0.055
O  O72  1  0.01886734  0.63048955  0.66939795  1  -0.563419  0.03596  2.091282  0.062  -0.532418  0.027899  2.346794  0.047  -0.563283  0.021107  2.335126  0.038  -0.303395  -0.509935  0.033747  2.35625  0.055
O  O73  1  0.66939298  0.01886771  0.63048331  1  -0.56338  0.035942  2.091562  0.062  -0.532391  0.027894  2.347052  0.047  -0.563252  0.021103  2.335382  0.038  -0.3034  -0.509914  0.033742  2.356508  0.055
O  O74  1  0.63048960  0.66939772  0.01886561  1  -0.563384  0.035938  2.091904  0.062  -0.532395  0.027887  2.347393  0.047  -0.563251  0.021099  2.335724  0.038  -0.303423  -0.509921  0.03373  2.356846  0.055
O  O75  1  0.53800934  0.38210138  0.84991078  1  -0.556424  0.038898  2.078311  0.066  -0.525563  0.029282  2.335013  0.049  -0.556614  0.021919  2.32248  0.039  -0.297523  -0.503953  0.03587  2.345527  0.058
O  O76  1  0.84992023  0.53801066  0.38210167  1  -0.556386  0.038894  2.078178  0.066  -0.525538  0.029283  2.334927  0.049  -0.556584  0.021919  2.32239  0.039  -0.297519  -0.503928  0.035872  2.345445  0.058
O  O77  1  0.38209156  0.84991151  0.53801922  1  -0.556479  0.038952  2.077334  0.066  -0.525626  0.029303  2.334049  0.049  -0.556705  0.021932  2.321548  0.039  -0.297534  -0.503996  0.035899  2.344559  0.058
O  O78  1  0.15009606  0.46199962  0.61790106  1  -0.556419  0.038896  2.078072  0.066  -0.525563  0.029288  2.334794  0.049  -0.556621  0.021923  2.322274  0.039  -0.297572  -0.50395  0.035879  2.345316  0.058
O  O79  1  0.61790251  0.15010431  0.46200337  1  -0.556451  0.038913  2.078061  0.066  -0.525603  0.029293  2.334759  0.049  -0.556667  0.021926  2.322229  0.039  -0.297557  -0.503988  0.035884  2.345274  0.058
O  O80  1  0.46199943  0.61790888  0.15009466  1  -0.556508  0.038932  2.077444  0.066  -0.52568  0.0293  2.334142  0.049  -0.556748  0.021929  2.321623  0.039  -0.297593  -0.504062  0.035896  2.344659  0.058
O  O81  1  0.23148537  0.23148512  0.23148398  1  -0.842797  0.131353  1.968922  0.216  -0.854527  0.092834  2.265701  0.149  -0.912688  0.070696  2.240824  0.12  -0.556641  -0.809994  0.111519  2.282197  0.171
O  O82  1  0.76851197  0.76851393  0.76851061  1  -0.842849  0.131348  1.968886  0.216  -0.85457  0.092834  2.265661  0.149  -0.91272  0.070697  2.240796  0.12  -0.556606  -0.810041  0.111521  2.282161  0.171
O  O83  1  0.29979404  0.51532518  0.38532658  1  -0.887701  0.140656  2.03877  0.231  -0.899571  0.095666  2.340252  0.154  -0.961816  0.073447  2.31341  0.125  -0.573751  -0.851246  0.115374  2.353342  0.178
O  O84  1  0.38532732  0.29979287  0.51532380  1  -0.887737  0.140645  2.038874  0.231  -0.899594  0.095658  2.340371  0.154  -0.961846  0.073442  2.313522  0.125  -0.57375  -0.851283  0.115364  2.35346  0.178
O  O85  1  0.51532387  0.38532949  0.29979440  1  -0.887747  0.140659  2.038858  0.231  -0.899633  0.095669  2.340387  0.154  -0.961892  0.073447  2.313545  0.125  -0.57375  -0.851326  0.115383  2.353465  0.178
O  O86  1  0.61466844  0.70020842  0.48467619  1  -0.887758  0.140668  2.038822  0.231  -0.899653  0.095667  2.340339  0.154  -0.961907  0.07345  2.313494  0.125  -0.573756  -0.851333  0.11538  2.353428  0.178
O  O87  1  0.48467648  0.61467294  0.70020674  1  -0.887745  0.140662  2.038762  0.231  -0.899627  0.095664  2.340262  0.154  -0.961861  0.073448  2.313424  0.125  -0.573768  -0.851308  0.115373  2.353356  0.178
O  O88  1  0.70020788  0.48467500  0.61466809  1  -0.88771  0.140661  2.038818  0.231  -0.899604  0.095666  2.340332  0.154  -0.961842  0.073449  2.313499  0.125  -0.573737  -0.851268  0.115379  2.353422  0.178
