# generated using pymatgen
data_NdH21(C9O2)3
_symmetry_space_group_name_H-M   'P 1'
_cell_length_a   7.73108385
_cell_length_b   13.30603503
_cell_length_c   13.33890000
_cell_angle_alpha   116.33786601
_cell_angle_beta   101.43030708
_cell_angle_gamma   101.02187110
_symmetry_Int_Tables_number   1
_chemical_formula_structural   NdH21(C9O2)3
_chemical_formula_sum   'Nd2 H42 C54 O12'
_cell_volume   1142.88036993
_cell_formula_units_Z   2
loop_
 _symmetry_equiv_pos_site_id
 _symmetry_equiv_pos_as_xyz
  1  'x, y, z'
loop_
 _atom_site_type_symbol
 _atom_site_label
 _atom_site_symmetry_multiplicity
 _atom_site_fract_x
 _atom_site_fract_y
 _atom_site_fract_z
 _atom_site_occupancy
 _atom_site_hle17_bader_spin_density
 _atom_site_hle17_ddec_charge
 _atom_site_hle17_ddec_spin_density
 _atom_site_hle17_ddec_sum_bond_order
 _atom_site_hle17_magmom
 _atom_site_hse06_10hf_bader_spin_density
 _atom_site_hse06_10hf_ddec_charge
 _atom_site_hse06_10hf_ddec_spin_density
 _atom_site_hse06_10hf_ddec_sum_bond_order
 _atom_site_hse06_10hf_magmom
 _atom_site_hse06_bader_spin_density
 _atom_site_hse06_ddec_charge
 _atom_site_hse06_ddec_spin_density
 _atom_site_hse06_ddec_sum_bond_order
 _atom_site_hse06_magmom
 _atom_site_pbe_bader_charge
 _atom_site_pbe_bader_spin_density
 _atom_site_pbe_cm5_charge
 _atom_site_pbe_ddec_charge
 _atom_site_pbe_ddec_spin_density
 _atom_site_pbe_ddec_sum_bond_order
 _atom_site_pbe_magmom
Nd  Nd0  1  0.00310743  0.00003361  0.00038154  1  0  2.23356  0  1.691582  0  0  2.072502  0  2.155112  0  0  2.121353  0  2.104034  0  2.2033  0  1.505439  2.033633  0  2.196971  0
Nd  Nd1  1  0.50306404  0.99999105  0.00034498  1  0  2.23346  0  1.691208  0  0  2.072317  0  2.154733  0  0  2.120738  0  2.104414  0  2.204402  0  1.505634  2.033403  0  2.196637  0
H  H2  1  0.43350577  0.64902769  0.82450519  1  0  0.116338  0  0.974932  0  0  0.124848  0  1.038565  0  0  0.128403  0  1.038356  0  0.108459  0  0.106142  0.122338  0  1.038905  0
H  H3  1  0.78512975  0.17517390  0.35026730  1  0  0.11613  0  0.974497  0  0  0.124841  0  1.0378  0  0  0.128362  0  1.037585  0  0.093736  0  0.1064  0.122348  0  1.038157  0
H  H4  1  0.60832518  0.17530568  0.82423015  1  0  0.116692  0  0.974167  0  0  0.125332  0  1.037836  0  0  0.128838  0  1.037672  0  0.089001  0  0.106644  0.122876  0  1.038086  0
H  H5  1  0.11006078  0.82513023  0.17550862  1  0  0.115381  0  0.973253  0  0  0.123866  0  1.036984  0  0  0.127391  0  1.036743  0  0.093636  0  0.105649  0.121385  0  1.037334  0
H  H6  1  0.93319080  0.82460842  0.64868771  1  0  0.115981  0  0.975688  0  0  0.124611  0  1.038989  0  0  0.128163  0  1.038786  0  0.104975  0  0.106183  0.122088  0  1.039356  0
H  H7  1  0.28421938  0.35070157  0.17555790  1  0  0.11605  0  0.97506  0  0  0.124701  0  1.03826  0  0  0.128163  0  1.038186  0  0.089924  0  0.106887  0.122239  0  1.038541  0
H  H8  1  0.76228265  0.61549572  0.96594271  1  0  0.098503  0  0.9386  0  0  0.109598  0  0.998893  0  0  0.112114  0  0.997557  0  0.103795  0  0.10779  0.107751  0  0.999906  0
H  H9  1  0.14609438  0.35053619  0.38472960  1  0  0.099449  0  0.937569  0  0  0.110551  0  0.997777  0  0  0.11308  0  0.996432  0  0.112805  0  0.107955  0.108704  0  0.99875  0
H  H10  1  0.79579263  0.03415637  0.65072336  1  0  0.096995  0  0.938147  0  0  0.108203  0  0.998487  0  0  0.110735  0  0.997119  0  0.098652  0  0.10652  0.106335  0  0.999561  0
H  H11  1  0.29540373  0.64972903  0.03436224  1  0  0.097662  0  0.937239  0  0  0.10919  0  0.997228  0  0  0.111655  0  0.995971  0  0.110966  0  0.106644  0.107353  0  0.99826  0
H  H12  1  0.26187171  0.96576923  0.61639433  1  0  0.098733  0  0.937762  0  0  0.109799  0  0.997984  0  0  0.112299  0  0.996699  0  0.120732  0  0.108237  0.107967  0  0.998955  0
H  H13  1  0.64681779  0.38449976  0.35044386  1  0  0.099163  0  0.937915  0  0  0.110433  0  0.998026  0  0  0.112963  0  0.996689  0  0.114246  0  0.107774  0.108563  0  0.999074  0
H  H14  1  0.27040349  0.45677737  0.74163985  1  0  0.084712  0  0.997825  0  0  0.094185  0  1.063605  0  0  0.095642  0  1.065398  0  0.07377  0  0.097347  0.093114  0  1.062421  0
H  H15  1  0.81410121  0.28467329  0.54241557  1  0  0.084896  0  0.997392  0  0  0.094336  0  1.063194  0  0  0.095745  0  1.065051  0  0.070085  0  0.096455  0.093259  0  1.062034  0
H  H16  1  0.52853733  0.25812206  0.71474994  1  0  0.084577  0  0.99669  0  0  0.093824  0  1.062723  0  0  0.095283  0  1.064531  0  0.054119  0  0.096448  0.092751  0  1.061549  0
H  H17  1  0.02902444  0.71523374  0.25779050  1  0  0.084229  0  0.99827  0  0  0.093657  0  1.064164  0  0  0.095125  0  1.065938  0  0.082489  0  0.096386  0.092586  0  1.062967  0
H  H18  1  0.77055883  0.74196451  0.45660358  1  0  0.085365  0  0.996444  0  0  0.094944  0  1.061982  0  0  0.096351  0  1.063837  0  0.077912  0  0.097488  0.093858  0  1.060833  0
H  H19  1  0.31365697  0.54307660  0.28470625  1  0  0.08437  0  0.998177  0  0  0.093877  0  1.064016  0  0  0.095355  0  1.06576  0  0.066503  0  0.096563  0.092797  0  1.062841  0
H  H20  1  0.07110572  0.26767824  0.70555328  1  0  0.08752  0  0.958517  0  0  0.099538  0  1.016438  0  0  0.101772  0  1.016673  0  0.091827  0  0.098624  0.097965  0  1.016298  0
H  H21  1  0.80441502  0.43756772  0.73155763  1  0  0.08792  0  0.958187  0  0  0.099817  0  1.016055  0  0  0.102086  0  1.016259  0  0.064388  0  0.09871  0.098188  0  1.015967  0
H  H22  1  0.36533173  0.29436921  0.56143610  1  0  0.088799  0  0.95733  0  0  0.100823  0  1.015263  0  0  0.103096  0  1.01542  0  0.071899  0  0.099682  0.099235  0  1.015142  0
H  H23  1  0.86655444  0.56214739  0.29383553  1  0  0.087838  0  0.95771  0  0  0.099489  0  1.015805  0  0  0.101712  0  1.016014  0  0.040493  0  0.098688  0.097918  0  1.015688  0
H  H24  1  0.57097304  0.70577219  0.26712349  1  0  0.087928  0  0.958264  0  0  0.09973  0  1.01638  0  0  0.102058  0  1.016471  0  0.061392  0  0.098773  0.098112  0  1.016288  0
H  H25  1  0.30337243  0.73223321  0.43759522  1  0  0.088647  0  0.956994  0  0  0.100513  0  1.015005  0  0  0.102712  0  1.0153  0  0.079708  0  0.099283  0.098948  0  1.014864  0
H  H26  1  0.17835427  0.17704976  0.82505718  1  0  0.10573  0  0.950479  0  0  0.114706  0  1.01168  0  0  0.117483  0  1.011113  0  0.089831  0  0.106687  0.112684  0  1.012156  0
H  H27  1  0.00155623  0.64776473  0.82273205  1  0  0.105469  0  0.950716  0  0  0.114472  0  1.011983  0  0  0.117193  0  1.011427  0  0.100077  0  0.106358  0.112465  0  1.01247  0
H  H28  1  0.35298125  0.17519159  0.35176694  1  0  0.105968  0  0.951131  0  0  0.114791  0  1.012621  0  0  0.117518  0  1.01214  0  0.095306  0  0.106841  0.112784  0  1.013088  0
H  H29  1  0.85376360  0.35203263  0.17465860  1  0  0.105522  0  0.950894  0  0  0.1148  0  1.011677  0  0  0.117593  0  1.011067  0  0.101524  0  0.107104  0.112759  0  1.012216  0
H  H30  1  0.67769479  0.82487375  0.17653838  1  0  0.10611  0  0.950857  0  0  0.1148  0  1.012524  0  0  0.117604  0  1.011928  0  0.086429  0  0.106555  0.11275  0  1.013026  0
H  H31  1  0.50104004  0.82293775  0.64778457  1  0  0.104727  0  0.950383  0  0  0.113867  0  1.01161  0  0  0.116581  0  1.011099  0  0.096869  0  0.106047  0.111886  0  1.012059  0
H  H32  1  0.49060435  0.27793842  0.97937118  1  0  0.095202  0  0.962699  0  0  0.106189  0  1.021874  0  0  0.108521  0  1.021247  0  0.058794  0  0.106494  0.104453  0  1.02247  0
H  H33  1  0.21161557  0.70140138  0.72237472  1  0  0.095107  0  0.963861  0  0  0.105889  0  1.023417  0  0  0.108256  0  1.022748  0  0.048976  0  0.106461  0.104157  0  1.023987  0
H  H34  1  0.51095614  0.02119252  0.29918292  1  0  0.094891  0  0.963171  0  0  0.105137  0  1.023352  0  0  0.107474  0  1.022726  0  0.072504  0  0.105781  0.103433  0  1.023906  0
H  H35  1  0.01047790  0.29869668  0.02079559  1  0  0.094439  0  0.963699  0  0  0.105138  0  1.023153  0  0  0.10751  0  1.022418  0  0.097231  0  0.106006  0.103407  0  1.023789  0
H  H36  1  0.98970670  0.97881534  0.27783887  1  0  0.094609  0  0.963438  0  0  0.105412  0  1.023059  0  0  0.107664  0  1.022537  0  0.064463  0  0.106267  0.103763  0  1.023522  0
H  H37  1  0.71236073  0.72211454  0.70137800  1  0  0.09545  0  0.96261  0  0  0.106274  0  1.022129  0  0  0.108655  0  1.021401  0  0.056347  0  0.106257  0.104523  0  1.022748  0
H  H38  1  0.69251237  0.46669969  0.01472417  1  0  0.086479  0  0.997486  0  0  0.09568  0  1.063247  0  0  0.097132  0  1.065424  0  0.102711  0  0.09536  0.094602  0  1.061819  0
H  H39  1  0.22463154  0.54811957  0.53374805  1  0  0.088425  0  0.994983  0  0  0.097094  0  1.060893  0  0  0.098585  0  1.062989  0  0.094849  0  0.095752  0.096006  0  1.059483  0
H  H40  1  0.67757902  0.98571029  0.45287493  1  0  0.088327  0  0.99544  0  0  0.097323  0  1.061362  0  0  0.098729  0  1.063581  0  0.078833  0  0.096278  0.096267  0  1.059928  0
H  H41  1  0.17674175  0.45219164  0.98571681  1  0  0.087906  0  0.995625  0  0  0.097103  0  1.061217  0  0  0.098599  0  1.063315  0  0.083692  0  0.096281  0.09599  0  1.059852  0
H  H42  1  0.19206023  0.01420293  0.46693384  1  0  0.087578  0  0.9958  0  0  0.096629  0  1.061508  0  0  0.098114  0  1.063621  0  0.10505  0  0.095345  0.095541  0  1.060088  0
H  H43  1  0.72555034  0.53331789  0.54811013  1  0  0.087807  0  0.9962  0  0  0.096327  0  1.062459  0  0  0.09776  0  1.064678  0  0.08671  0  0.095037  0.095269  0  1.060984  0
C  C44  1  0.71178193  0.77826825  0.91500815  1  0  0.707434  0  3.90029  0  0  0.666477  0  4.185443  0  0  0.703045  0  4.173941  0  1.476331  0  0.204036  0.64179  0  4.191935  0
C  C45  1  0.93403216  0.13679530  0.22162634  1  0  0.706692  0  3.899384  0  0  0.665896  0  4.184235  0  0  0.70248  0  4.172667  0  1.484467  0  0.204027  0.641193  0  4.190781  0
C  C46  1  0.79586102  0.08469489  0.86361753  1  0  0.705603  0  3.900895  0  0  0.666078  0  4.183984  0  0  0.702629  0  4.172491  0  1.486996  0  0.203591  0.641393  0  4.190496  0
C  C47  1  0.29705291  0.86340713  0.08504518  1  0  0.708746  0  3.899717  0  0  0.668018  0  4.184222  0  0  0.704619  0  4.172579  0  1.481597  0  0.205587  0.643311  0  4.190783  0
C  C48  1  0.21127068  0.91521656  0.77877508  1  0  0.709224  0  3.897908  0  0  0.669186  0  4.18139  0  0  0.705789  0  4.169755  0  1.470828  0  0.20562  0.644481  0  4.187952  0
C  C49  1  0.43349667  0.22160163  0.13674441  1  0  0.705088  0  3.903593  0  0  0.664725  0  4.187712  0  0  0.701311  0  4.176176  0  1.48008  0  0.202924  0.640038  0  4.19419  0
C  C50  1  0.57406789  0.66507287  0.87600406  1  0  -0.225892  0  3.659643  0  0  -0.24044  0  3.913292  0  0  -0.253336  0  3.92962  0  -0.024803  0  -0.093747  -0.232091  0  3.902439  0
C  C51  1  0.90926301  0.21084617  0.33456316  1  0  -0.225598  0  3.659181  0  0  -0.240225  0  3.912831  0  0  -0.253029  0  3.929186  0  -0.051607  0  -0.093547  -0.231946  0  3.901975  0
C  C52  1  0.69724100  0.12377219  0.78922323  1  0  -0.227374  0  3.658243  0  0  -0.242744  0  3.912174  0  0  -0.255574  0  3.928533  0  0.020022  0  -0.095263  -0.234427  0  3.901317  0
C  C53  1  0.19842153  0.78943850  0.12406181  1  0  -0.224674  0  3.656963  0  0  -0.23917  0  3.910728  0  0  -0.251977  0  3.927037  0  0.019285  0  -0.09283  -0.230881  0  3.899889  0
C  C54  1  0.07363054  0.87612600  0.66525090  1  0  -0.226758  0  3.660401  0  0  -0.24134  0  3.913599  0  0  -0.254206  0  3.929917  0  -0.016154  0  -0.09422  -0.233017  0  3.902763  0
C  C55  1  0.40883250  0.33473068  0.21099402  1  0  -0.226239  0  3.660362  0  0  -0.240752  0  3.913548  0  0  -0.253599  0  3.929927  0  -0.043651  0  -0.094279  -0.232435  0  3.90266  0
C  C56  1  0.61947623  0.58878883  0.90920135  1  0  -0.018428  0  3.695193  0  0  -0.041166  0  3.938043  0  0  -0.035069  0  3.954266  0  -0.0723  0  -0.063056  -0.045059  0  3.927058  0
C  C57  1  0.03037758  0.32041897  0.41113992  1  0  -0.019015  0  3.693002  0  0  -0.042137  0  3.936681  0  0  -0.036071  0  3.952877  0  -0.047707  0  -0.062798  -0.045998  0  3.925723  0
C  C58  1  0.70966071  0.09080359  0.68017912  1  0  -0.015426  0  3.69248  0  0  -0.038287  0  3.935393  0  0  -0.032187  0  3.951614  0  -0.106836  0  -0.060309  -0.042206  0  3.924425  0
C  C59  1  0.20984127  0.67982679  0.09092971  1  0  -0.017706  0  3.693096  0  0  -0.041157  0  3.936276  0  0  -0.035025  0  3.952531  0  -0.113763  0  -0.061121  -0.045093  0  3.925283  0
C  C60  1  0.11910237  0.90913881  0.58919935  1  0  -0.018445  0  3.695352  0  0  -0.041465  0  3.938486  0  0  -0.035403  0  3.954734  0  -0.097086  0  -0.063114  -0.045336  0  3.927485  0
C  C61  1  0.53059411  0.41111290  0.32041591  1  0  -0.018461  0  3.694115  0  0  -0.041786  0  3.937359  0  0  -0.035705  0  3.953545  0  -0.051493  0  -0.062959  -0.045677  0  3.926417  0
C  C62  1  0.49591624  0.47621784  0.88192475  1  0  0.056303  0  3.832332  0  0  0.079427  0  4.05949  0  0  0.076975  0  4.083297  0  0.010832  0  -0.015768  0.080964  0  4.0433  0
C  C63  1  0.01939352  0.40562329  0.52359046  1  0  0.057588  0  3.830064  0  0  0.080684  0  4.057511  0  0  0.078317  0  4.081202  0  0.049361  0  -0.016529  0.082159  0  4.041404  0
C  C64  1  0.61376434  0.11818353  0.59462189  1  0  0.057475  0  3.830137  0  0  0.080941  0  4.056906  0  0  0.078516  0  4.080655  0  -0.001309  0  -0.015259  0.082467  0  4.040743  0
C  C65  1  0.11365340  0.59452165  0.11805778  1  0  0.059366  0  3.827132  0  0  0.082693  0  4.054263  0  0  0.080269  0  4.078019  0  -0.038869  0  -0.014507  0.084216  0  4.038097  0
C  C66  1  0.99579530  0.88178807  0.47629132  1  0  0.057853  0  3.831721  0  0  0.081119  0  4.058706  0  0  0.078699  0  4.082478  0  0.009268  0  -0.015454  0.082636  0  4.042528  0
C  C67  1  0.51960275  0.52370068  0.40567339  1  0  0.058103  0  3.831089  0  0  0.081283  0  4.058182  0  0  0.078895  0  4.0819  0  -0.063507  0  -0.016144  0.082777  0  4.042054  0
C  C68  1  0.31910235  0.41836515  0.79448075  1  0  -0.107263  0  3.718446  0  0  -0.124949  0  3.957918  0  0  -0.126379  0  3.979326  0  -0.072747  0  -0.086697  -0.123807  0  3.943372  0
C  C69  1  0.90094325  0.37595889  0.58106925  1  0  -0.10692  0  3.717352  0  0  -0.124316  0  3.956108  0  0  -0.125712  0  3.977474  0  -0.077823  0  -0.084456  -0.12318  0  3.941609  0
C  C70  1  0.52443631  0.20550427  0.62372165  1  0  -0.107323  0  3.714607  0  0  -0.124687  0  3.953496  0  0  -0.126082  0  3.974775  0  -0.015666  0  -0.0851  -0.123587  0  3.939056  0
C  C71  1  0.02478578  0.62400032  0.20515634  1  0  -0.107914  0  3.713721  0  0  -0.125503  0  3.952663  0  0  -0.126897  0  3.973918  0  -0.051869  0  -0.085203  -0.124381  0  3.93822  0
C  C72  1  0.81905561  0.79457434  0.41816635  1  0  -0.108277  0  3.718873  0  0  -0.126003  0  3.958239  0  0  -0.127384  0  3.979638  0  -0.07738  0  -0.086857  -0.124864  0  3.943724  0
C  C73  1  0.40065281  0.58151004  0.37598407  1  0  -0.107504  0  3.718345  0  0  -0.125088  0  3.95711  0  0  -0.126536  0  3.978485  0  -0.073287  0  -0.085441  -0.12393  0  3.942589  0
C  C74  1  0.20688688  0.31141998  0.77392678  1  0  -0.077933  0  3.77969  0  0  -0.088496  0  4.026563  0  0  -0.09144  0  4.048205  0  -0.066529  0  -0.090103  -0.086509  0  4.011805  0
C  C75  1  0.89592817  0.46223248  0.68803340  1  0  -0.077462  0  3.780325  0  0  -0.087807  0  4.026899  0  0  -0.090758  0  4.04845  0  -0.023586  0  -0.088799  -0.085788  0  4.012199  0
C  C76  1  0.43280396  0.22613871  0.53718920  1  0  -0.078133  0  3.778059  0  0  -0.088797  0  4.025084  0  0  -0.091735  0  4.046713  0  -0.084598  0  -0.091489  -0.08681  0  4.010333  0
C  C77  1  0.93350553  0.53759407  0.22569337  1  0  -0.077013  0  3.777514  0  0  -0.087179  0  4.024436  0  0  -0.090065  0  4.045986  0  -0.053997  0  -0.089806  -0.085228  0  4.009736  0
C  C78  1  0.70671143  0.77395758  0.31103884  1  0  -0.078506  0  3.77957  0  0  -0.088945  0  4.02649  0  0  -0.091935  0  4.048099  0  -0.035006  0  -0.090581  -0.086923  0  4.011737  0
C  C79  1  0.39533917  0.68848263  0.46228738  1  0  -0.078402  0  3.778746  0  0  -0.088725  0  4.025699  0  0  -0.091657  0  4.047286  0  -0.049929  0  -0.089427  -0.086759  0  4.010979  0
C  C80  1  0.26707610  0.26023671  0.84050508  1  0  -0.055415  0  3.713455  0  0  -0.071765  0  3.964564  0  0  -0.072727  0  3.984505  0  -0.017446  0  -0.080804  -0.070906  0  3.950902  0
C  C81  1  0.00695206  0.58006754  0.73958676  1  0  -0.053295  0  3.712553  0  0  -0.069762  0  3.96371  0  0  -0.070597  0  3.983578  0  -0.038764  0  -0.080429  -0.068972  0  3.950083  0
C  C82  1  0.42636512  0.15976639  0.41967444  1  0  -0.057968  0  3.711546  0  0  -0.074226  0  3.96266  0  0  -0.075199  0  3.982727  0  -0.062129  0  -0.083079  -0.073359  0  3.948949  0
C  C83  1  0.92686096  0.41981738  0.15931432  1  0  -0.055394  0  3.712704  0  0  -0.072181  0  3.963932  0  0  -0.073131  0  3.98381  0  -0.060743  0  -0.082673  -0.071344  0  3.950335  0
C  C84  1  0.76658694  0.84031664  0.25986448  1  0  -0.055178  0  3.711044  0  0  -0.071144  0  3.961829  0  0  -0.072141  0  3.981859  0  -0.019625  0  -0.080139  -0.070251  0  3.948128  0
C  C85  1  0.50661004  0.73974284  0.58008864  1  0  -0.052798  0  3.712476  0  0  -0.06944  0  3.963787  0  0  -0.070313  0  3.983731  0  -0.03034  0  -0.080876  -0.068641  0  3.950133  0
C  C86  1  0.44201399  0.31696088  0.92734660  1  0  -0.073297  0  3.775923  0  0  -0.086189  0  4.027558  0  0  -0.088411  0  4.048234  0  -0.11275  0  -0.091442  -0.084669  0  4.013507  0
C  C87  1  0.12438430  0.61031123  0.68313685  1  0  -0.074161  0  3.777888  0  0  -0.086888  0  4.029248  0  0  -0.0891  0  4.049788  0  -0.034872  0  -0.091586  -0.085391  0  4.015296  0
C  C88  1  0.51450359  0.07306474  0.39003507  1  0  -0.070727  0  3.773251  0  0  -0.082923  0  4.024586  0  0  -0.085145  0  4.045189  0  -0.035611  0  -0.089074  -0.081428  0  4.010568  0
C  C89  1  0.01423662  0.38975145  0.07270630  1  0  -0.070931  0  3.775369  0  0  -0.083302  0  4.026672  0  0  -0.085496  0  4.047296  0  -0.048857  0  -0.089015  -0.081821  0  4.01264  0
C  C90  1  0.94146088  0.92695549  0.31685725  1  0  -0.072758  0  3.774961  0  0  -0.085658  0  4.026777  0  0  -0.087833  0  4.047456  0  -0.115964  0  -0.091881  -0.084183  0  4.012711  0
C  C91  1  0.62478700  0.68306112  0.61032544  1  0  -0.074867  0  3.776832  0  0  -0.087717  0  4.028359  0  0  -0.089932  0  4.04892  0  -0.046577  0  -0.091024  -0.086207  0  4.014368  0
C  C92  1  0.55585792  0.42307735  0.94718709  1  0  -0.112845  0  3.728681  0  0  -0.130627  0  3.967647  0  0  -0.132674  0  3.989543  0  -0.085846  0  -0.086365  -0.129038  0  3.952687  0
C  C93  1  0.13203102  0.52413051  0.57709033  1  0  -0.116271  0  3.731151  0  0  -0.133598  0  3.970303  0  0  -0.135666  0  3.992126  0  -0.177392  0  -0.087026  -0.13201  0  3.955419  0
C  C94  1  0.60853708  0.05319178  0.47649137  1  0  -0.116389  0  3.730817  0  0  -0.134288  0  3.969993  0  0  -0.136268  0  3.991865  0  -0.10144  0  -0.088312  -0.132738  0  3.955043  0
C  C95  1  0.10801175  0.47606926  0.05299350  1  0  -0.116129  0  3.730594  0  0  -0.134186  0  3.969734  0  0  -0.136247  0  3.991578  0  -0.07645  0  -0.088399  -0.132588  0  3.95481  0
C  C96  1  0.05550126  0.94677892  0.42313548  1  0  -0.1151  0  3.728685  0  0  -0.132685  0  3.967669  0  0  -0.134721  0  3.989475  0  -0.081237  0  -0.086253  -0.131105  0  3.952792  0
C  C97  1  0.63257149  0.57692873  0.52411177  1  0  -0.11553  0  3.730763  0  0  -0.132676  0  3.969607  0  0  -0.13474  0  3.99148  0  -0.04608  0  -0.086819  -0.131075  0  3.95466  0
O  O98  1  0.88349524  0.80027179  0.96582494  1  0  -0.690627  0  1.979142  0  0  -0.637953  0  2.219733  0  0  -0.663186  0  2.211336  0  -1.182424  0  -0.380937  -0.620117  0  2.225011  0
O  O99  1  0.08296980  0.16607851  0.19972843  1  0  -0.688769  0  1.977498  0  0  -0.636202  0  2.217917  0  0  -0.661325  0  2.209406  0  -1.182029  0  -0.379556  -0.618451  0  2.223284  0
O  O100  1  0.91600144  0.03343380  0.83482985  1  0  -0.68891  0  1.97894  0  0  -0.636697  0  2.218863  0  0  -0.661885  0  2.210438  0  -1.181238  0  -0.381448  -0.618883  0  2.22413  0
O  O101  1  0.41666277  0.83410711  0.03383677  1  0  -0.689357  0  1.977673  0  0  -0.636738  0  2.217828  0  0  -0.661878  0  2.209448  0  -1.186716  0  -0.380738  -0.618928  0  2.223103  0
O  O102  1  0.38267342  0.96652541  0.80134256  1  0  -0.690642  0  1.979007  0  0  -0.638304  0  2.219264  0  0  -0.663483  0  2.210832  0  -1.181394  0  -0.383267  -0.620465  0  2.224572  0
O  O103  1  0.58321524  0.19961136  0.16561475  1  0  -0.68934  0  1.980239  0  0  -0.636862  0  2.220525  0  0  -0.661967  0  2.212023  0  -1.182563  0  -0.380258  -0.61901  0  2.225759  0
O  O104  1  0.65878107  0.85734088  0.89621456  1  0  -0.821754  0  2.036637  0  0  -0.760447  0  2.288595  0  0  -0.785714  0  2.275959  0  -1.214623  0  -0.435809  -0.741689  0  2.296343  0
O  O105  1  0.80279590  0.03843697  0.14266047  1  0  -0.823927  0  2.037716  0  0  -0.762589  0  2.289335  0  0  -0.787784  0  2.276565  0  -1.220106  0  -0.437507  -0.74393  0  2.297264  0
O  O106  1  0.76283460  0.10388066  0.96149600  1  0  -0.821614  0  2.036953  0  0  -0.760924  0  2.288  0  0  -0.786115  0  2.275307  0  -1.213969  0  -0.435529  -0.742268  0  2.295858  0
O  O107  1  0.26403307  0.96168585  0.10426631  1  0  -0.825117  0  2.038467  0  0  -0.763804  0  2.290109  0  0  -0.789028  0  2.277339  0  -1.213921  0  -0.438113  -0.745149  0  2.298037  0
O  O108  1  0.15889511  0.89595297  0.85738456  1  0  -0.822415  0  2.034971  0  0  -0.761911  0  2.286997  0  0  -0.787167  0  2.274241  0  -1.210284  0  -0.434795  -0.743155  0  2.294764  0
O  O109  1  0.30155269  0.14258296  0.03878414  1  0  -0.82193  0  2.038085  0  0  -0.760838  0  2.28938  0  0  -0.786076  0  2.276701  0  -1.219589  0  -0.437026  -0.742171  0  2.297223  0
