# generated using pymatgen
data_ZnH13C22(N2O3)2
_symmetry_space_group_name_H-M   'P 1'
_cell_length_a   16.24245620
_cell_length_b   17.12038089
_cell_length_c   19.14428874
_cell_angle_alpha   88.99640286
_cell_angle_beta   86.90932188
_cell_angle_gamma   85.20615795
_symmetry_Int_Tables_number   1
_chemical_formula_structural   ZnH13C22(N2O3)2
_chemical_formula_sum   'Zn2 H26 C44 N8 O12'
_cell_volume   5296.79530299
_cell_formula_units_Z   2
loop_
 _symmetry_equiv_pos_site_id
 _symmetry_equiv_pos_as_xyz
  1  'x, y, z'
loop_
 _atom_site_type_symbol
 _atom_site_label
 _atom_site_symmetry_multiplicity
 _atom_site_fract_x
 _atom_site_fract_y
 _atom_site_fract_z
 _atom_site_occupancy
 _atom_site_pbe_bader_charge
 _atom_site_pbe_bader_spin_density
 _atom_site_pbe_cm5_charge
 _atom_site_pbe_ddec_charge
 _atom_site_pbe_ddec_spin_density
 _atom_site_pbe_ddec_sum_bond_order
 _atom_site_pbe_magmom
Zn  Zn0  1  0.58640582  0.50167982  0.49239289  1  1.283861  0  0.667808  0.816539  0  2.424482  0
Zn  Zn1  1  0.41484982  0.49462788  0.50300598  1  1.285081  0  0.668076  0.818051  0  2.428442  0
H  H2  1  0.62645679  0.53246535  0.70994912  1  0.117698  0  0.105012  0.110032  0  0.998062  0
H  H3  1  0.36502094  0.51768803  0.28376031  1  0.089753  0  0.103769  0.106589  0  1.000948  0
H  H4  1  0.62413452  0.55738924  0.83885749  1  0.106652  0  0.10621  0.104729  0  1.013429  0
H  H5  1  0.36165028  0.54129473  0.15429364  1  0.081549  0  0.105348  0.103691  0  1.015779  0
H  H6  1  0.36331696  0.52683463  0.85488380  1  0.105831  0  0.105712  0.104401  0  1.011886  0
H  H7  1  0.62684525  0.54281029  0.14102081  1  0.117231  0  0.105658  0.104397  0  1.012104  0
H  H8  1  0.36730323  0.49936931  0.72629902  1  0.098385  0  0.104807  0.108941  0  0.998108  0
H  H9  1  0.62955069  0.51691852  0.27034308  1  0.099108  0  0.104653  0.108868  0  0.999189  0
H  H10  1  0.42548517  0.23858043  0.46961907  1  0.077522  0  0.11058  0.117264  0  0.985532  0
H  H11  1  0.57618854  0.76191517  0.45930275  1  0.084326  0  0.108429  0.112524  0  0.991309  0
H  H12  1  0.37849701  0.72139635  0.61012162  1  0.123231  0  0.110143  0.115626  0  0.987396  0
H  H13  1  0.62784498  0.26882371  0.59919751  1  0.084483  0  0.107461  0.110144  0  0.992806  0
H  H14  1  0.63027198  0.12892583  0.63723129  1  0.070211  0  0.110347  0.113736  0  0.977784  0
H  H15  1  0.37479842  0.85954511  0.64963652  1  0.072363  0  0.110565  0.113327  0  0.977095  0
H  H16  1  0.56902915  0.90167020  0.49355039  1  0.049971  0  0.106523  0.108767  0  1.000698  0
H  H17  1  0.43148515  0.09712806  0.50179142  1  0.078119  0  0.107145  0.10885  0  0.996833  0
H  H18  1  0.27700613  0.56980344  0.42637666  1  0.133164  0  0.131322  0.108266  0  0.96895  0
H  H19  1  0.72503107  0.42561244  0.56636316  1  0.115659  0  0.130412  0.106486  0  0.972486  0
H  H20  1  0.70668564  0.59624654  0.41132722  1  0.133401  0  0.132207  0.106818  0  0.963578  0
H  H21  1  0.29333340  0.40369090  0.58546667  1  0.133737  0  0.133635  0.109392  0  0.961524  0
H  H22  1  0.99372323  0.56806697  0.44378391  1  0.065473  0  0.108968  0.104737  0  0.995023  0
H  H23  1  0.00661664  0.43413019  0.55339090  1  0.069821  0  0.109014  0.104703  0  0.996835  0
H  H24  1  0.13965625  0.39502659  0.59311386  1  0.087451  0  0.116347  0.122592  0  0.980087  0
H  H25  1  0.86003911  0.60720945  0.40468060  1  0.078247  0  0.115972  0.121898  0  0.982472  0
H  H26  1  0.87774625  0.42905525  0.56795179  1  0.062603  0  0.114187  0.119068  0  0.99241  0
H  H27  1  0.12376298  0.56992972  0.42694553  1  0.078008  0  0.114454  0.119064  0  0.99169  0
C  C28  1  0.52280666  0.34699708  0.51111432  1  1.57249  0  0.214537  0.589798  0  4.180565  0
C  C29  1  0.48166467  0.64960561  0.51019016  1  1.560122  0  0.212521  0.587403  0  4.180701  0
C  C30  1  0.49846275  0.50203213  0.63362745  1  1.575822  0  0.212045  0.58319  0  4.180893  0
C  C31  1  0.49871289  0.50594608  0.36257482  1  1.541085  0  0.216184  0.592571  0  4.167567  0
C  C32  1  0.56961025  0.53041443  0.74259384  1  -0.017983  0  -0.08199  -0.088266  0  3.972862  0
C  C33  1  0.42193432  0.52301744  0.25187904  1  -0.056425  0  -0.082171  -0.086744  0  3.974298  0
C  C34  1  0.56824552  0.54449958  0.81385872  1  -0.10569  0  -0.081707  -0.105763  0  3.965758  0
C  C35  1  0.42001363  0.53608974  0.18013660  1  -0.071337  0  -0.082191  -0.108822  0  3.968042  0
C  C36  1  0.49355707  0.54366034  0.85458780  1  0.004511  0  -0.00504  0.018229  0  4.00242  0
C  C37  1  0.49398060  0.54412156  0.13990432  1  -0.012497  0  -0.005246  0.021311  0  3.999424  0
C  C38  1  0.42086852  0.52709259  0.82295548  1  -0.054241  0  -0.081628  -0.106286  0  3.967085  0
C  C39  1  0.56982419  0.53680487  0.17259947  1  -0.067034  0  -0.081675  -0.10802  0  3.963159  0
C  C40  1  0.42296021  0.51209389  0.75176509  1  -0.033853  0  -0.082045  -0.089032  0  3.974459  0
C  C41  1  0.57129435  0.52285225  0.24431494  1  -0.025132  0  -0.081842  -0.087515  0  3.970218  0
C  C42  1  0.49708981  0.51423849  0.71099181  1  -0.019263  0  -0.009972  -0.016499  0  3.947787  0
C  C43  1  0.49738743  0.51681922  0.28471639  1  0.059373  0  -0.010173  -0.017977  0  3.942096  0
C  C44  1  0.49191873  0.55954509  0.06445154  1  0.972941  0  0.238865  0.242761  0  4.001283  0
C  C45  1  0.49162529  0.55947552  0.92963819  1  0.956422  0  0.238968  0.244826  0  3.996058  0
C  C46  1  0.52641840  0.26206941  0.53229958  1  -0.040426  0  -0.003826  -0.006435  0  3.931333  0
C  C47  1  0.47764023  0.73349184  0.53247233  1  -0.063418  0  -0.003218  -0.006175  0  3.929703  0
C  C48  1  0.47006170  0.21377884  0.50616115  1  0.001834  0  -0.078145  -0.085204  0  3.963387  0
C  C49  1  0.53237595  0.78407507  0.50081278  1  0.025749  0  -0.079063  -0.082622  0  3.968842  0
C  C50  1  0.47268322  0.13511248  0.52525737  1  -0.041302  0  -0.083536  -0.110052  0  3.952848  0
C  C51  1  0.52911798  0.86174106  0.52096765  1  -0.017348  0  -0.08501  -0.114395  0  3.955331  0
C  C52  1  0.53000659  0.10344753  0.57297531  1  0.0558  0  -0.011318  0.058549  0  4.054687  0
C  C53  1  0.47271887  0.88999956  0.57503249  1  0.059799  0  -0.011089  0.059883  0  4.050741  0
C  C54  1  0.58571734  0.15241262  0.59998168  1  -0.053037  0  -0.080292  -0.106423  0  3.950455  0
C  C55  1  0.41862103  0.83867252  0.60753059  1  -0.052486  0  -0.07866  -0.10373  0  3.947543  0
C  C56  1  0.58438048  0.23068193  0.57911062  1  0.031389  0  -0.077353  -0.085248  0  3.962163  0
C  C57  1  0.42064208  0.76143915  0.58582484  1  -0.003778  0  -0.076075  -0.08336  0  3.953631  0
C  C58  1  0.53313071  0.01963031  0.58877847  1  0.250182  0  0.089067  -0.01424  0  3.873353  0
C  C59  1  0.46914905  0.97310908  0.59174233  1  0.195416  0  0.088654  -0.016395  0  3.870439  0
C  C60  1  0.24321400  0.53267895  0.46265579  1  0.507369  0  0.060423  0.101394  0  3.927284  0
C  C61  1  0.75822955  0.46483049  0.53169236  1  0.46001  0  0.060856  0.103583  0  3.927004  0
C  C62  1  0.15795390  0.53202629  0.46350891  1  -0.042902  0  -0.075821  -0.170784  0  3.92685  0
C  C63  1  0.84323377  0.46718651  0.53177731  1  0.032019  0  -0.074897  -0.170924  0  3.926089  0
C  C64  1  0.11747964  0.48252652  0.51115202  1  0.026943  0  0.011946  0.148768  0  4.032107  0
C  C65  1  0.88311213  0.51838797  0.48534129  1  0.037025  0  0.012257  0.150808  0  4.030389  0
C  C66  1  0.16742009  0.43499094  0.55549762  1  -0.018745  0  -0.074278  -0.175909  0  3.925838  0
C  C67  1  0.83273637  0.56603074  0.44140849  1  -0.025012  0  -0.074916  -0.177199  0  3.929758  0
C  C68  1  0.25260832  0.43914365  0.55168143  1  0.472853  0  0.063449  0.106345  0  3.921344  0
C  C69  1  0.74778241  0.56036942  0.44448696  1  0.473864  0  0.064538  0.107774  0  3.924823  0
C  C70  1  0.02816589  0.47834294  0.51642196  1  -0.055185  0  -0.073577  -0.112731  0  3.958069  0
C  C71  1  0.97231396  0.52354418  0.48051430  1  -0.052495  0  -0.073871  -0.113263  0  3.954958  0
N  N72  1  0.41749549  0.56753996  0.96602637  1  -0.60853  0  -0.159456  -0.153248  0  3.219737  0
N  N73  1  0.56309288  0.57351148  0.02785594  1  -0.514289  0  -0.159041  -0.152655  0  3.220753  0
N  N74  1  0.41782713  0.56716583  0.03472581  1  -0.516949  0  -0.158726  -0.150706  0  3.229023  0
N  N75  1  0.56297514  0.57309081  0.95914778  1  -0.590849  0  -0.156948  -0.149075  0  3.220847  0
N  N76  1  0.28982459  0.48735423  0.50618341  1  -1.249607  0  -0.317714  -0.194732  0  3.516751  0
N  N77  1  0.71122609  0.51032875  0.48863514  1  -1.232972  0  -0.318301  -0.195003  0  3.516675  0
N  N78  1  0.38428743  0.01227691  0.60552412  1  0.422434  0  0.055819  0.514156  0  4.219291  0
N  N79  1  0.61797632  0.97985179  0.59430679  1  0.416686  0  0.056859  0.514456  0  4.225045  0
O  O80  1  0.58810414  0.38245195  0.51586334  1  -1.161128  0  -0.317225  -0.54925  0  2.30412  0
O  O81  1  0.41728637  0.61308684  0.52319462  1  -1.152901  0  -0.318235  -0.547599  0  2.302441  0
O  O82  1  0.45369026  0.37720347  0.49078528  1  -1.166991  0  -0.320432  -0.55335  0  2.30897  0
O  O83  1  0.54977073  0.62117384  0.48115311  1  -1.165371  0  -0.321096  -0.557201  0  2.301251  0
O  O84  1  0.56394682  0.51819203  0.59853599  1  -1.160741  0  -0.316142  -0.547617  0  2.333697  0
O  O85  1  0.42934535  0.51462351  0.39714560  1  -1.159841  0  -0.316173  -0.551414  0  2.335394  0
O  O86  1  0.43409379  0.47801584  0.60862285  1  -1.165596  0  -0.319652  -0.550878  0  2.314774  0
O  O87  1  0.56894109  0.48991512  0.38838767  1  -1.160788  0  -0.319076  -0.545954  0  2.314827  0
O  O88  1  0.33034584  0.99678038  0.56571715  1  -0.444197  0  -0.136734  -0.334517  0  1.87019  0
O  O89  1  0.37327726  0.05516498  0.65710561  1  -0.434056  0  -0.131113  -0.320701  0  1.861338  0
O  O90  1  0.67101403  0.99524209  0.54828773  1  -0.456681  0  -0.137447  -0.335582  0  1.87326  0
O  O91  1  0.62994700  0.93683447  0.64595770  1  -0.423998  0  -0.127621  -0.31581  0  1.85953  0
