# generated using pymatgen
data_ZnH11C27NO14
_symmetry_space_group_name_H-M   'P 1'
_cell_length_a   13.91977355
_cell_length_b   15.11112944
_cell_length_c   15.96349326
_cell_angle_alpha   90.49114432
_cell_angle_beta   89.96738947
_cell_angle_gamma   90.98886107
_symmetry_Int_Tables_number   1
_chemical_formula_structural   ZnH11C27NO14
_chemical_formula_sum   'Zn2 H22 C54 N2 O28'
_cell_volume   3357.19331529
_cell_formula_units_Z   2
loop_
 _symmetry_equiv_pos_site_id
 _symmetry_equiv_pos_as_xyz
  1  'x, y, z'
loop_
 _atom_site_type_symbol
 _atom_site_label
 _atom_site_symmetry_multiplicity
 _atom_site_fract_x
 _atom_site_fract_y
 _atom_site_fract_z
 _atom_site_occupancy
 _atom_site_pbe_bader_charge
 _atom_site_pbe_bader_spin_density
 _atom_site_pbe_cm5_charge
 _atom_site_pbe_ddec_charge
 _atom_site_pbe_ddec_spin_density
 _atom_site_pbe_ddec_sum_bond_order
 _atom_site_pbe_magmom
Zn  Zn0  1  0.40030426  0.50486789  0.49267521  1  1.307434  0  0.681531  0.855924  0  2.381369  0
Zn  Zn1  1  0.60634796  0.49645330  0.50884147  1  1.296994  0  0.680978  0.856461  0  2.384171  0
H  H2  1  0.07820663  0.71123450  0.41033215  1  0.116838  0  0.11298  0.135562  0  1.006955  0
H  H3  1  0.74902841  0.61779847  0.46888626  1  0.138139  0  0.121838  0.092684  0  1.042117  0
H  H4  1  0.51493314  0.74903575  0.84674315  1  0.593548  0  0.352537  0.386558  0  0.840833  0
H  H5  1  0.47024888  0.24798357  0.15640744  1  0.611191  0  0.351866  0.386903  0  0.840841  0
H  H6  1  0.82798113  0.69572710  0.39864108  1  0.632188  0  0.344083  0.382622  0  0.860685  0
H  H7  1  0.17897282  0.30751853  0.60683316  1  0.608899  0  0.345081  0.378094  0  0.867238  0
H  H8  1  0.79838565  0.57068125  0.09227687  1  0.616229  0  0.349427  0.38358  0  0.846669  0
H  H9  1  0.19680528  0.43475357  0.91056411  1  0.61717  0  0.34897  0.382848  0  0.848511  0
H  H10  1  0.88435884  0.12088925  0.43694293  1  0.631206  0  0.356858  0.39516  0  0.829268  0
H  H11  1  0.10919108  0.88244858  0.55839516  1  0.6145  0  0.357332  0.395355  0  0.83052  0
H  H12  1  0.84920155  0.84021869  0.43380447  1  0.640899  0  0.32493  0.372445  0  0.905908  0
H  H13  1  0.92850462  0.29290366  0.59515951  1  0.090976  0  0.114066  0.136022  0  1.001321  0
H  H14  1  0.14991981  0.16209521  0.56779753  1  0.613039  0  0.325907  0.37447  0  0.902348  0
H  H15  1  0.22448264  0.70698379  0.43726490  1  0.68514  0  0.322201  0.376666  0  0.936342  0
H  H16  1  0.78183991  0.29551361  0.56289760  1  0.660974  0  0.323039  0.376944  0  0.932367  0
H  H17  1  0.38609153  0.60075525  0.06227066  1  0.100363  0  0.122223  0.12619  0  0.952445  0
H  H18  1  0.61126652  0.39467145  0.93859102  1  0.114385  0  0.123118  0.128675  0  0.949942  0
H  H19  1  0.33019546  0.21411284  0.48338383  1  0.103896  0  0.105804  0.110427  0  1.023252  0
H  H20  1  0.66490512  0.78658384  0.50957961  1  0.107356  0  0.105061  0.10906  0  1.027395  0
H  H21  1  0.63537956  0.23581420  0.48551677  1  0.133982  0  0.109344  0.121021  0  1.032474  0
H  H22  1  0.35992463  0.76481873  0.51618978  1  0.134986  0  0.107999  0.11758  0  1.037487  0
H  H23  1  0.25786300  0.38717810  0.53848691  1  0.131331  0  0.121777  0.092711  0  1.036194  0
C  C24  1  0.51751793  0.67005806  0.52024833  1  1.586271  0  0.217737  0.59564  0  4.173693  0
C  C25  1  0.50025840  0.95351883  0.50012622  1  -0.047913  0  0.013206  0.012602  0  3.918121  0
C  C26  1  0.40280064  0.08837154  0.49503658  1  0.00053  0  -0.000285  0.05243  0  3.992824  0
C  C27  1  0.59229833  0.91235785  0.50060185  1  -0.0071  0  5.9e-05  0.053198  0  3.993375  0
C  C28  1  0.67277170  0.05779288  0.49286360  1  -0.006766  0  -0.00113  -0.096718  0  3.911257  0
C  C29  1  0.32222675  0.94303933  0.50431644  1  0.010998  0  -0.002311  -0.10026  0  3.915088  0
C  C30  1  0.67805758  0.96687053  0.49481164  1  0.046187  0  0.00697  -0.062173  0  3.886534  0
C  C31  1  0.31709267  0.03402106  0.50173874  1  0.029854  0  0.007559  -0.059756  0  3.88389  0
C  C32  1  0.20897280  0.43995433  0.52203385  1  0.418386  0  0.047582  0.059829  0  3.944675  0
C  C33  1  0.79790179  0.56476214  0.48477495  1  0.459747  0  0.04656  0.055954  0  3.946379  0
C  C34  1  0.20249212  0.58243618  0.46621734  1  1.177796  0  0.230063  0.421325  0  4.017822  0
C  C35  1  0.47885035  0.33102403  0.47915234  1  1.563216  0  0.21758  0.595327  0  4.17753  0
C  C36  1  0.80438837  0.42125362  0.53820641  1  1.080249  0  0.229745  0.419717  0  4.019529  0
C  C37  1  0.10037817  0.58226903  0.46951391  1  -0.025595  0  -0.010154  -0.058183  0  4.041759  0
C  C38  1  0.90652876  0.42211896  0.53653256  1  0.104107  0  -0.009932  -0.056565  0  4.04431  0
C  C39  1  0.48385084  0.47947556  0.66020549  1  1.688218  0  0.219423  0.669238  0  4.243209  0
C  C40  1  0.52836240  0.51881803  0.34099211  1  1.672464  0  0.219354  0.666774  0  4.24537  0
C  C41  1  0.05431090  0.50516989  0.50207374  1  0.015462  0  0.009454  0.046145  0  3.967662  0
C  C42  1  0.95265062  0.49958761  0.50480742  1  -0.012589  0  0.009665  0.046081  0  3.965456  0
C  C43  1  0.10964327  0.43288152  0.53057382  1  0.065863  0  -0.020969  -0.102286  0  4.085875  0
C  C44  1  0.89727956  0.57187461  0.47645256  1  0.089332  0  -0.021418  -0.101691  0  4.08663  0
C  C45  1  0.04428304  0.65317366  0.43848751  1  -0.01936  0  -0.109578  -0.25872  0  3.980323  0
C  C46  1  0.48258797  0.23185441  0.48289339  1  0.062414  0  -0.010772  -0.011142  0  3.980936  0
C  C47  1  0.96253357  0.35120843  0.56749856  1  0.061591  0  -0.110087  -0.26129  0  3.984819  0
C  C48  1  0.94598468  0.64757165  0.44128237  1  0.462457  0  0.088389  0.287157  0  4.072641  0
C  C49  1  0.06088787  0.35697227  0.56536007  1  0.408632  0  0.088659  0.287776  0  4.076176  0
C  C50  1  0.43675276  0.55436598  0.03483000  1  -0.003278  0  -0.044736  -0.080398  0  3.56994  0
C  C51  1  0.56078179  0.44095248  0.96640970  1  -0.013581  0  -0.045312  -0.081754  0  3.570016  0
C  C52  1  0.51186309  0.57877242  0.96532785  1  0.035301  0  0.014414  -0.048279  0  3.602677  0
C  C53  1  0.48588726  0.41647986  0.03590166  1  0.044594  0  0.014152  -0.049384  0  3.602029  0
C  C54  1  0.47611729  0.47932641  0.75047746  1  0.05724  0  -0.038946  -0.165006  0  3.954368  0
C  C55  1  0.52918687  0.51713860  0.25049581  1  0.243948  0  -0.038758  -0.162881  0  3.956515  0
C  C56  1  0.40743393  0.46757796  0.98567779  1  0.018836  0  0.012902  -0.053297  0  3.607759  0
C  C57  1  0.51265997  0.76896567  0.51439005  1  0.059599  0  -0.010377  -0.010444  0  3.979419  0
C  C58  1  0.59019417  0.52764988  0.01553568  1  0.03134  0  0.012861  -0.052127  0  3.604399  0
C  C59  1  0.48302536  0.49148925  0.91449503  1  0.133267  0  0.021878  0.114067  0  3.769381  0
C  C60  1  0.51454692  0.50398589  0.08676639  1  0.153336  0  0.021789  0.114546  0  3.766913  0
C  C61  1  0.47427636  0.48438505  0.82654317  1  -0.310804  0  -0.036919  -0.042957  0  4.081245  0
C  C62  1  0.52550649  0.51117892  0.17455159  1  -0.499746  0  -0.037001  -0.043705  0  4.082346  0
C  C63  1  0.39868619  0.18062836  0.48658855  1  -0.030743  0  -0.074301  -0.126535  0  3.92494  0
C  C64  1  0.59642608  0.82015144  0.50836594  1  -0.02316  0  -0.074899  -0.125043  0  3.925852  0
C  C65  1  0.52750388  0.67191561  0.93816306  1  1.540579  0  0.23075  0.578817  0  4.143952  0
C  C66  1  0.46950127  0.32333997  0.06294413  1  1.530875  0  0.23093  0.581224  0  4.149386  0
C  C67  1  0.69178834  0.55942794  0.02002893  1  1.520778  0  0.231305  0.579533  0  4.141032  0
C  C68  1  0.57236724  0.19239712  0.48668890  1  -0.002959  0  -0.072021  -0.119878  0  3.901163  0
C  C69  1  0.30585115  0.43605972  0.98064321  1  1.51978  0  0.231776  0.58065  0  4.137195  0
C  C70  1  0.76306956  0.11300966  0.49120238  1  1.523176  0  0.251159  0.611848  0  4.083305  0
C  C71  1  0.23183326  0.88819052  0.50630953  1  1.501151  0  0.251512  0.612037  0  4.084639  0
C  C72  1  0.77442551  0.92303842  0.49598725  1  1.531055  0  0.230522  0.589101  0  4.131783  0
C  C73  1  0.22130593  0.07908191  0.50224981  1  1.544505  0  0.230957  0.590381  0  4.137514  0
C  C74  1  0.42272805  0.80824561  0.51207844  1  -0.011617  0  -0.072306  -0.120485  0  3.899676  0
C  C75  1  0.58065913  0.10053130  0.49264966  1  -0.027849  0  0.001455  0.057847  0  3.999585  0
C  C76  1  0.41429546  0.90004515  0.50425411  1  -0.045907  0  0.000683  0.057515  0  3.997186  0
C  C77  1  0.49469709  0.04704139  0.49584788  1  0.003905  0  0.012449  0.012251  0  3.920371  0
N  N78  1  0.25291278  0.51224177  0.49082983  1  -1.250201  0  -0.325081  -0.281033  0  3.495677  0
N  N79  1  0.75392161  0.49174890  0.51450150  1  -1.243303  0  -0.324547  -0.279663  0  3.495148  0
O  O80  1  0.43834846  0.62939971  0.53253931  1  -1.169968  0  -0.313034  -0.542976  0  2.366733  0
O  O81  1  0.50220397  0.68608751  0.85750971  1  -1.081955  0  -0.322492  -0.464634  0  2.21698  0
O  O82  1  0.44714435  0.26451391  0.01339270  1  -1.113402  0  -0.296446  -0.484976  0  2.035355  0
O  O83  1  0.48338986  0.31093524  0.14595586  1  -1.108028  0  -0.321963  -0.465787  0  2.218842  0
O  O84  1  0.89393055  0.71589395  0.40913866  1  -1.151025  0  -0.342395  -0.453127  0  2.286135  0
O  O85  1  0.11251742  0.28832398  0.59726328  1  -1.125562  0  -0.339899  -0.444506  0  2.294065  0
O  O86  1  0.73501900  0.58909797  0.95961667  1  -1.124053  0  -0.295015  -0.4826  0  2.038792  0
O  O87  1  0.73164576  0.54933083  0.09687962  1  -1.105787  0  -0.327754  -0.472094  0  2.21119  0
O  O88  1  0.26431170  0.39893626  0.03821800  1  -1.112536  0  -0.293406  -0.481426  0  2.040728  0
O  O89  1  0.26360258  0.45607588  0.90661421  1  -1.110097  0  -0.329619  -0.47417  0  2.206493  0
O  O90  1  0.78132106  0.17597527  0.53807217  1  -1.16046  0  -0.277662  -0.506651  0  2.159407  0
O  O91  1  0.55936843  0.37070051  0.48740803  1  -1.170395  0  -0.310825  -0.543433  0  2.40122  0
O  O92  1  0.82456129  0.08604920  0.43100899  1  -1.113669  0  -0.315576  -0.463262  0  2.226664  0
O  O93  1  0.21397298  0.82393498  0.46082080  1  -1.154382  0  -0.277327  -0.508337  0  2.172463  0
O  O94  1  0.16907541  0.91711440  0.56457143  1  -1.087911  0  -0.313862  -0.460578  0  2.232857  0
O  O95  1  0.83376943  0.93313136  0.55170288  1  -1.112386  0  -0.300134  -0.490008  0  2.034563  0
O  O96  1  0.78709363  0.87024084  0.42815716  1  -1.135785  0  -0.334914  -0.48235  0  2.243365  0
O  O97  1  0.16136401  0.07203195  0.44671030  1  -1.115205  0  -0.300701  -0.490394  0  2.034944  0
O  O98  1  0.21082574  0.12986144  0.57173380  1  -1.11406  0  -0.335749  -0.484974  0  2.247471  0
O  O99  1  0.25625833  0.64911053  0.43630384  1  -1.173343  0  -0.317268  -0.427367  0  2.324052  0
O  O100  1  0.75040172  0.35341912  0.56550157  1  -1.143396  0  -0.317599  -0.427582  0  2.322823  0
O  O101  1  0.59933950  0.63496209  0.51110843  1  -1.170135  0  -0.313706  -0.549004  0  2.323756  0
O  O102  1  0.39771343  0.36691155  0.46979674  1  -1.168378  0  -0.315463  -0.546097  0  2.296733  0
O  O103  1  0.40701809  0.46736459  0.61816266  1  -1.146233  0  -0.319854  -0.558764  0  2.269302  0
O  O104  1  0.60819477  0.51097040  0.37843009  1  -1.131908  0  -0.317619  -0.548009  0  2.253331  0
O  O105  1  0.56835716  0.49288220  0.63179361  1  -1.137726  0  -0.311157  -0.533265  0  2.266647  0
O  O106  1  0.44558783  0.52739437  0.37426582  1  -1.148944  0  -0.314063  -0.54135  0  2.280715  0
O  O107  1  0.55797489  0.72948009  0.98580727  1  -1.12951  0  -0.295109  -0.483598  0  2.034653  0
