# generated using pymatgen
data_CdBH12C12BrN8
_symmetry_space_group_name_H-M   'P 1'
_cell_length_a   5.99465290
_cell_length_b   11.30706105
_cell_length_c   11.30695927
_cell_angle_alpha   90.00046541
_cell_angle_beta   89.99968861
_cell_angle_gamma   89.99941115
_symmetry_Int_Tables_number   1
_chemical_formula_structural   CdBH12C12BrN8
_chemical_formula_sum   'Cd2 B2 H24 C24 Br2 N16'
_cell_volume   766.40725408
_cell_formula_units_Z   2
loop_
 _symmetry_equiv_pos_site_id
 _symmetry_equiv_pos_as_xyz
  1  'x, y, z'
loop_
 _atom_site_type_symbol
 _atom_site_label
 _atom_site_symmetry_multiplicity
 _atom_site_fract_x
 _atom_site_fract_y
 _atom_site_fract_z
 _atom_site_occupancy
 _atom_site_hle17_bader_spin_density
 _atom_site_hle17_ddec_charge
 _atom_site_hle17_ddec_spin_density
 _atom_site_hle17_ddec_sum_bond_order
 _atom_site_hle17_magmom
 _atom_site_hse06_10hf_bader_spin_density
 _atom_site_hse06_10hf_ddec_charge
 _atom_site_hse06_10hf_ddec_spin_density
 _atom_site_hse06_10hf_ddec_sum_bond_order
 _atom_site_hse06_10hf_magmom
 _atom_site_hse06_bader_spin_density
 _atom_site_hse06_ddec_charge
 _atom_site_hse06_ddec_spin_density
 _atom_site_hse06_ddec_sum_bond_order
 _atom_site_hse06_magmom
 _atom_site_pbe_bader_spin_density
 _atom_site_pbe_cm5_charge
 _atom_site_pbe_ddec_charge
 _atom_site_pbe_ddec_spin_density
 _atom_site_pbe_ddec_sum_bond_order
 _atom_site_pbe_magmom
Cd  Cd0  1  0.30421938  0.25000394  0.24999450  1  0  0.983294  0  1.877714  0  0  0.79254  0  2.325835  0  0  0.841041  0  2.287057  0  0  0.701733  0.756928  0  2.354677  0
Cd  Cd1  1  0.69578988  0.75000106  0.74999967  1  0  0.983281  0  1.877623  0  0  0.792511  0  2.325748  0  0  0.841014  0  2.286968  0  0  0.701733  0.756897  0  2.354589  0
B  B2  1  0.00001463  0.74999962  0.25000041  1  0  0.718634  0  2.981738  0  0  0.550159  0  3.293329  0  0  0.574159  0  3.290042  0  0  0.115019  0.533753  0  3.295687  0
B  B3  1  0.99998629  0.25000095  0.74999995  1  0  0.718622  0  2.981691  0  0  0.550265  0  3.293185  0  0  0.574277  0  3.28987  0  0  0.115038  0.533859  0  3.295542  0
H  H4  1  0.36512237  0.79406134  0.08899934  1  0  0.103049  0  0.993683  0  0  0.110943  0  1.05967  0  0  0.11325  0  1.059529  0  0  0.115575  0.109255  0  1.059969  0
H  H5  1  0.36512432  0.70593099  0.41100509  1  0  0.103121  0  0.993479  0  0  0.111034  0  1.059464  0  0  0.11335  0  1.059303  0  0  0.11558  0.109347  0  1.059759  0
H  H6  1  0.36509069  0.41100357  0.79406356  1  0  0.103102  0  0.993608  0  0  0.110923  0  1.05967  0  0  0.113227  0  1.059532  0  0  0.115619  0.109236  0  1.059964  0
H  H7  1  0.36509694  0.08900000  0.70594041  1  0  0.103096  0  0.993609  0  0  0.110909  0  1.059689  0  0  0.113213  0  1.059552  0  0  0.115609  0.109221  0  1.059983  0
H  H8  1  0.63487355  0.20594011  0.91100633  1  0  0.10305  0  0.993604  0  0  0.110926  0  1.059636  0  0  0.113233  0  1.059491  0  0  0.115561  0.109237  0  1.059932  0
H  H9  1  0.63488327  0.29407311  0.58899704  1  0  0.103081  0  0.993673  0  0  0.110967  0  1.059667  0  0  0.113275  0  1.05952  0  0  0.115572  0.10928  0  1.059965  0
H  H10  1  0.63490856  0.58899523  0.20593150  1  0  0.103099  0  0.993668  0  0  0.110922  0  1.059708  0  0  0.113227  0  1.059569  0  0  0.115624  0.109236  0  1.060004  0
H  H11  1  0.63487563  0.91100323  0.29405818  1  0  0.103077  0  0.993467  0  0  0.110903  0  1.05957  0  0  0.11321  0  1.059423  0  0  0.11557  0.109215  0  1.059865  0
H  H12  1  0.52070660  0.02620701  0.09314128  1  0  0.097928  0  0.972483  0  0  0.104215  0  1.040403  0  0  0.106492  0  1.039684  0  0  0.109971  0.102604  0  1.041019  0
H  H13  1  0.52071970  0.47378524  0.40685609  1  0  0.097881  0  0.972482  0  0  0.104188  0  1.040376  0  0  0.106465  0  1.039657  0  0  0.109925  0.102578  0  1.04099  0
H  H14  1  0.52069423  0.40685561  0.02620706  1  0  0.097926  0  0.972464  0  0  0.104188  0  1.040433  0  0  0.106467  0  1.039713  0  0  0.109915  0.102578  0  1.041048  0
H  H15  1  0.52070538  0.09314991  0.47379739  1  0  0.097943  0  0.972587  0  0  0.104183  0  1.040544  0  0  0.10646  0  1.039825  0  0  0.109948  0.102574  0  1.041156  0
H  H16  1  0.47928098  0.97378737  0.90685466  1  0  0.097933  0  0.97246  0  0  0.104197  0  1.040414  0  0  0.106474  0  1.039697  0  0  0.109937  0.102588  0  1.041028  0
H  H17  1  0.47928789  0.52621886  0.59315047  1  0  0.097912  0  0.972484  0  0  0.104225  0  1.040385  0  0  0.106506  0  1.039663  0  0  0.109917  0.102612  0  1.041003  0
H  H18  1  0.47931169  0.59314673  0.97378800  1  0  0.097892  0  0.972528  0  0  0.104194  0  1.040454  0  0  0.106475  0  1.039732  0  0  0.109924  0.102583  0  1.041071  0
H  H19  1  0.47929387  0.90684270  0.52620917  1  0  0.097929  0  0.972614  0  0  0.104257  0  1.040493  0  0  0.106537  0  1.039772  0  0  0.109947  0.102643  0  1.041114  0
H  H20  1  0.01013295  0.99185504  0.34529844  1  0  0.084525  0  0.957886  0  0  0.093027  0  1.02419  0  0  0.095303  0  1.021608  0  0  0.128715  0.091364  0  1.026048  0
H  H21  1  0.01015437  0.50815121  0.15469970  1  0  0.084498  0  0.957922  0  0  0.092971  0  1.024248  0  0  0.095252  0  1.021664  0  0  0.128671  0.091309  0  1.026105  0
H  H22  1  0.01012998  0.15470113  0.99184730  1  0  0.08447  0  0.957992  0  0  0.092985  0  1.024284  0  0  0.095256  0  1.0217  0  0  0.128715  0.091322  0  1.026141  0
H  H23  1  0.01012163  0.34529954  0.50814331  1  0  0.084371  0  0.957985  0  0  0.092904  0  1.024267  0  0  0.095173  0  1.021684  0  0  0.128667  0.091243  0  1.026123  0
H  H24  1  0.98985796  0.00814642  0.65470546  1  0  0.084523  0  0.957906  0  0  0.093006  0  1.024223  0  0  0.095288  0  1.021636  0  0  0.128682  0.091343  0  1.026081  0
H  H25  1  0.98985156  0.49184937  0.84530597  1  0  0.084519  0  0.95782  0  0  0.093002  0  1.024142  0  0  0.095283  0  1.021559  0  0  0.128686  0.091339  0  1.026002  0
H  H26  1  0.98988262  0.84529855  0.00814422  1  0  0.08439  0  0.957973  0  0  0.092928  0  1.024244  0  0  0.095197  0  1.021663  0  0  0.128699  0.091268  0  1.026098  0
H  H27  1  0.98987595  0.65470546  0.49184998  1  0  0.084484  0  0.957948  0  0  0.092988  0  1.024236  0  0  0.095265  0  1.021661  0  0  0.128692  0.091326  0  1.026096  0
C  C28  1  0.31352217  0.86943587  0.14139398  1  0  -0.024972  0  3.693166  0  0  -0.064855  0  3.953815  0  0  -0.062557  0  3.97173  0  0  -0.00038  -0.066369  0  3.941827  0
C  C29  1  0.31353089  0.63054886  0.35859641  1  0  -0.024972  0  3.693598  0  0  -0.064908  0  3.95418  0  0  -0.062612  0  3.972098  0  0  -0.000338  -0.066414  0  3.942173  0
C  C30  1  0.31350797  0.35859786  0.86944087  1  0  -0.024919  0  3.693344  0  0  -0.064667  0  3.954043  0  0  -0.062367  0  3.971964  0  0  -0.000401  -0.06618  0  3.942044  0
C  C31  1  0.31350605  0.14140783  0.63056233  1  0  -0.024956  0  3.69335  0  0  -0.064668  0  3.954043  0  0  -0.062369  0  3.971967  0  0  -0.000409  -0.066178  0  3.942038  0
C  C32  1  0.68646374  0.13056205  0.85860019  1  0  -0.024922  0  3.69326  0  0  -0.064768  0  3.953887  0  0  -0.062469  0  3.971803  0  0  -0.000333  -0.066283  0  3.941896  0
C  C33  1  0.68647504  0.36944641  0.64139953  1  0  -0.024881  0  3.69336  0  0  -0.064734  0  3.953974  0  0  -0.062434  0  3.971889  0  0  -0.000287  -0.066247  0  3.941979  0
C  C34  1  0.68649796  0.64140094  0.13056038  1  0  -0.02492  0  3.693161  0  0  -0.064622  0  3.953838  0  0  -0.062321  0  3.971758  0  0  -0.000395  -0.066136  0  3.941842  0
C  C35  1  0.68648486  0.85858744  0.36943715  1  0  -0.02486  0  3.693419  0  0  -0.064652  0  3.954099  0  0  -0.062351  0  3.97202  0  0  -0.00035  -0.066166  0  3.9421  0
C  C36  1  0.38899692  0.98417012  0.14362397  1  0  -0.023479  0  3.775308  0  0  -0.052122  0  4.038348  0  0  -0.050621  0  4.058027  0  0  -0.013396  -0.053141  0  4.024865  0
C  C37  1  0.38901568  0.51582382  0.35637511  1  0  -0.023376  0  3.775168  0  0  -0.052042  0  4.038214  0  0  -0.050543  0  4.057897  0  0  -0.013345  -0.053059  0  4.024729  0
C  C38  1  0.38899120  0.35637291  0.98416835  1  0  -0.023614  0  3.775121  0  0  -0.052257  0  4.038154  0  0  -0.05076  0  4.057829  0  0  -0.013458  -0.053274  0  4.024669  0
C  C39  1  0.38899737  0.14363049  0.51583026  1  0  -0.023624  0  3.775219  0  0  -0.052225  0  4.03826  0  0  -0.050729  0  4.057937  0  0  -0.013463  -0.053241  0  4.024764  0
C  C40  1  0.61098732  0.01583222  0.85637463  1  0  -0.023492  0  3.775354  0  0  -0.052133  0  4.038386  0  0  -0.050632  0  4.058064  0  0  -0.013356  -0.053153  0  4.024898  0
C  C41  1  0.61100360  0.48417940  0.64362968  1  0  -0.023786  0  3.77531  0  0  -0.052479  0  4.038373  0  0  -0.050984  0  4.058051  0  0  -0.013579  -0.053495  0  4.024886  0
C  C42  1  0.61102307  0.64362943  0.01582670  1  0  -0.023711  0  3.775343  0  0  -0.052407  0  4.038397  0  0  -0.050911  0  4.058071  0  0  -0.013567  -0.053423  0  4.024914  0
C  C43  1  0.61099187  0.85637008  0.48416745  1  0  -0.023706  0  3.775193  0  0  -0.052403  0  4.038222  0  0  -0.050911  0  4.057897  0  0  -0.013533  -0.053418  0  4.024732  0
C  C44  1  0.12894109  0.96999633  0.27650961  1  0  0.213872  0  3.66495  0  0  0.154263  0  3.927622  0  0  0.169112  0  3.939854  0  0  0.142493  0.144755  0  3.918577  0
C  C45  1  0.12893963  0.53000645  0.22348738  1  0  0.214114  0  3.664621  0  0  0.154499  0  3.927219  0  0  0.169344  0  3.939448  0  0  0.142557  0.144991  0  3.918181  0
C  C46  1  0.12891715  0.22348951  0.96999365  1  0  0.213906  0  3.664897  0  0  0.154329  0  3.927616  0  0  0.169188  0  3.939838  0  0  0.142502  0.144819  0  3.918573  0
C  C47  1  0.12892120  0.27651123  0.53000377  1  0  0.214073  0  3.664746  0  0  0.154509  0  3.927512  0  0  0.16937  0  3.939733  0  0  0.142578  0.144999  0  3.918471  0
C  C48  1  0.87106317  0.03000512  0.72349075  1  0  0.213919  0  3.664659  0  0  0.154343  0  3.927319  0  0  0.169188  0  3.939549  0  0  0.142484  0.144833  0  3.91828  0
C  C49  1  0.87104961  0.46999412  0.77651829  1  0  0.213921  0  3.664879  0  0  0.154331  0  3.927517  0  0  0.169174  0  3.93975  0  0  0.142544  0.144822  0  3.918477  0
C  C50  1  0.87108544  0.77650752  0.03000230  1  0  0.214034  0  3.664764  0  0  0.154452  0  3.927532  0  0  0.169316  0  3.939745  0  0  0.142569  0.144943  0  3.91849  0
C  C51  1  0.87107972  0.72349288  0.46999128  1  0  0.213822  0  3.665093  0  0  0.154259  0  3.927772  0  0  0.169104  0  3.94  0  0  0.142451  0.144746  0  3.918732  0
Br  Br52  1  0.76969587  0.24999086  0.25001610  1  0  -0.646741  0  0.728613  0  0  -0.592831  0  0.994529  0  0  -0.608722  0  0.973106  0  0  -0.374066  -0.584111  0  1.011411  0
Br  Br53  1  0.23030838  0.74999821  0.75000019  1  0  -0.646715  0  0.728602  0  0  -0.592779  0  0.994486  0  0  -0.608691  0  0.973107  0  0  -0.374041  -0.58406  0  1.011367  0
N  N54  1  0.14736696  0.86046805  0.22654611  1  0  -0.329221  0  3.471577  0  0  -0.225565  0  3.703059  0  0  -0.244182  0  3.724076  0  0  -0.230359  -0.212994  0  3.688315  0
N  N55  1  0.14737662  0.63953107  0.27345703  1  0  -0.32952  0  3.472078  0  0  -0.225726  0  3.703408  0  0  -0.244336  0  3.724412  0  0  -0.230407  -0.213158  0  3.688669  0
N  N56  1  0.14735390  0.27345513  0.86046659  1  0  -0.32923  0  3.471832  0  0  -0.225775  0  3.703486  0  0  -0.244407  0  3.724517  0  0  -0.230417  -0.213207  0  3.688747  0
N  N57  1  0.14734730  0.22655080  0.63953256  1  0  -0.329321  0  3.471923  0  0  -0.225963  0  3.703712  0  0  -0.244597  0  3.724752  0  0  -0.230458  -0.213393  0  3.688974  0
N  N58  1  0.85262562  0.13953252  0.77345514  1  0  -0.329296  0  3.471749  0  0  -0.225687  0  3.703254  0  0  -0.244309  0  3.724274  0  0  -0.230344  -0.213117  0  3.688509  0
N  N59  1  0.85262430  0.36046950  0.72654952  1  0  -0.329228  0  3.471809  0  0  -0.225592  0  3.703307  0  0  -0.244201  0  3.724297  0  0  -0.230411  -0.21302  0  3.688558  0
N  N60  1  0.85266203  0.72654809  0.13953112  1  0  -0.329311  0  3.471724  0  0  -0.2259  0  3.703444  0  0  -0.244538  0  3.724501  0  0  -0.230494  -0.21333  0  3.688709  0
N  N61  1  0.85264361  0.77345243  0.36046427  1  0  -0.329224  0  3.472204  0  0  -0.225728  0  3.703836  0  0  -0.244352  0  3.724865  0  0  -0.230337  -0.213159  0  3.689099  0
N  N62  1  0.27184382  0.04601285  0.22853878  1  0  -0.385476  0  3.263997  0  0  -0.307319  0  3.538307  0  0  -0.328355  0  3.556829  0  0  -0.363265  -0.292065  0  3.524823  0
N  N63  1  0.27185725  0.45398022  0.27145383  1  0  -0.385591  0  3.263422  0  0  -0.307458  0  3.537796  0  0  -0.328499  0  3.556317  0  0  -0.363285  -0.292206  0  3.524318  0
N  N64  1  0.27183165  0.27145619  0.04601583  1  0  -0.385385  0  3.26342  0  0  -0.307194  0  3.537682  0  0  -0.328236  0  3.55621  0  0  -0.363156  -0.291938  0  3.524197  0
N  N65  1  0.27182939  0.22854395  0.45398564  1  0  -0.385404  0  3.263639  0  0  -0.307228  0  3.537906  0  0  -0.328265  0  3.556426  0  0  -0.363174  -0.291975  0  3.524424  0
N  N66  1  0.72814709  0.95398507  0.77146247  1  0  -0.385515  0  3.263589  0  0  -0.307363  0  3.537921  0  0  -0.328397  0  3.556438  0  0  -0.363279  -0.292109  0  3.52444  0
N  N67  1  0.72815034  0.54601593  0.72855095  1  0  -0.385329  0  3.263838  0  0  -0.307168  0  3.538141  0  0  -0.328205  0  3.556666  0  0  -0.363118  -0.291914  0  3.524655  0
N  N68  1  0.72817761  0.72854085  0.95398365  1  0  -0.385248  0  3.263696  0  0  -0.307054  0  3.53797  0  0  -0.328089  0  3.556492  0  0  -0.363055  -0.291799  0  3.524484  0
N  N69  1  0.72817153  0.77145574  0.54601296  1  0  -0.385349  0  3.2635  0  0  -0.307171  0  3.537774  0  0  -0.328209  0  3.556303  0  0  -0.363164  -0.291913  0  3.524284  0
