# generated using pymatgen
data_AgH10C13SN2O4F3
_symmetry_space_group_name_H-M   'P 1'
_cell_length_a   9.13772248
_cell_length_b   10.23587276
_cell_length_c   16.47550000
_cell_angle_alpha   90.00000000
_cell_angle_beta   101.20123623
_cell_angle_gamma   90.00000000
_symmetry_Int_Tables_number   1
_chemical_formula_structural   AgH10C13SN2O4F3
_chemical_formula_sum   'Ag4 H40 C52 S4 N8 O16 F12'
_cell_volume   1511.64128503
_cell_formula_units_Z   4
loop_
 _symmetry_equiv_pos_site_id
 _symmetry_equiv_pos_as_xyz
  1  'x, y, z'
loop_
 _atom_site_type_symbol
 _atom_site_label
 _atom_site_symmetry_multiplicity
 _atom_site_fract_x
 _atom_site_fract_y
 _atom_site_fract_z
 _atom_site_occupancy
 _atom_site_hle17_bader_spin_density
 _atom_site_hle17_ddec_charge
 _atom_site_hle17_ddec_spin_density
 _atom_site_hle17_ddec_sum_bond_order
 _atom_site_hle17_magmom
 _atom_site_hse06_10hf_bader_spin_density
 _atom_site_hse06_10hf_ddec_charge
 _atom_site_hse06_10hf_ddec_spin_density
 _atom_site_hse06_10hf_ddec_sum_bond_order
 _atom_site_hse06_10hf_magmom
 _atom_site_hse06_bader_spin_density
 _atom_site_hse06_ddec_charge
 _atom_site_hse06_ddec_spin_density
 _atom_site_hse06_ddec_sum_bond_order
 _atom_site_hse06_magmom
 _atom_site_pbe_bader_charge
 _atom_site_pbe_bader_spin_density
 _atom_site_pbe_cm5_charge
 _atom_site_pbe_ddec_charge
 _atom_site_pbe_ddec_spin_density
 _atom_site_pbe_ddec_sum_bond_order
 _atom_site_pbe_magmom
Ag  Ag0  1  0.53746363  0.59073712  0.11182401  1  0  0.557727  0  1.383861  0  0  0.413162  0  1.824494  0  0  0.443656  0  1.778212  0  0.607154  0  0.468044  0.392484  0  1.856489  0
Ag  Ag1  1  0.46253663  0.09073481  0.38817863  1  0  0.557675  0  1.383898  0  0  0.413123  0  1.824518  0  0  0.443616  0  1.778238  0  0.607181  0  0.468043  0.392445  0  1.856515  0
Ag  Ag2  1  0.46253663  0.40926652  0.88817802  1  0  0.557659  0  1.383874  0  0  0.413116  0  1.824515  0  0  0.443608  0  1.778235  0  0.607172  0  0.468042  0.392442  0  1.856512  0
Ag  Ag3  1  0.53746363  0.90926394  0.61182219  1  0  0.557688  0  1.383884  0  0  0.413107  0  1.824544  0  0  0.4436  0  1.778267  0  0.607142  0  0.468029  0.392431  0  1.856541  0
H  H4  1  0.86325363  0.61613310  0.16242183  1  0  0.08049  0  0.953885  0  0  0.087472  0  1.022181  0  0  0.090207  0  1.018786  0  0.089109  0  0.113266  0.085525  0  1.024822  0
H  H5  1  0.13674775  0.11613568  0.33757789  1  0  0.080532  0  0.953886  0  0  0.08752  0  1.022166  0  0  0.090254  0  1.018775  0  0.089068  0  0.113306  0.085572  0  1.024807  0
H  H6  1  0.13675109  0.38386663  0.83757825  1  0  0.080551  0  0.953843  0  0  0.087542  0  1.022109  0  0  0.090277  0  1.018717  0  0.089104  0  0.11331  0.085595  0  1.024747  0
H  H7  1  0.86325028  0.88386601  0.66242147  1  0  0.080538  0  0.953824  0  0  0.087532  0  1.022098  0  0  0.090266  0  1.018706  0  0.089107  0  0.113293  0.085584  0  1.024736  0
H  H8  1  0.08815040  0.50661142  0.24473440  1  0  0.119486  0  0.947934  0  0  0.128367  0  1.009114  0  0  0.131634  0  1.008112  0  0.154887  0  0.109649  0.125966  0  1.009976  0
H  H9  1  0.91184874  0.00661790  0.25526265  1  0  0.119481  0  0.947871  0  0  0.128353  0  1.009068  0  0  0.13162  0  1.008066  0  0.154925  0  0.109637  0.125949  0  1.009934  0
H  H10  1  0.91185432  0.49338538  0.75526447  1  0  0.119525  0  0.947802  0  0  0.128381  0  1.009018  0  0  0.131647  0  1.008014  0  0.154897  0  0.109644  0.125979  0  1.009882  0
H  H11  1  0.08814594  0.99338867  0.74473574  1  0  0.119475  0  0.947869  0  0  0.128368  0  1.009043  0  0  0.131635  0  1.008041  0  0.154911  0  0.109639  0.125968  0  1.009903  0
H  H12  1  0.05105394  0.31183565  0.33034223  1  0  0.099973  0  0.966584  0  0  0.110592  0  1.027891  0  0  0.113259  0  1.025551  0  0.125476  0  0.105941  0.109264  0  1.028518  0
H  H13  1  0.94894409  0.81183991  0.16965652  1  0  0.099968  0  0.966591  0  0  0.110605  0  1.02786  0  0  0.113272  0  1.025521  0  0.125457  0  0.10595  0.109279  0  1.028485  0
H  H14  1  0.94894856  0.68816311  0.66965761  1  0  0.099956  0  0.966547  0  0  0.110577  0  1.027863  0  0  0.113243  0  1.025524  0  0.125497  0  0.105914  0.10925  0  1.028489  0
H  H15  1  0.05104947  0.18816471  0.83034297  1  0  0.099964  0  0.966567  0  0  0.110558  0  1.027901  0  0  0.113224  0  1.025562  0  0.125466  0  0.105941  0.109232  0  1.028524  0
H  H16  1  0.79057459  0.22984264  0.32703722  1  0  0.137757  0  0.955112  0  0  0.147643  0  1.014946  0  0  0.151251  0  1.013358  0  0.158561  0  0.110662  0.145076  0  1.016082  0
H  H17  1  0.20942344  0.72984788  0.17296517  1  0  0.137831  0  0.955087  0  0  0.147682  0  1.014948  0  0  0.15129  0  1.01336  0  0.158654  0  0.110671  0.145116  0  1.016084  0
H  H18  1  0.20942567  0.77015807  0.67296238  1  0  0.137756  0  0.9551  0  0  0.147627  0  1.014947  0  0  0.151236  0  1.013361  0  0.158559  0  0.110647  0.14506  0  1.016084  0
H  H19  1  0.79057124  0.27015674  0.82703504  1  0  0.137768  0  0.955085  0  0  0.147645  0  1.014933  0  0  0.151253  0  1.013346  0  0.158691  0  0.110651  0.145079  0  1.016069  0
H  H20  1  0.53016192  0.23171742  0.25259358  1  0  0.159255  0  0.958067  0  0  0.165518  0  1.029282  0  0  0.170421  0  1.024081  0  0.178178  0  0.113872  0.162153  0  1.033007  0
H  H21  1  0.46983387  0.73171875  0.24740615  1  0  0.159216  0  0.958109  0  0  0.165506  0  1.029306  0  0  0.17041  0  1.024103  0  0.178199  0  0.113894  0.162145  0  1.033027  0
H  H22  1  0.46984057  0.76828427  0.74740444  1  0  0.159259  0  0.958066  0  0  0.165523  0  1.029284  0  0  0.170443  0  1.024064  0  0.178149  0  0.113869  0.162154  0  1.033002  0
H  H23  1  0.53016081  0.26828294  0.75259528  1  0  0.159268  0  0.958029  0  0  0.165511  0  1.029284  0  0  0.170431  0  1.024063  0  0.178151  0  0.113871  0.162141  0  1.033005  0
H  H24  1  0.46121462  0.36030635  0.18127707  1  0  0.156002  0  0.937119  0  0  0.170302  0  0.993783  0  0  0.173268  0  0.991849  0  0.150651  0  0.11821  0.16807  0  0.995295  0
H  H25  1  0.53878452  0.86030573  0.31872362  1  0  0.155986  0  0.937107  0  0  0.170287  0  0.993784  0  0  0.173251  0  0.991849  0  0.150649  0  0.118204  0.168055  0  0.995298  0
H  H26  1  0.53878675  0.63969728  0.81872144  1  0  0.156035  0  0.937084  0  0  0.170342  0  0.993762  0  0  0.173308  0  0.991831  0  0.150703  0  0.118219  0.1681  0  0.99528  0
H  H27  1  0.46121128  0.13969791  0.68127853  1  0  0.155995  0  0.937127  0  0  0.170308  0  0.993801  0  0  0.173273  0  0.991869  0  0.150771  0  0.118201  0.168066  0  0.995319  0
H  H28  1  0.64336683  0.58929318  0.41822647  1  0  0.130076  0  0.939463  0  0  0.137872  0  0.999428  0  0  0.141787  0  0.997211  0  0.158744  0  0.113475  0.134997  0  1.001228  0
H  H29  1  0.35663455  0.08929185  0.08177265  1  0  0.130072  0  0.939477  0  0  0.137868  0  0.999442  0  0  0.141784  0  0.997223  0  0.158779  0  0.113467  0.134991  0  1.001242  0
H  H30  1  0.35663455  0.41070655  0.58177265  1  0  0.130072  0  0.939478  0  0  0.137867  0  0.999448  0  0  0.141783  0  0.99723  0  0.158771  0  0.113467  0.13499  0  1.001249  0
H  H31  1  0.64336348  0.91070690  0.91822611  1  0  0.130057  0  0.939475  0  0  0.137836  0  0.999463  0  0  0.141751  0  0.997246  0  0.15873  0  0.113452  0.13496  0  1.001264  0
H  H32  1  0.82205281  0.55474996  0.55331355  1  0  0.104081  0  0.947936  0  0  0.112056  0  1.010727  0  0  0.115301  0  1.008038  0  0.097229  0  0.108921  0.11007  0  1.012046  0
H  H33  1  0.17794856  0.05474570  0.94668618  1  0  0.104066  0  0.948004  0  0  0.112059  0  1.010785  0  0  0.115294  0  1.008106  0  0.097272  0  0.108918  0.110073  0  1.012105  0
H  H34  1  0.17794745  0.44525368  0.44668606  1  0  0.104062  0  0.947997  0  0  0.11204  0  1.010782  0  0  0.115275  0  1.008104  0  0.097251  0  0.108923  0.110053  0  1.012103  0
H  H35  1  0.82205170  0.94525012  0.05331282  1  0  0.104062  0  0.94798  0  0  0.112039  0  1.010768  0  0  0.115285  0  1.008078  0  0.097251  0  0.108908  0.110052  0  1.012089  0
H  H36  1  0.83772164  0.33068406  0.61771117  1  0  0.110016  0  0.938312  0  0  0.118865  0  0.998691  0  0  0.121719  0  0.998143  0  0.114871  0  0.110969  0.11702  0  0.998873  0
H  H37  1  0.16228085  0.83067953  0.88228928  1  0  0.110025  0  0.93828  0  0  0.118891  0  0.998638  0  0  0.121746  0  0.998088  0  0.114648  0  0.110979  0.117045  0  0.998822  0
H  H38  1  0.16228085  0.66931957  0.38228807  1  0  0.110036  0  0.938308  0  0  0.118912  0  0.99866  0  0  0.121767  0  0.998109  0  0.11463  0  0.110969  0.117066  0  0.998842  0
H  H39  1  0.83771829  0.16931629  0.11771081  1  0  0.110063  0  0.938295  0  0  0.118892  0  0.998682  0  0  0.121745  0  0.998137  0  0.114697  0  0.110981  0.117047  0  0.998865  0
H  H40  1  0.67816735  0.15166660  0.54397335  1  0  0.087121  0  0.939042  0  0  0.093095  0  1.006953  0  0  0.095562  0  1.0049  0  0.130283  0  0.116888  0.091171  0  1.008783  0
H  H41  1  0.32183514  0.65166304  0.95602831  1  0  0.087126  0  0.938991  0  0  0.093095  0  1.006919  0  0  0.095561  0  1.004869  0  0.13026  0  0.116881  0.091167  0  1.008744  0
H  H42  1  0.32183625  0.84833509  0.45602722  1  0  0.08713  0  0.939004  0  0  0.093107  0  1.006911  0  0  0.095575  0  1.004852  0  0.130266  0  0.116892  0.091181  0  1.008737  0
H  H43  1  0.67816512  0.34833376  0.04397372  1  0  0.087121  0  0.939042  0  0  0.093099  0  1.006951  0  0  0.095567  0  1.004892  0  0.130265  0  0.116887  0.091172  0  1.008778  0
C  C44  1  0.85224696  0.53201326  0.20103751  1  0  0.136555  0  3.693222  0  0  0.104614  0  3.944278  0  0  0.111911  0  3.961746  0  0.532228  0  0.045913  0.099353  0  3.933313  0
C  C45  1  0.14775330  0.03201388  0.29896270  1  0  0.136494  0  3.693281  0  0  0.10456  0  3.944323  0  0  0.111854  0  3.961793  0  0.532245  0  0.045909  0.099301  0  3.933356  0
C  C46  1  0.14775665  0.46798940  0.79896367  1  0  0.136361  0  3.693458  0  0  0.104452  0  3.944506  0  0  0.111742  0  3.961972  0  0.53223  0  0.045816  0.099194  0  3.933538  0
C  C47  1  0.85224361  0.96798976  0.70103654  1  0  0.1365  0  3.693347  0  0  0.104547  0  3.944414  0  0  0.111841  0  3.961885  0  0.53183  0  0.045917  0.099287  0  3.933444  0
C  C48  1  0.97686127  0.47150547  0.24776672  1  0  -0.102665  0  3.708258  0  0  -0.119873  0  3.960788  0  0  -0.125343  0  3.980401  0  -0.092973  0  -0.081408  -0.116212  0  3.947811  0
C  C49  1  0.02313788  0.97150680  0.25223337  1  0  -0.102589  0  3.708156  0  0  -0.119793  0  3.960678  0  0  -0.125262  0  3.98029  0  -0.093054  0  -0.081393  -0.116131  0  3.9477  0
C  C50  1  0.02314234  0.52849524  0.75223325  1  0  -0.102701  0  3.708276  0  0  -0.119885  0  3.960795  0  0  -0.125355  0  3.980409  0  -0.09309  0  -0.081404  -0.116222  0  3.947812  0
C  C51  1  0.97685792  0.02849586  0.74776757  1  0  -0.102647  0  3.708245  0  0  -0.11986  0  3.960762  0  0  -0.125331  0  3.980376  0  -0.092706  0  -0.081401  -0.116198  0  3.94778  0
C  C52  1  0.95526740  0.36214206  0.29431825  1  0  0.001855  0  3.711224  0  0  -0.018202  0  3.961901  0  0  -0.014625  0  3.979919  0  -0.056949  0  -0.067586  -0.020585  0  3.948752  0
C  C53  1  0.04472951  0.86214339  0.20568160  1  0  0.001798  0  3.711274  0  0  -0.018266  0  3.961932  0  0  -0.01469  0  3.979949  0  -0.056752  0  -0.067611  -0.020647  0  3.948776  0
C  C54  1  0.04473397  0.63785767  0.70568208  1  0  0.001891  0  3.71124  0  0  -0.018182  0  3.961914  0  0  -0.014604  0  3.979934  0  -0.057003  0  -0.067576  -0.020562  0  3.948757  0
C  C55  1  0.95526406  0.13785928  0.79431789  1  0  0.001884  0  3.711231  0  0  -0.018157  0  3.96193  0  0  -0.014578  0  3.97995  0  -0.056966  0  -0.067594  -0.02054  0  3.948781  0
C  C56  1  0.81077393  0.31702719  0.29265374  1  0  -0.161958  0  3.666933  0  0  -0.179599  0  3.907558  0  0  -0.187201  0  3.930041  0  -0.018779  0  -0.084005  -0.174273  0  3.892116  0
C  C57  1  0.18922409  0.81703145  0.20734744  1  0  -0.162068  0  3.667024  0  0  -0.17968  0  3.90764  0  0  -0.187279  0  3.930121  0  -0.018991  0  -0.084007  -0.174354  0  3.892199  0
C  C58  1  0.18922744  0.68297156  0.70734477  1  0  -0.161981  0  3.666998  0  0  -0.179598  0  3.907602  0  0  -0.187201  0  3.93008  0  -0.018584  0  -0.083963  -0.174275  0  3.892164  0
C  C59  1  0.81077059  0.18297121  0.79265399  1  0  -0.162054  0  3.667006  0  0  -0.179687  0  3.907627  0  0  -0.187291  0  3.930108  0  -0.018698  0  -0.084022  -0.174365  0  3.892191  0
C  C60  1  0.69080505  0.38309386  0.24411736  1  0  0.267846  0  3.744828  0  0  0.271869  0  3.981858  0  0  0.278393  0  4.006291  0  0.451023  0  0.110271  0.267302  0  3.965693  0
C  C61  1  0.30919409  0.88309617  0.25588273  1  0  0.267962  0  3.744715  0  0  0.271976  0  3.981764  0  0  0.278499  0  4.006197  0  0.451061  0  0.11026  0.267412  0  3.965604  0
C  C62  1  0.30919744  0.61690587  0.75588127  1  0  0.267827  0  3.744769  0  0  0.271877  0  3.981818  0  0  0.278397  0  4.006253  0  0.451015  0  0.110221  0.267302  0  3.965652  0
C  C63  1  0.69080059  0.11690454  0.74411749  1  0  0.267989  0  3.744685  0  0  0.272015  0  3.981735  0  0  0.278538  0  4.006169  0  0.451  0  0.110294  0.267438  0  3.965569  0
C  C64  1  0.53447601  0.33708215  0.24080017  1  0  -0.37043  0  3.605968  0  0  -0.409267  0  3.84043  0  0  -0.414154  0  3.845372  0  -0.227686  0  -0.150661  -0.406197  0  3.837757  0
C  C65  1  0.46552425  0.83708250  0.25920064  1  0  -0.370398  0  3.605938  0  0  -0.409257  0  3.840363  0  0  -0.414141  0  3.8453  0  -0.227697  0  -0.150657  -0.406197  0  3.837707  0
C  C66  1  0.46552760  0.66291953  0.75919736  1  0  -0.370458  0  3.605907  0  0  -0.409305  0  3.840345  0  0  -0.414208  0  3.845274  0  -0.227731  0  -0.1506  -0.406201  0  3.837632  0
C  C67  1  0.53447155  0.16291820  0.74080151  1  0  -0.370433  0  3.605903  0  0  -0.409285  0  3.840359  0  0  -0.414185  0  3.845286  0  -0.22781  0  -0.150594  -0.406181  0  3.83765  0
C  C68  1  0.57139175  0.38866056  0.41321299  1  0  0.031433  0  3.746807  0  0  0.04023  0  3.996533  0  0  0.039894  0  4.022191  0  0.351387  0  0.105398  0.040112  0  3.979597  0
C  C69  1  0.42861075  0.88865993  0.08678746  1  0  0.031402  0  3.746915  0  0  0.040187  0  3.996644  0  0  0.039848  0  4.02231  0  0.351426  0  0.105345  0.040068  0  3.979709  0
C  C70  1  0.42860851  0.61133820  0.58678783  1  0  0.03149  0  3.746859  0  0  0.040273  0  3.996599  0  0  0.039932  0  4.02226  0  0.35142  0  0.105388  0.040153  0  3.979664  0
C  C71  1  0.57139063  0.11133980  0.91321287  1  0  0.031345  0  3.746855  0  0  0.040133  0  3.996603  0  0  0.039795  0  4.022263  0  0.351291  0  0.105346  0.040015  0  3.979667  0
C  C72  1  0.65564418  0.49457238  0.44857231  1  0  -0.102746  0  3.714416  0  0  -0.127834  0  3.964702  0  0  -0.132127  0  3.986657  0  0.005062  0  -0.075013  -0.124662  0  3.950075  0
C  C73  1  0.34435719  0.99456981  0.05142741  1  0  -0.1027  0  3.714356  0  0  -0.127764  0  3.964644  0  0  -0.132056  0  3.986597  0  0.005018  0  -0.074958  -0.124588  0  3.950016  0
C  C74  1  0.34435719  0.50542930  0.55142741  1  0  -0.102754  0  3.71445  0  0  -0.127839  0  3.964733  0  0  -0.132128  0  3.986684  0  0.004964  0  -0.074983  -0.124662  0  3.950106  0
C  C75  1  0.65564195  0.00542797  0.94857268  1  0  -0.102669  0  3.714384  0  0  -0.127743  0  3.964675  0  0  -0.132035  0  3.986631  0  0.005158  0  -0.074968  -0.124567  0  3.950044  0
C  C76  1  0.75434942  0.47433474  0.52348337  1  0  0.004145  0  3.682281  0  0  -0.014101  0  3.933918  0  0  -0.012035  0  3.951266  0  -0.011189  0  -0.059946  -0.015454  0  3.922109  0
C  C77  1  0.24565084  0.97433020  0.97651684  1  0  0.004219  0  3.682331  0  0  -0.014092  0  3.934023  0  0  -0.01202  0  3.951377  0  -0.011147  0  -0.059935  -0.015445  0  3.922208  0
C  C78  1  0.24565084  0.52566793  0.47651684  1  0  0.004256  0  3.682277  0  0  -0.013991  0  3.933905  0  0  -0.011918  0  3.951259  0  -0.011135  0  -0.059916  -0.015348  0  3.922099  0
C  C79  1  0.75434831  0.02566562  0.02348325  1  0  0.004212  0  3.682333  0  0  -0.01404  0  3.93397  0  0  -0.011973  0  3.951317  0  -0.011168  0  -0.059943  -0.015394  0  3.922162  0
C  C80  1  0.76278794  0.35059639  0.55916476  1  0  -0.081567  0  3.684429  0  0  -0.098671  0  3.937492  0  0  -0.102308  0  3.955809  0  -0.024332  0  -0.069121  -0.09636  0  3.92524  0
C  C81  1  0.23721343  0.85059283  0.94083557  1  0  -0.081716  0  3.684588  0  0  -0.098802  0  3.937664  0  0  -0.102439  0  3.955979  0  -0.024099  0  -0.069212  -0.09649  0  3.925412  0
C  C82  1  0.23721343  0.64940725  0.44083496  1  0  -0.081784  0  3.684616  0  0  -0.098916  0  3.937701  0  0  -0.102554  0  3.956013  0  -0.024077  0  -0.069222  -0.096604  0  3.925449  0
C  C83  1  0.76278571  0.14940494  0.05916452  1  0  -0.081767  0  3.684539  0  0  -0.098853  0  3.937633  0  0  -0.102491  0  3.955948  0  -0.024102  0  -0.069194  -0.096542  0  3.925383  0
C  C84  1  0.67400834  0.25031866  0.51875697  1  0  0.152538  0  3.632574  0  0  0.123273  0  3.878755  0  0  0.129383  0  3.896286  0  0.516677  0  0.058532  0.119148  0  3.867314  0
C  C85  1  0.32599415  0.75031609  0.98124348  1  0  0.152734  0  3.632625  0  0  0.123456  0  3.878794  0  0  0.129568  0  3.896322  0  0.516616  0  0.058628  0.119339  0  3.867346  0
C  C86  1  0.32599527  0.74968302  0.48124238  1  0  0.152714  0  3.632641  0  0  0.12344  0  3.878822  0  0  0.129552  0  3.896352  0  0.516569  0  0.058604  0.11932  0  3.867373  0
C  C87  1  0.67400499  0.24968267  0.01875783  1  0  0.152717  0  3.632584  0  0  0.123443  0  3.878757  0  0  0.129557  0  3.896287  0  0.516611  0  0.058599  0.119324  0  3.867311  0
C  C88  1  0.24711564  0.44230425  0.07084661  1  0  0.474614  0  4.089634  0  0  0.427778  0  4.387987  0  0  0.456772  0  4.383324  0  1.691842  0  0.171241  0.408658  0  4.389753  0
C  C89  1  0.75288350  0.94230069  0.42915287  1  0  0.474551  0  4.089682  0  0  0.427731  0  4.388049  0  0  0.456705  0  4.383386  0  1.691824  0  0.171148  0.408594  0  4.389801  0
C  C90  1  0.75288462  0.55769451  0.92915117  1  0  0.474671  0  4.08945  0  0  0.427821  0  4.387911  0  0  0.456787  0  4.383253  0  1.691853  0  0.171269  0.408703  0  4.389632  0
C  C91  1  0.24711787  0.05769415  0.57084807  1  0  0.474717  0  4.089506  0  0  0.427931  0  4.387857  0  0  0.456893  0  4.383187  0  1.691861  0  0.171317  0.40882  0  4.389609  0
C  C92  1  0.11852081  0.33987331  0.05091200  1  0  0.673454  0  3.615217  0  0  0.604812  0  3.956256  0  0  0.632955  0  3.927817  0  1.648244  0  0.291465  0.584667  0  3.976278  0
C  C93  1  0.88148168  0.83986878  0.44908966  1  0  0.673419  0  3.615162  0  0  0.604716  0  3.956318  0  0  0.632928  0  3.927784  0  1.647768  0  0.29147  0.584647  0  3.976206  0
C  C94  1  0.88148056  0.66012837  0.94908833  1  0  0.673399  0  3.615214  0  0  0.604655  0  3.956422  0  0  0.63288  0  3.927869  0  1.648191  0  0.291407  0.584574  0  3.976327  0
C  C95  1  0.11852304  0.16012802  0.55091164  1  0  0.673276  0  3.615344  0  0  0.604473  0  3.956624  0  0  0.632732  0  3.928006  0  1.648163  0  0.291337  0.584318  0  3.976654  0
S  S96  1  0.44270321  0.41329158  0.31633284  1  0  1.079862  0  5.159151  0  0  1.010281  0  5.6594  0  0  1.04756  0  5.648884  0  2.435482  0  0.475607  0.984396  0  5.667045  0
S  S97  1  0.55729705  0.91329291  0.18366798  1  0  1.079966  0  5.159091  0  0  1.010406  0  5.659304  0  0  1.047684  0  5.648789  0  2.435487  0  0.475705  0.984525  0  5.666952  0
S  S98  1  0.55729928  0.58670815  0.68366640  1  0  1.079935  0  5.159104  0  0  1.010359  0  5.659355  0  0  1.047645  0  5.648838  0  2.435473  0  0.475632  0.984464  0  5.666991  0
S  S99  1  0.44269986  0.08670780  0.81633308  1  0  1.079972  0  5.159085  0  0  1.010425  0  5.659306  0  0  1.047702  0  5.648796  0  2.435343  0  0.475701  0.98453  0  5.666944  0
N  N100  1  0.71186677  0.48937498  0.19865141  1  0  -0.350682  0  3.291647  0  0  -0.270764  0  3.567957  0  0  -0.290051  0  3.584267  0  -1.195419  0  -0.343755  -0.257817  0  3.557142  0
N  N101  1  0.28813238  0.98937826  0.30134808  1  0  -0.350721  0  3.291737  0  0  -0.270815  0  3.568064  0  0  -0.290101  0  3.584373  0  -1.195464  0  -0.343788  -0.257874  0  3.557251  0
N  N102  1  0.28813461  0.51062671  0.80134832  1  0  -0.3505  0  3.291735  0  0  -0.27067  0  3.568119  0  0  -0.289942  0  3.584415  0  -1.195413  0  -0.343695  -0.257729  0  3.557309  0
N  N103  1  0.71186453  0.01062342  0.69865238  1  0  -0.350722  0  3.291743  0  0  -0.2708  0  3.568061  0  0  -0.290085  0  3.584367  0  -1.195381  0  -0.343774  -0.257855  0  3.557247  0
N  N104  1  0.57938848  0.26860631  0.44623442  1  0  -0.285415  0  3.318845  0  0  -0.208326  0  3.582467  0  0  -0.2247  0  3.600295  0  -1.194672  0  -0.325672  -0.197168  0  3.570525  0
N  N105  1  0.42061513  0.76860569  0.05376615  1  0  -0.285601  0  3.319003  0  0  -0.208506  0  3.582636  0  0  -0.22488  0  3.60046  0  -1.194692  0  -0.325703  -0.197347  0  3.570692  0
N  N106  1  0.42061401  0.73139244  0.55376542  1  0  -0.285532  0  3.318906  0  0  -0.208437  0  3.582533  0  0  -0.224812  0  3.60036  0  -1.194601  0  -0.325675  -0.197276  0  3.570586  0
N  N107  1  0.57938513  0.23139404  0.94623467  1  0  -0.285474  0  3.318857  0  0  -0.208378  0  3.582483  0  0  -0.224753  0  3.600308  0  -1.194675  0  -0.325633  -0.197218  0  3.570536  0
O  O108  1  0.30682118  0.34064218  0.31758028  1  0  -0.578511  0  1.965229  0  0  -0.53677  0  2.228189  0  0  -0.557128  0  2.217338  0  -1.29702  0  -0.304052  -0.522368  0  2.234027  0
O  O109  1  0.69317797  0.84064058  0.18242103  1  0  -0.578548  0  1.965237  0  0  -0.5368  0  2.228179  0  0  -0.557157  0  2.217328  0  -1.296995  0  -0.30407  -0.522398  0  2.234014  0
O  O110  1  0.69318020  0.65935755  0.68241884  1  0  -0.578542  0  1.965159  0  0  -0.536804  0  2.228119  0  0  -0.557156  0  2.217262  0  -1.297055  0  -0.304084  -0.522423  0  2.234008  0
O  O111  1  0.30681895  0.15935817  0.81758064  1  0  -0.578529  0  1.965131  0  0  -0.536802  0  2.228084  0  0  -0.557156  0  2.217228  0  -1.296912  0  -0.304101  -0.522424  0  2.233977  0
O  O112  1  0.43493071  0.55345256  0.30370520  1  0  -0.57869  0  1.991099  0  0  -0.528774  0  2.244032  0  0  -0.550045  0  2.235686  0  -1.271676  0  -0.304531  -0.51384  0  2.249408  0
O  O113  1  0.56506955  0.05345318  0.19629501  1  0  -0.578752  0  1.991068  0  0  -0.52884  0  2.243992  0  0  -0.550108  0  2.235645  0  -1.271706  0  -0.304594  -0.513902  0  2.249361  0
O  O114  1  0.56507066  0.44654717  0.69629452  1  0  -0.578771  0  1.99102  0  0  -0.52882  0  2.243925  0  0  -0.550103  0  2.235586  0  -1.271687  0  -0.304579  -0.513871  0  2.249276  0
O  O115  1  0.43492848  0.94654654  0.80370496  1  0  -0.578791  0  1.991057  0  0  -0.528869  0  2.243975  0  0  -0.550138  0  2.23563  0  -1.271683  0  -0.304618  -0.513923  0  2.249333  0
O  O116  1  0.35868282  0.41860231  0.03772031  1  0  -0.614291  0  2.041571  0  0  -0.568001  0  2.308893  0  0  -0.59299  0  2.296386  0  -1.166234  0  -0.342287  -0.550135  0  2.316721  0
O  O117  1  0.64131633  0.91860071  0.46227796  1  0  -0.614205  0  2.04156  0  0  -0.567909  0  2.308877  0  0  -0.592893  0  2.296376  0  -1.166243  0  -0.342231  -0.550043  0  2.316711  0
O  O118  1  0.64131744  0.58139742  0.96227929  1  0  -0.614301  0  2.041449  0  0  -0.568009  0  2.308798  0  0  -0.592992  0  2.296299  0  -1.166213  0  -0.342302  -0.550145  0  2.31662  0
O  O119  1  0.35868617  0.08139511  0.53772067  1  0  -0.614315  0  2.041476  0  0  -0.568027  0  2.308793  0  0  -0.593015  0  2.296296  0  -1.166264  0  -0.342298  -0.55016  0  2.316618  0
O  O120  1  0.22960047  0.53026450  0.12059561  1  0  -0.564887  0  1.987037  0  0  -0.53853  0  2.225462  0  0  -0.559896  0  2.217651  0  -1.154585  0  -0.326654  -0.5234  0  2.23011  0
O  O121  1  0.77039868  0.03026611  0.37940448  1  0  -0.564898  0  1.987064  0  0  -0.538575  0  2.225524  0  0  -0.559943  0  2.217727  0  -1.154522  0  -0.326645  -0.523442  0  2.230174  0
O  O122  1  0.77039979  0.46973425  0.87940278  1  0  -0.564897  0  1.986987  0  0  -0.538534  0  2.225437  0  0  -0.559896  0  2.217638  0  -1.154635  0  -0.326668  -0.52341  0  2.23008  0
O  O123  1  0.22960270  0.96973362  0.62059646  1  0  -0.564932  0  1.987016  0  0  -0.538586  0  2.225436  0  0  -0.559955  0  2.217641  0  -1.154603  0  -0.326701  -0.523458  0  2.23008  0
F  F124  1  0.98324594  0.38831862  0.05817630  1  0  -0.245001  0  1.210178  0  0  -0.210411  0  1.389283  0  0  -0.221112  0  1.375645  0  -0.631482  0  -0.098781  -0.202327  0  1.398639  0
F  F125  1  0.01675655  0.88831702  0.44182536  1  0  -0.245005  0  1.210175  0  0  -0.210398  0  1.389309  0  0  -0.221118  0  1.375654  0  -0.631482  0  -0.098782  -0.202335  0  1.398636  0
F  F126  1  0.01675321  0.61168013  0.94182257  1  0  -0.245007  0  1.210176  0  0  -0.210391  0  1.38932  0  0  -0.221119  0  1.37566  0  -0.63149  0  -0.098786  -0.202327  0  1.398653  0
F  F127  1  0.98324929  0.11167880  0.55817545  1  0  -0.24495  0  1.210177  0  0  -0.21031  0  1.389328  0  0  -0.221043  0  1.375656  0  -0.63141  0  -0.09874  -0.202224  0  1.398688  0
F  F128  1  0.14795188  0.23687965  0.10564125  1  0  -0.267785  0  1.125102  0  0  -0.223767  0  1.278882  0  0  -0.233884  0  1.264945  0  -0.624003  0  -0.112728  -0.21623  0  1.288546  0
F  F129  1  0.85204950  0.73687512  0.39435908  1  0  -0.26779  0  1.125124  0  0  -0.223732  0  1.278915  0  0  -0.233868  0  1.264956  0  -0.623954  0  -0.112709  -0.216215  0  1.288549  0
F  F130  1  0.85204503  0.76312301  0.89435799  1  0  -0.267773  0  1.125141  0  0  -0.223714  0  1.278942  0  0  -0.23384  0  1.264969  0  -0.623936  0  -0.112672  -0.216194  0  1.288584  0
F  F131  1  0.14795411  0.26312168  0.60564210  1  0  -0.267704  0  1.125212  0  0  -0.223658  0  1.279059  0  0  -0.233798  0  1.265077  0  -0.623932  0  -0.112641  -0.216118  0  1.288723  0
F  F132  1  0.10243028  0.28723198  0.97332458  1  0  -0.259626  0  1.176106  0  0  -0.214877  0  1.340215  0  0  -0.227302  0  1.327385  0  -0.630104  0  -0.102127  -0.208371  0  1.351973  0
F  F133  1  0.89757221  0.78722647  0.52667587  1  0  -0.25957  0  1.176037  0  0  -0.214822  0  1.340192  0  0  -0.227263  0  1.327338  0  -0.629705  0  -0.10212  -0.208338  0  1.35192  0
F  F134  1  0.89757221  0.71276775  0.02667526  1  0  -0.259608  0  1.176115  0  0  -0.214817  0  1.340254  0  0  -0.227275  0  1.327402  0  -0.630101  0  -0.102116  -0.208334  0  1.35199  0
F  F135  1  0.10243363  0.21277228  0.47332555  1  0  -0.259595  0  1.176055  0  0  -0.214807  0  1.340231  0  0  -0.227252  0  1.327349  0  -0.630114  0  -0.102131  -0.208302  0  1.351992  0
