# generated using pymatgen
data_AlH18(C9O2)3
_symmetry_space_group_name_H-M   'P 1'
_cell_length_a   4.02032882
_cell_length_b   28.91649445
_cell_length_c   28.91621078
_cell_angle_alpha   119.99747841
_cell_angle_beta   90.00137166
_cell_angle_gamma   89.99860562
_symmetry_Int_Tables_number   1
_chemical_formula_structural   AlH18(C9O2)3
_chemical_formula_sum   'Al2 H36 C54 O12'
_cell_volume   2911.32215303
_cell_formula_units_Z   2
loop_
 _symmetry_equiv_pos_site_id
 _symmetry_equiv_pos_as_xyz
  1  'x, y, z'
loop_
 _atom_site_type_symbol
 _atom_site_label
 _atom_site_symmetry_multiplicity
 _atom_site_fract_x
 _atom_site_fract_y
 _atom_site_fract_z
 _atom_site_occupancy
 _atom_site_pbe_bader_charge
 _atom_site_pbe_bader_spin_density
 _atom_site_pbe_cm5_charge
 _atom_site_pbe_ddec_charge
 _atom_site_pbe_ddec_spin_density
 _atom_site_pbe_ddec_sum_bond_order
 _atom_site_pbe_magmom
Al  Al0  1  0.98446133  0.50000449  0.49999839  1  2.508067  0  0.428537  1.602859  0  2.565809  0
Al  Al1  1  0.98449662  0.16665965  0.83333731  1  2.507978  0  0.428643  1.603335  0  2.565048  0
H  H2  1  0.15217663  0.17369924  0.69586166  1  0.094873  0  0.108871  0.114896  0  0.98789  0
H  H3  1  0.12248136  0.22406527  0.64635572  1  0.053899  0  0.104181  0.107601  0  0.991666  0
H  H4  1  0.74499086  0.29920352  0.81729811  1  0.080834  0  0.107862  0.117181  0  0.9948  0
H  H5  1  0.74488686  0.36746450  0.51603720  1  0.081029  0  0.107868  0.117154  0  0.995049  0
H  H6  1  0.15221100  0.49298051  0.63748831  1  0.094636  0  0.108957  0.115038  0  0.987686  0
H  H7  1  0.12250814  0.44260821  0.68698944  1  0.053591  0  0.104244  0.107703  0  0.991341  0
H  H8  1  0.15216870  0.02214792  0.82629839  1  0.102954  0  0.108922  0.114994  0  0.987787  0
H  H9  1  0.12245668  0.92228089  0.77593006  1  0.049893  0  0.104202  0.107532  0  0.991648  0
H  H10  1  0.74501274  0.01808670  0.70079718  1  0.078749  0  0.107846  0.117064  0  0.99499  0
H  H11  1  0.74487991  0.64857333  0.63253852  1  0.078755  0  0.107899  0.117183  0  0.995085  0
H  H12  1  0.15213436  0.64451794  0.50702811  1  0.102771  0  0.108919  0.11501  0  0.987781  0
H  H13  1  0.12246080  0.74438642  0.55739574  1  0.049898  0  0.104164  0.107602  0  0.991614  0
H  H14  1  0.15222935  0.30413707  0.97783920  1  0.103763  0  0.108917  0.114961  0  0.987682  0
H  H15  1  0.12249080  0.35364498  0.07770839  1  0.088042  0  0.104191  0.107579  0  0.991573  0
H  H16  1  0.74504998  0.18270758  0.98192829  1  0.093092  0  0.107849  0.117039  0  0.994924  0
H  H17  1  0.74489988  0.48396657  0.35142234  1  0.093406  0  0.107829  0.117079  0  0.994861  0
H  H18  1  0.15218812  0.36251858  0.35549267  1  0.103222  0  0.108876  0.114896  0  0.987862  0
H  H19  1  0.12249969  0.31301871  0.25562482  1  0.087856  0  0.104219  0.107653  0  0.991646  0
H  H20  1  0.54241425  0.39897159  0.78916512  1  0.035501  0  0.091157  0.127991  0  0.996183  0
H  H21  1  0.89709070  0.37062748  0.74884329  1  0.050361  0  0.088935  0.125135  0  1.036157  0
H  H22  1  0.88136563  0.37744007  0.81367866  1  0.027207  0  0.091617  0.129471  0  0.995349  0
H  H23  1  0.54226279  0.26769592  0.54416797  1  0.035912  0  0.091129  0.127886  0  0.996224  0
H  H24  1  0.89699846  0.29602978  0.58447994  1  0.066458  0  0.088888  0.125059  0  1.036183  0
H  H25  1  0.88119875  0.28921886  0.51964498  1  0.02684  0  0.091543  0.129405  0  0.995305  0
H  H26  1  0.54240758  0.89019936  0.60102582  1  0.031894  0  0.091143  0.12796  0  0.996132  0
H  H27  1  0.89709598  0.87821350  0.62936550  1  0.063619  0  0.088944  0.125063  0  1.03619  0
H  H28  1  0.88137024  0.93623973  0.62255753  1  0.024551  0  0.091595  0.129434  0  0.995408  0
H  H29  1  0.54226709  0.77646182  0.73230812  1  0.031804  0  0.091133  0.127965  0  0.996163  0
H  H30  1  0.89699081  0.78844356  0.70397390  1  0.060758  0  0.088889  0.125088  0  1.036151  0
H  H31  1  0.88121166  0.73041776  0.71078143  1  0.024668  0  0.091532  0.129433  0  0.995465  0
H  H32  1  0.54243183  0.21084407  0.10982835  1  0.034183  0  0.091156  0.127912  0  0.996095  0
H  H33  1  0.89712671  0.25116416  0.12180301  1  0.044172  0  0.088922  0.125061  0  1.036021  0
H  H34  1  0.88138983  0.18632677  0.06378733  1  0.02239  0  0.091446  0.129302  0  0.995503  0
H  H35  1  0.54228351  0.45583830  0.22352622  1  0.033933  0  0.091089  0.127837  0  0.996299  0
H  H36  1  0.89700821  0.41552529  0.21155065  1  0.043118  0  0.088895  0.125021  0  1.036262  0
H  H37  1  0.88122279  0.48035757  0.26957075  1  0.022708  0  0.091502  0.129365  0  0.995323  0
C  C38  1  0.47899209  0.45492485  0.41823320  1  1.570434  0  0.273966  0.650866  0  4.063185  0
C  C39  1  0.47900974  0.46331574  0.54508083  1  1.570581  0  0.273781  0.650803  0  4.063171  0
C  C40  1  0.47898628  0.58177220  0.53668744  1  1.578841  0  0.273654  0.650858  0  4.063148  0
C  C41  1  0.47902840  0.20335722  0.78826342  1  1.570051  0  0.274089  0.650869  0  4.063009  0
C  C42  1  0.47903694  0.08489154  0.79664320  1  1.578114  0  0.273894  0.651268  0  4.062803  0
C  C43  1  0.47905352  0.21173762  0.91511254  1  1.57203  0  0.274158  0.651131  0  4.063142  0
C  C44  1  0.45343085  0.23350876  0.75920752  1  0.005508  0  -0.011088  -0.032675  0  3.982032  0
C  C45  1  0.27558242  0.21216488  0.71116745  1  -0.043049  0  -0.08248  -0.096094  0  4.000224  0
C  C46  1  0.25853922  0.24027366  0.68389638  1  0.042252  0  -0.084088  -0.12731  0  3.98238  0
C  C47  1  0.40836767  0.29098322  0.70514997  1  0.008081  0  0.001531  0.076015  0  4.06981  0
C  C48  1  0.58044793  0.31361291  0.75467073  1  0.022241  0  0.001165  0.131263  0  3.928459  0
C  C49  1  0.60498305  0.28367889  0.78016368  1  -0.041574  0  -0.080827  -0.153822  0  3.940244  0
C  C50  1  0.39054085  0.31985971  0.67754206  1  -0.279804  0  -0.034298  -0.090006  0  4.090506  0
C  C51  1  0.39051923  0.34680759  0.65579333  1  -0.074584  0  -0.034294  -0.089821  0  4.090663  0
C  C52  1  0.40833129  0.37568551  0.62818814  1  0.008014  0  0.001573  0.075899  0  4.069961  0
C  C53  1  0.58036716  0.35305400  0.57866433  1  0.022417  0  0.001224  0.131342  0  3.928318  0
C  C54  1  0.60491260  0.38299053  0.55317440  1  -0.041732  0  -0.080846  -0.153817  0  3.94066  0
C  C55  1  0.45340751  0.43316347  0.57413469  1  0.005858  0  -0.010976  -0.032579  0  3.98229  0
C  C56  1  0.27558851  0.45450998  0.62217700  1  -0.042958  0  -0.082413  -0.096065  0  3.99994  0
C  C57  1  0.25853748  0.42639763  0.64944681  1  0.042056  0  -0.08419  -0.127452  0  3.982032  0
C  C58  1  0.45344705  0.02568795  0.76648928  1  -0.05973  0  -0.010868  -0.032754  0  3.982201  0
C  C59  1  0.27558030  0.99899233  0.78783296  1  0.020556  0  -0.082543  -0.096244  0  4.000254  0
C  C60  1  0.25853434  0.94361185  0.75972158  1  -0.067427  0  -0.084104  -0.127177  0  3.982265  0
C  C61  1  0.40836854  0.91415797  0.70901466  1  0.053303  0  0.00147  0.076029  0  4.06969  0
C  C62  1  0.58045963  0.94105181  0.68638486  1  -0.048367  0  0.001166  0.131176  0  3.927874  0
C  C63  1  0.60500016  0.99647945  0.71632203  1  0.08835  0  -0.080753  -0.153464  0  3.94005  0
C  C64  1  0.39055401  0.85767851  0.68013694  1  -0.279574  0  -0.034238  -0.089964  0  4.090886  0
C  C65  1  0.39052359  0.80898561  0.65319407  1  -0.060551  0  -0.034286  -0.08985  0  4.090889  0
C  C66  1  0.40831561  0.75250492  0.62431759  1  0.05482  0  0.001463  0.075933  0  4.070073  0
C  C67  1  0.58036304  0.72560977  0.64695005  1  -0.048289  0  0.001268  0.13141  0  3.928142  0
C  C68  1  0.60490058  0.67018070  0.61701155  1  0.087677  0  -0.080969  -0.153777  0  3.940635  0
C  C69  1  0.45337389  0.64097625  0.56684091  1  -0.059127  0  -0.011027  -0.032953  0  3.982778  0
C  C70  1  0.27553601  0.66767133  0.54549508  1  0.020651  0  -0.082446  -0.096009  0  4.000063  0
C  C71  1  0.25849521  0.72305473  0.57360770  1  -0.069266  0  -0.084039  -0.127383  0  3.982316  0
C  C72  1  0.45348106  0.24079363  0.97431217  1  -0.008441  0  -0.010818  -0.03256  0  3.98251  0
C  C73  1  0.27564148  0.28882977  0.00100064  1  -0.053211  0  -0.082506  -0.096119  0  4.000023  0
C  C74  1  0.25856318  0.31610295  0.05637886  1  -0.021536  0  -0.0841  -0.127259  0  3.981971  0
C  C75  1  0.40839362  0.29485221  0.08584173  1  0.155625  0  0.001406  0.075819  0  4.069539  0
C  C76  1  0.58049347  0.24533139  0.05895424  1  -0.00287  0  0.001174  0.131247  0  3.927835  0
C  C77  1  0.60504115  0.21983718  0.00352609  1  -0.056404  0  -0.080927  -0.153656  0  3.940112  0
C  C78  1  0.39054928  0.32246096  0.14232503  1  -0.561098  0  -0.034207  -0.089859  0  4.090686  0
C  C79  1  0.39053915  0.34421187  0.19101973  1  0.052668  0  -0.034165  -0.089819  0  4.090996  0
C  C80  1  0.40833120  0.37181460  0.24749869  1  0.155848  0  0.001452  0.075985  0  4.070036  0
C  C81  1  0.58038230  0.42133835  0.27438668  1  -0.002041  0  0.001267  0.131198  0  3.928252  0
C  C82  1  0.60491270  0.44682913  0.32981272  1  -0.05668  0  -0.080885  -0.153592  0  3.940447  0
C  C83  1  0.45340455  0.42586874  0.35902537  1  -0.009045  0  -0.010959  -0.03282  0  3.982351  0
C  C84  1  0.27556525  0.37782676  0.33233209  1  -0.05232  0  -0.082446  -0.09597  0  4.000141  0
C  C85  1  0.25852943  0.35055834  0.27695257  1  -0.021623  0  -0.084106  -0.127356  0  3.982573  0
C  C86  1  0.73458185  0.36801688  0.77804300  1  -0.047363  0  -0.240071  -0.414714  0  3.985888  0
C  C87  1  0.73445429  0.29864574  0.55528526  1  -0.06345  0  -0.239995  -0.414489  0  3.985914  0
C  C88  1  0.73458932  0.91002680  0.63197957  1  -0.059569  0  -0.240074  -0.414589  0  3.985835  0
C  C89  1  0.73445938  0.75663194  0.70135678  1  -0.056455  0  -0.239926  -0.414638  0  3.986138  0
C  C90  1  0.73461244  0.22196294  0.08999401  1  -0.034504  0  -0.239892  -0.414385  0  3.985426  0
C  C91  1  0.73447195  0.44471934  0.24335855  1  -0.033628  0  -0.239893  -0.414309  0  3.986002  0
O  O92  1  0.72340439  0.56073503  0.54768460  1  -1.258078  0  -0.235144  -0.594376  0  2.370969  0
O  O93  1  0.72340894  0.48696092  0.43926807  1  -1.25777  0  -0.235337  -0.594492  0  2.370989  0
O  O94  1  0.72342078  0.45231824  0.51304666  1  -1.25759  0  -0.235219  -0.594408  0  2.370816  0
O  O95  1  0.25403132  0.55577680  0.50194922  1  -1.265552  0  -0.243931  -0.605744  0  2.356843  0
O  O96  1  0.25405821  0.49805320  0.55381998  1  -1.260414  0  -0.244066  -0.605802  0  2.35688  0
O  O97  1  0.25404334  0.44618408  0.44422965  1  -1.259057  0  -0.244093  -0.605792  0  2.357025  0
O  O98  1  0.72345490  0.17969884  0.89406928  1  -1.257819  0  -0.235386  -0.594664  0  2.370669  0
O  O99  1  0.72342812  0.21435305  0.82030061  1  -1.25739  0  -0.235307  -0.594441  0  2.370516  0
O  O100  1  0.72344452  0.10593221  0.78564664  1  -1.257135  0  -0.235297  -0.594678  0  2.370758  0
O  O101  1  0.25411121  0.22047624  0.88911413  1  -1.260338  0  -0.244424  -0.606142  0  2.357127  0
O  O102  1  0.25409089  0.11088528  0.83138035  1  -1.265776  0  -0.244114  -0.606166  0  2.356908  0
O  O103  1  0.25406648  0.16862078  0.77952189  1  -1.260174  0  -0.24415  -0.605805  0  2.356772  0
