# generated using pymatgen
data_HgH10C22N6(OF3)2
_symmetry_space_group_name_H-M   'P 1'
_cell_length_a   8.13293914
_cell_length_b   10.54634370
_cell_length_c   12.58372547
_cell_angle_alpha   99.16707048
_cell_angle_beta   90.00006363
_cell_angle_gamma   89.99989611
_symmetry_Int_Tables_number   1
_chemical_formula_structural   HgH10C22N6(OF3)2
_chemical_formula_sum   'Hg2 H20 C44 N12 O4 F12'
_cell_volume   1065.55565539
_cell_formula_units_Z   2
loop_
 _symmetry_equiv_pos_site_id
 _symmetry_equiv_pos_as_xyz
  1  'x, y, z'
loop_
 _atom_site_type_symbol
 _atom_site_label
 _atom_site_symmetry_multiplicity
 _atom_site_fract_x
 _atom_site_fract_y
 _atom_site_fract_z
 _atom_site_occupancy
 _atom_site_hle17_bader_spin_density
 _atom_site_hle17_ddec_charge
 _atom_site_hle17_ddec_spin_density
 _atom_site_hle17_ddec_sum_bond_order
 _atom_site_hle17_magmom
 _atom_site_hse06_10hf_bader_spin_density
 _atom_site_hse06_10hf_ddec_charge
 _atom_site_hse06_10hf_ddec_spin_density
 _atom_site_hse06_10hf_ddec_sum_bond_order
 _atom_site_hse06_10hf_magmom
 _atom_site_hse06_bader_spin_density
 _atom_site_hse06_ddec_charge
 _atom_site_hse06_ddec_spin_density
 _atom_site_hse06_ddec_sum_bond_order
 _atom_site_hse06_magmom
 _atom_site_pbe_bader_spin_density
 _atom_site_pbe_cm5_charge
 _atom_site_pbe_ddec_charge
 _atom_site_pbe_ddec_spin_density
 _atom_site_pbe_ddec_sum_bond_order
 _atom_site_pbe_magmom
Hg  Hg0  1  0.00000027  0.50000038  0.99999879  1  0  0.857356  0  1.957854  0  0  0.667784  0  2.426209  0  0  0.720076  0  2.393114  0  0  0.694935  0.629186  0  2.450329  0
Hg  Hg1  1  0.49999889  0.99999998  0.00000007  1  0  0.857361  0  1.957822  0  0  0.66779  0  2.426173  0  0  0.720083  0  2.393079  0  0  0.694949  0.629192  0  2.450293  0
H  H2  1  0.04994459  0.61698751  0.30602191  1  0  0.08917  0  0.948  0  0  0.092035  0  1.019107  0  0  0.094542  0  1.018204  0  0  0.113431  0.090099  0  1.020155  0
H  H3  1  0.54994466  0.88301278  0.69397937  1  0  0.089177  0  0.947999  0  0  0.092044  0  1.019101  0  0  0.094551  0  1.018197  0  0  0.113434  0.090107  0  1.020149  0
H  H4  1  0.95005521  0.38301236  0.69397911  1  0  0.089181  0  0.948002  0  0  0.092044  0  1.019115  0  0  0.094547  0  1.018215  0  0  0.113435  0.090108  0  1.020163  0
H  H5  1  0.45005636  0.11698709  0.30602245  1  0  0.089204  0  0.947975  0  0  0.092079  0  1.019072  0  0  0.09459  0  1.018169  0  0  0.113443  0.090143  0  1.020122  0
H  H6  1  0.11245812  0.83288321  0.41619042  1  0  0.083696  0  0.936033  0  0  0.08748  0  1.003135  0  0  0.091373  0  0.999344  0  0  0.109944  0.084642  0  1.005898  0
H  H7  1  0.61245728  0.66711700  0.58381009  1  0  0.083709  0  0.936027  0  0  0.087494  0  1.003122  0  0  0.091387  0  0.999333  0  0  0.109955  0.084656  0  1.005887  0
H  H8  1  0.88754168  0.16711666  0.58380981  1  0  0.083696  0  0.93603  0  0  0.087482  0  1.003129  0  0  0.091375  0  0.999338  0  0  0.109949  0.084644  0  1.005893  0
H  H9  1  0.38754252  0.33288384  0.41619106  1  0  0.08369  0  0.936024  0  0  0.087477  0  1.003124  0  0  0.091366  0  0.999333  0  0  0.109942  0.084636  0  1.005886  0
H  H10  1  0.19033853  0.98469229  0.13543716  1  0  0.09031  0  0.95781  0  0  0.090394  0  1.032786  0  0  0.094614  0  1.028638  0  0  0.109107  0.08712  0  1.036336  0
H  H11  1  0.69033851  0.51530686  0.86456247  1  0  0.090321  0  0.957801  0  0  0.090414  0  1.032758  0  0  0.094633  0  1.028609  0  0  0.109101  0.087138  0  1.036308  0
H  H12  1  0.80966250  0.01530759  0.86456307  1  0  0.090317  0  0.957825  0  0  0.090398  0  1.032801  0  0  0.094616  0  1.028654  0  0  0.109104  0.087123  0  1.036348  0
H  H13  1  0.30966128  0.48469301  0.13543855  1  0  0.09033  0  0.95779  0  0  0.090413  0  1.032757  0  0  0.094632  0  1.02861  0  0  0.109109  0.087137  0  1.036307  0
H  H14  1  0.33539783  0.43685316  0.61931078  1  0  0.129635  0  0.948374  0  0  0.134733  0  1.014122  0  0  0.138534  0  1.011295  0  0  0.106225  0.131921  0  1.016383  0
H  H15  1  0.83540058  0.06314260  0.38068941  1  0  0.129634  0  0.948442  0  0  0.134763  0  1.014153  0  0  0.138563  0  1.011326  0  0  0.106248  0.13195  0  1.016416  0
H  H16  1  0.66460319  0.56314767  0.38068719  1  0  0.129638  0  0.948379  0  0  0.13474  0  1.014121  0  0  0.138559  0  1.01127  0  0  0.106229  0.131928  0  1.016381  0
H  H17  1  0.16460045  0.93685535  0.61931056  1  0  0.129654  0  0.948358  0  0  0.134753  0  1.014105  0  0  0.138554  0  1.011276  0  0  0.106236  0.13194  0  1.016365  0
H  H18  1  0.29921916  0.47518686  0.82011103  1  0  0.136311  0  0.953418  0  0  0.139926  0  1.020796  0  0  0.144189  0  1.017578  0  0  0.106577  0.136789  0  1.023311  0
H  H19  1  0.79922042  0.02481280  0.17988965  1  0  0.136275  0  0.9535  0  0  0.139901  0  1.02085  0  0  0.144165  0  1.017631  0  0  0.106576  0.136764  0  1.023365  0
H  H20  1  0.70077818  0.52481302  0.17988602  1  0  0.136316  0  0.953455  0  0  0.139928  0  1.020833  0  0  0.144194  0  1.017608  0  0  0.106561  0.136791  0  1.023348  0
H  H21  1  0.20077938  0.97518804  0.82011150  1  0  0.136299  0  0.953414  0  0  0.139912  0  1.020792  0  0  0.144177  0  1.01757  0  0  0.106567  0.136775  0  1.023307  0
C  C22  1  0.08075374  0.69955190  0.26768612  1  0  0.092883  0  3.672814  0  0  0.062964  0  3.937166  0  0  0.065788  0  3.954004  0  0  0.054187  0.060853  0  3.926016  0
C  C23  1  0.58075407  0.80044836  0.73231438  1  0  0.092871  0  3.672807  0  0  0.062954  0  3.937153  0  0  0.065778  0  3.953993  0  0  0.054186  0.060843  0  3.926002  0
C  C24  1  0.91924606  0.30044798  0.73231411  1  0  0.092863  0  3.672791  0  0  0.06295  0  3.937123  0  0  0.065776  0  3.953961  0  0  0.054185  0.06084  0  3.925971  0
C  C25  1  0.41924695  0.19955248  0.26768757  1  0  0.09291  0  3.672787  0  0  0.062962  0  3.937155  0  0  0.06578  0  3.953999  0  0  0.054217  0.060851  0  3.926007  0
C  C26  1  0.11568813  0.81943144  0.32838410  1  0  0.079282  0  3.693236  0  0  0.049904  0  3.967061  0  0  0.052951  0  3.98115  0  0  0.053119  0.04784  0  3.957496  0
C  C27  1  0.61568741  0.68056877  0.67161641  1  0  0.079297  0  3.693209  0  0  0.04992  0  3.967031  0  0  0.052967  0  3.981121  0  0  0.053127  0.047856  0  3.957465  0
C  C28  1  0.88431166  0.18056844  0.67161612  1  0  0.079285  0  3.693246  0  0  0.049904  0  3.967074  0  0  0.052952  0  3.981163  0  0  0.053116  0.047841  0  3.957507  0
C  C29  1  0.38431239  0.31943207  0.32838474  1  0  0.079267  0  3.693233  0  0  0.049896  0  3.967067  0  0  0.052948  0  3.981154  0  0  0.053113  0.047838  0  3.957496  0
C  C30  1  0.16023884  0.90257857  0.17450655  1  0  0.067005  0  3.669666  0  0  0.035979  0  3.932172  0  0  0.038482  0  3.947805  0  0  0.053404  0.034157  0  3.922374  0
C  C31  1  0.66023979  0.59742158  0.82549319  1  0  0.066928  0  3.669697  0  0  0.035917  0  3.932192  0  0  0.03842  0  3.947822  0  0  0.053387  0.034093  0  3.922397  0
C  C32  1  0.83976096  0.09742131  0.82549367  1  0  0.06693  0  3.669632  0  0  0.035925  0  3.932127  0  0  0.03843  0  3.947759  0  0  0.053421  0.034103  0  3.92233  0
C  C33  1  0.33976000  0.40257830  0.17450783  1  0  0.066945  0  3.669693  0  0  0.035942  0  3.932179  0  0  0.038444  0  3.947813  0  0  0.053402  0.03412  0  3.922382  0
C  C34  1  0.12926365  0.78225851  0.11257806  1  0  0.074934  0  3.729712  0  0  0.082484  0  3.969381  0  0  0.080823  0  3.98857  0  0  0.116368  0.083186  0  3.956436  0
C  C35  1  0.62926444  0.71774071  0.88742154  1  0  0.075055  0  3.72971  0  0  0.082563  0  3.969424  0  0  0.080903  0  3.988612  0  0  0.116405  0.083265  0  3.956475  0
C  C36  1  0.87073492  0.21774040  0.88742124  1  0  0.075086  0  3.729756  0  0  0.082607  0  3.969448  0  0  0.080947  0  3.988638  0  0  0.116403  0.083308  0  3.956501  0
C  C37  1  0.37073659  0.28225916  0.11257948  1  0  0.075031  0  3.729704  0  0  0.082555  0  3.96938  0  0  0.080894  0  3.988568  0  0  0.116417  0.083257  0  3.956435  0
C  C38  1  0.15151713  0.76640217  0.99226203  1  0  0.509505  0  3.872383  0  0  0.457573  0  4.162384  0  0  0.489457  0  4.161318  0  0  0.224568  0.435816  0  4.162379  0
C  C39  1  0.65151516  0.73359991  0.00773797  1  0  0.509502  0  3.872252  0  0  0.457591  0  4.16223  0  0  0.489477  0  4.161161  0  0  0.224591  0.435835  0  4.162224  0
C  C40  1  0.84848389  0.23359770  0.00773740  1  0  0.50939  0  3.872478  0  0  0.457452  0  4.162499  0  0  0.489338  0  4.161436  0  0  0.224533  0.435697  0  4.162491  0
C  C41  1  0.34848341  0.26639997  0.99226305  1  0  0.509442  0  3.872381  0  0  0.457537  0  4.162336  0  0  0.489423  0  4.161271  0  0  0.224585  0.435781  0  4.162329  0
C  C42  1  0.13390973  0.63369579  0.82078329  1  0  0.145297  0  3.848567  0  0  0.127366  0  4.113053  0  0  0.133725  0  4.135759  0  0  0.070756  0.12278  0  4.097801  0
C  C43  1  0.63390897  0.86630343  0.17921711  1  0  0.145387  0  3.848488  0  0  0.127419  0  4.113018  0  0  0.133776  0  4.135723  0  0  0.07077  0.122833  0  4.09777  0
C  C44  1  0.86608761  0.36630601  0.17921481  1  0  0.145268  0  3.848593  0  0  0.127337  0  4.113076  0  0  0.133703  0  4.13577  0  0  0.070765  0.122744  0  4.097838  0
C  C45  1  0.36608960  0.13369548  0.82078458  1  0  0.145321  0  3.848565  0  0  0.127377  0  4.113043  0  0  0.133745  0  4.135734  0  0  0.070742  0.122784  0  4.097805  0
C  C46  1  0.05092360  0.70919488  0.75574959  1  0  0.146904  0  3.772143  0  0  0.118281  0  4.065278  0  0  0.125162  0  4.076505  0  0  0.090544  0.113285  0  4.058141  0
C  C47  1  0.55092189  0.79080445  0.24425076  1  0  0.146769  0  3.772262  0  0  0.118178  0  4.065433  0  0  0.125062  0  4.076659  0  0  0.090462  0.113181  0  4.058301  0
C  C48  1  0.94907743  0.29080595  0.24424759  1  0  0.146861  0  3.772328  0  0  0.118237  0  4.06547  0  0  0.125118  0  4.076696  0  0  0.090547  0.113243  0  4.058338  0
C  C49  1  0.44907667  0.20919447  0.75575092  1  0  0.14673  0  3.772311  0  0  0.118153  0  4.065399  0  0  0.125033  0  4.076625  0  0  0.090507  0.113161  0  4.058265  0
C  C50  1  0.06520988  0.68520016  0.64399687  1  0  0.089526  0  3.823031  0  0  0.062336  0  4.121242  0  0  0.067182  0  4.13169  0  0  0.078269  0.058864  0  4.114671  0
C  C51  1  0.56521077  0.81479723  0.35600244  1  0  0.089618  0  3.822894  0  0  0.062339  0  4.121214  0  0  0.067185  0  4.131665  0  0  0.078314  0.058868  0  4.114647  0
C  C52  1  0.93479115  0.31479972  0.35600018  1  0  0.08957  0  3.822942  0  0  0.062354  0  4.121187  0  0  0.0672  0  4.131637  0  0  0.078227  0.058884  0  4.114619  0
C  C53  1  0.43479026  0.18519976  0.64399899  1  0  0.089638  0  3.822949  0  0  0.062426  0  4.121162  0  0  0.067273  0  4.131613  0  0  0.078269  0.058955  0  4.114592  0
C  C54  1  0.16745835  0.58638971  0.59607508  1  0  0.209111  0  3.840575  0  0  0.183875  0  4.137155  0  0  0.192436  0  4.147595  0  0  0.081284  0.177708  0  4.130343  0
C  C55  1  0.66746155  0.91360658  0.40392495  1  0  0.20908  0  3.840452  0  0  0.183878  0  4.13706  0  0  0.192438  0  4.147498  0  0  0.081275  0.177712  0  4.13025  0
C  C56  1  0.83254267  0.41361113  0.40392210  1  0  0.209086  0  3.840469  0  0  0.183859  0  4.13706  0  0  0.192418  0  4.147503  0  0  0.081294  0.177691  0  4.130249  0
C  C57  1  0.33254070  0.08639137  0.59607581  1  0  0.209069  0  3.840475  0  0  0.183831  0  4.137065  0  0  0.192391  0  4.147505  0  0  0.081294  0.177665  0  4.130254  0
C  C58  1  0.25350119  0.51162658  0.65838888  1  0  -0.168702  0  3.791519  0  0  -0.203612  0  4.070905  0  0  -0.207289  0  4.090317  0  0  -0.108751  -0.200921  0  4.057929  0
C  C59  1  0.75350411  0.98836960  0.34161199  1  0  -0.168647  0  3.791765  0  0  -0.20359  0  4.071124  0  0  -0.207263  0  4.090536  0  0  -0.108759  -0.200895  0  4.058141  0
C  C60  1  0.74649984  0.48837521  0.34161080  1  0  -0.168731  0  3.791548  0  0  -0.20363  0  4.070917  0  0  -0.207321  0  4.090321  0  0  -0.108755  -0.200937  0  4.057941  0
C  C61  1  0.24649815  0.01162835  0.65838957  1  0  -0.168714  0  3.791573  0  0  -0.203627  0  4.070962  0  0  -0.207303  0  4.090373  0  0  -0.108758  -0.200934  0  4.057983  0
C  C62  1  0.23566023  0.53502872  0.77004534  1  0  -0.110479  0  3.698532  0  0  -0.137071  0  3.96896  0  0  -0.139556  0  3.988346  0  0  -0.094267  -0.13542  0  3.956093  0
C  C63  1  0.73565932  0.96497037  0.22995590  1  0  -0.110558  0  3.698742  0  0  -0.137129  0  3.969164  0  0  -0.139614  0  3.98855  0  0  -0.094288  -0.135477  0  3.956298  0
C  C64  1  0.76433588  0.46497212  0.22995422  1  0  -0.110483  0  3.698482  0  0  -0.137081  0  3.96892  0  0  -0.139569  0  3.988308  0  0  -0.09428  -0.135428  0  3.956058  0
C  C65  1  0.26433679  0.03502951  0.77004591  1  0  -0.110461  0  3.698542  0  0  -0.137045  0  3.968967  0  0  -0.139534  0  3.98835  0  0  -0.094239  -0.135393  0  3.956103  0
N  N66  1  0.08759990  0.68177810  0.16022241  1  0  -0.285789  0  3.192006  0  0  -0.233919  0  3.453075  0  0  -0.245948  0  3.470939  0  0  -0.292492  -0.224969  0  3.44074  0
N  N67  1  0.58760037  0.81822118  0.83977796  1  0  -0.285872  0  3.192105  0  0  -0.233995  0  3.4532  0  0  -0.246026  0  3.471066  0  0  -0.292536  -0.225044  0  3.440862  0
N  N68  1  0.91239989  0.31822082  0.83977768  1  0  -0.285837  0  3.192067  0  0  -0.233962  0  3.453152  0  0  -0.24599  0  3.471017  0  0  -0.292513  -0.225011  0  3.440815  0
N  N69  1  0.41239942  0.18177869  0.16022386  1  0  -0.285911  0  3.192101  0  0  -0.234033  0  3.453201  0  0  -0.246063  0  3.47107  0  0  -0.292577  -0.225082  0  3.440867  0
N  N70  1  0.15433329  0.92135122  0.28212426  1  0  -0.251679  0  3.052917  0  0  -0.229104  0  3.338171  0  0  -0.235443  0  3.351641  0  0  -0.307081  -0.224571  0  3.329032  0
N  N71  1  0.65433288  0.57864893  0.71787628  1  0  -0.251669  0  3.052936  0  0  -0.229092  0  3.338175  0  0  -0.23543  0  3.351643  0  0  -0.307075  -0.224557  0  3.329032  0
N  N72  1  0.84566650  0.07864961  0.71787610  1  0  -0.251664  0  3.052879  0  0  -0.229091  0  3.338135  0  0  -0.235429  0  3.351604  0  0  -0.307097  -0.224558  0  3.328994  0
N  N73  1  0.34566691  0.42135190  0.28212487  1  0  -0.251659  0  3.052968  0  0  -0.229089  0  3.33821  0  0  -0.235427  0  3.351677  0  0  -0.307095  -0.224554  0  3.329066  0
N  N74  1  0.10951518  0.65261070  0.93352509  1  0  -0.48357  0  3.25732  0  0  -0.39509  0  3.542852  0  0  -0.428388  0  3.558634  0  0  -0.359729  -0.371734  0  3.531464  0
N  N75  1  0.60951427  0.84738952  0.06647542  1  0  -0.483546  0  3.257261  0  0  -0.395053  0  3.542789  0  0  -0.428352  0  3.558572  0  0  -0.359726  -0.3717  0  3.531403  0
N  N76  1  0.89048462  0.34739014  0.06647367  1  0  -0.483486  0  3.257257  0  0  -0.394986  0  3.542757  0  0  -0.428291  0  3.558542  0  0  -0.359714  -0.37163  0  3.531372  0
N  N77  1  0.39048307  0.15260940  0.93352627  1  0  -0.483469  0  3.257251  0  0  -0.394981  0  3.542742  0  0  -0.428283  0  3.558524  0  0  -0.359704  -0.371626  0  3.53136  0
O  O78  1  0.21209903  0.85799349  0.95293714  1  0  -0.576669  0  1.995358  0  0  -0.530549  0  2.243728  0  0  -0.55493  0  2.236356  0  0  -0.308919  -0.512612  0  2.248228  0
O  O79  1  0.71209979  0.64200563  0.04706409  1  0  -0.576723  0  1.995262  0  0  -0.530598  0  2.243601  0  0  -0.554987  0  2.236243  0  0  -0.308941  -0.512663  0  2.24811  0
O  O80  1  0.78790200  0.14200734  0.04706321  1  0  -0.576627  0  1.995361  0  0  -0.530513  0  2.243741  0  0  -0.554893  0  2.236368  0  0  -0.308906  -0.512575  0  2.248239  0
O  O81  1  0.28790123  0.35799521  0.95293706  1  0  -0.576676  0  1.995314  0  0  -0.530567  0  2.243661  0  0  -0.554943  0  2.236279  0  0  -0.308932  -0.51263  0  2.248166  0
F  F82  1  0.94974865  0.80487805  0.80008263  1  0  -0.159801  0  1.302139  0  0  -0.092986  0  1.462844  0  0  -0.103747  0  1.457057  0  0  -0.071824  -0.085118  0  1.466808  0
F  F83  1  0.44974821  0.69512172  0.19991648  1  0  -0.15974  0  1.30218  0  0  -0.092936  0  1.462887  0  0  -0.103698  0  1.4571  0  0  -0.07178  -0.085068  0  1.466852  0
F  F84  1  0.05025115  0.19512279  0.19991693  1  0  -0.159795  0  1.302178  0  0  -0.092964  0  1.462876  0  0  -0.103726  0  1.457089  0  0  -0.071814  -0.085096  0  1.46684  0
F  F85  1  0.55025281  0.30487816  0.80008295  1  0  -0.159731  0  1.302163  0  0  -0.092949  0  1.462869  0  0  -0.10371  0  1.457083  0  0  -0.071806  -0.085081  0  1.466833  0
F  F86  1  0.97951266  0.75703655  0.58261991  1  0  -0.154227  0  1.241121  0  0  -0.110005  0  1.411739  0  0  -0.118064  0  1.402079  0  0  -0.084047  -0.104072  0  1.418374  0
F  F87  1  0.47951495  0.74296126  0.41737975  1  0  -0.154221  0  1.24111  0  0  -0.109968  0  1.411756  0  0  -0.118026  0  1.4021  0  0  -0.08403  -0.104033  0  1.418391  0
F  F88  1  0.02048467  0.24296333  0.41737713  1  0  -0.154239  0  1.241088  0  0  -0.110008  0  1.411718  0  0  -0.118067  0  1.402058  0  0  -0.084017  -0.104075  0  1.418353  0
F  F89  1  0.52048731  0.25703669  0.58262260  1  0  -0.154259  0  1.241058  0  0  -0.110032  0  1.411681  0  0  -0.11809  0  1.40202  0  0  -0.084039  -0.104098  0  1.418315  0
F  F90  1  0.18106468  0.56547544  0.48710335  1  0  -0.181347  0  1.245331  0  0  -0.126898  0  1.409035  0  0  -0.135945  0  1.399773  0  0  -0.088148  -0.12025  0  1.415275  0
F  F91  1  0.68107048  0.93451795  0.51289630  1  0  -0.18135  0  1.245291  0  0  -0.126913  0  1.409006  0  0  -0.13596  0  1.399745  0  0  -0.088162  -0.120265  0  1.415247  0
F  F92  1  0.81893266  0.43452540  0.51289304  1  0  -0.181275  0  1.24522  0  0  -0.126861  0  1.408959  0  0  -0.135908  0  1.399698  0  0  -0.088142  -0.120213  0  1.4152  0
F  F93  1  0.31893301  0.06547904  0.48710512  1  0  -0.181321  0  1.245233  0  0  -0.126884  0  1.408956  0  0  -0.135932  0  1.399696  0  0  -0.088166  -0.120237  0  1.415197  0
