# generated using pymatgen
data_PrCuH8C14(NO4)2
_symmetry_space_group_name_H-M   'P 1'
_cell_length_a   9.27476632
_cell_length_b   11.43653042
_cell_length_c   17.31299444
_cell_angle_alpha   107.06398659
_cell_angle_beta   90.02089030
_cell_angle_gamma   113.86562535
_symmetry_Int_Tables_number   1
_chemical_formula_structural   PrCuH8C14(NO4)2
_chemical_formula_sum   'Pr4 Cu4 H32 C56 N8 O32'
_cell_volume   1590.49474019
_cell_formula_units_Z   4
loop_
 _symmetry_equiv_pos_site_id
 _symmetry_equiv_pos_as_xyz
  1  'x, y, z'
loop_
 _atom_site_type_symbol
 _atom_site_label
 _atom_site_symmetry_multiplicity
 _atom_site_fract_x
 _atom_site_fract_y
 _atom_site_fract_z
 _atom_site_occupancy
 _atom_site_hle17_bader_spin_density
 _atom_site_hle17_ddec_charge
 _atom_site_hle17_ddec_spin_density
 _atom_site_hle17_ddec_sum_bond_order
 _atom_site_hle17_magmom
 _atom_site_hse06_10hf_bader_spin_density
 _atom_site_hse06_10hf_ddec_charge
 _atom_site_hse06_10hf_ddec_spin_density
 _atom_site_hse06_10hf_ddec_sum_bond_order
 _atom_site_hse06_10hf_magmom
 _atom_site_hse06_bader_spin_density
 _atom_site_hse06_ddec_charge
 _atom_site_hse06_ddec_spin_density
 _atom_site_hse06_ddec_sum_bond_order
 _atom_site_hse06_magmom
 _atom_site_pbe_bader_spin_density
 _atom_site_pbe_cm5_charge
 _atom_site_pbe_ddec_charge
 _atom_site_pbe_ddec_spin_density
 _atom_site_pbe_ddec_sum_bond_order
 _atom_site_pbe_magmom
Pr  Pr0  1  0.30249081  0.96442088  0.92423477  1  0  2.278617  0  1.619197  0  0  2.116387  0  2.081146  0  0  2.207712  0  1.943316  0  0  1.46441  2.084552  0  2.115459  0
Pr  Pr1  1  0.33819524  0.03569599  0.57577664  1  0  2.278791  0  1.617818  0  0  2.115664  0  2.081109  0  0  2.207922  0  1.941745  0  0  1.463705  2.083627  0  2.115626  0
Pr  Pr2  1  0.69752062  0.03558234  0.07576637  1  0  2.278602  0  1.619049  0  0  2.116377  0  2.08099  0  0  2.207704  0  1.943152  0  0  1.464455  2.08454  0  2.115289  0
Pr  Pr3  1  0.66178529  0.96429502  0.42421879  1  0  2.278823  0  1.617868  0  0  2.115813  0  2.080972  0  0  2.207958  0  1.941796  0  0  1.463713  2.083775  0  2.115514  0
Cu  Cu4  1  0.24516486  0.33075227  0.13410657  1  0  0.499176  0  1.641165  0  0  0.360876  0  2.07686  0  0  0.369597  0  2.030413  0  0  0.548773  0.35984  0  2.105409  0
Cu  Cu5  1  0.91471465  0.66936849  0.36570263  1  0  0.499552  0  1.639865  0  0  0.361529  0  2.075548  0  0  0.370271  0  2.02918  0  0  0.548712  0.360703  0  2.103939  0
Cu  Cu6  1  0.75484894  0.66926002  0.86589564  1  0  0.499208  0  1.641166  0  0  0.360859  0  2.076836  0  0  0.369579  0  2.030384  0  0  0.548753  0.359822  0  2.105427  0
Cu  Cu7  1  0.08528413  0.33062666  0.63429703  1  0  0.499662  0  1.639906  0  0  0.361643  0  2.075586  0  0  0.370383  0  2.029226  0  0  0.548749  0.360808  0  2.10395  0
H  H8  1  0.61702533  0.19837697  0.77942735  1  0  0.124449  0  0.958232  0  0  0.132865  0  1.019992  0  0  0.136133  0  1.018909  0  0  0.118448  0.130466  0  1.021048  0
H  H9  1  0.41972879  0.80198577  0.72040010  1  0  0.125014  0  0.957691  0  0  0.13328  0  1.019803  0  0  0.136477  0  1.018742  0  0  0.118666  0.130926  0  1.020786  0
H  H10  1  0.38297935  0.80160841  0.22058035  1  0  0.124382  0  0.958381  0  0  0.132823  0  1.020111  0  0  0.136087  0  1.019029  0  0  0.118418  0.130423  0  1.021175  0
H  H11  1  0.58026934  0.19801025  0.27959568  1  0  0.124978  0  0.957719  0  0  0.133192  0  1.019881  0  0  0.136382  0  1.018825  0  0  0.118642  0.13084  0  1.020864  0
H  H12  1  0.78805309  0.30928020  0.68835329  1  0  0.078938  0  0.947411  0  0  0.089288  0  1.009761  0  0  0.092207  0  1.006305  0  0  0.119262  0.087113  0  1.01234  0
H  H13  1  0.47953236  0.69091977  0.81157538  1  0  0.079181  0  0.948037  0  0  0.089903  0  1.009837  0  0  0.092743  0  1.006447  0  0  0.119628  0.087734  0  1.012437  0
H  H14  1  0.21193375  0.69070401  0.31164899  1  0  0.078847  0  0.947405  0  0  0.089255  0  1.009687  0  0  0.092161  0  1.006264  0  0  0.119225  0.087081  0  1.012267  0
H  H15  1  0.52047417  0.30908443  0.18842478  1  0  0.079194  0  0.948022  0  0  0.089915  0  1.009824  0  0  0.092764  0  1.00642  0  0  0.119659  0.087696  0  1.012477  0
H  H16  1  0.16136174  0.23430115  0.75990963  1  0  0.093958  0  0.959426  0  0  0.103607  0  1.020475  0  0  0.107054  0  1.016958  0  0  0.121371  0.101102  0  1.023021  0
H  H17  1  0.92778410  0.76540087  0.74037852  1  0  0.09394  0  0.958844  0  0  0.103138  0  1.02065  0  0  0.10654  0  1.01718  0  0  0.121268  0.100672  0  1.023143  0
H  H18  1  0.83864735  0.76570386  0.24008490  1  0  0.09408  0  0.959319  0  0  0.103683  0  1.020401  0  0  0.107123  0  1.016893  0  0  0.121353  0.101178  0  1.022946  0
H  H19  1  0.07222368  0.23461231  0.25962039  1  0  0.093954  0  0.958781  0  0  0.103116  0  1.020613  0  0  0.106514  0  1.017146  0  0  0.121298  0.100648  0  1.023108  0
H  H20  1  0.00986772  0.13173570  0.86016325  1  0  0.123455  0  0.943208  0  0  0.131444  0  1.00547  0  0  0.135025  0  1.004156  0  0  0.115563  0.128925  0  1.006331  0
H  H21  1  0.87913975  0.86800821  0.63997501  1  0  0.123857  0  0.942423  0  0  0.13154  0  1.005071  0  0  0.135129  0  1.003742  0  0  0.115451  0.129009  0  1.005966  0
H  H22  1  0.99015646  0.86827359  0.13983958  1  0  0.123641  0  0.943021  0  0  0.131532  0  1.005379  0  0  0.135095  0  1.004105  0  0  0.115605  0.12902  0  1.006219  0
H  H23  1  0.12085230  0.13199075  0.36001841  1  0  0.123846  0  0.942508  0  0  0.131544  0  1.005161  0  0  0.135136  0  1.00383  0  0  0.115464  0.129017  0  1.006062  0
H  H24  1  0.55508424  0.73335196  0.05972077  1  0  0.126029  0  0.997195  0  0  0.133244  0  1.059861  0  0  0.137115  0  1.058015  0  0  0.12019  0.129831  0  1.062548  0
H  H25  1  0.82189469  0.26666425  0.44022789  1  0  0.126928  0  0.997217  0  0  0.134087  0  1.059835  0  0  0.137937  0  1.058011  0  0  0.120268  0.130797  0  1.062261  0
H  H26  1  0.44490860  0.26665721  0.94027798  1  0  0.126038  0  0.99728  0  0  0.133238  0  1.059953  0  0  0.137109  0  1.058108  0  0  0.120175  0.129818  0  1.062648  0
H  H27  1  0.17809731  0.73332595  0.55977375  1  0  0.12683  0  0.997198  0  0  0.134016  0  1.059797  0  0  0.137861  0  1.05798  0  0  0.120263  0.130728  0  1.062216  0
H  H28  1  0.49292082  0.57517387  0.13715752  1  0  0.087204  0  0.924507  0  0  0.09537  0  0.988218  0  0  0.099543  0  0.983281  0  0  0.121454  0.092235  0  0.991801  0
H  H29  1  0.91798101  0.42482871  0.36280977  1  0  0.086848  0  0.924082  0  0  0.094602  0  0.988237  0  0  0.098813  0  0.983272  0  0  0.121039  0.091454  0  0.99187  0
H  H30  1  0.50707727  0.42484149  0.86284641  1  0  0.0872  0  0.92444  0  0  0.095341  0  0.988204  0  0  0.099502  0  0.983289  0  0  0.121424  0.092204  0  0.991796  0
H  H31  1  0.08202380  0.57516556  0.63719378  1  0  0.086819  0  0.924184  0  0  0.094565  0  0.98835  0  0  0.098775  0  0.983387  0  0  0.121019  0.091418  0  0.991981  0
H  H32  1  0.04839476  0.32933711  0.99867662  1  0  0.098292  0  0.932896  0  0  0.104551  0  0.997967  0  0  0.107633  0  0.995501  0  0  0.124575  0.102209  0  0.999921  0
H  H33  1  0.71864627  0.67075044  0.50087747  1  0  0.097553  0  0.932951  0  0  0.10356  0  0.998549  0  0  0.106717  0  0.995962  0  0  0.124129  0.101053  0  1.000744  0
H  H34  1  0.95160769  0.67066107  0.00132360  1  0  0.098279  0  0.932912  0  0  0.104537  0  0.997985  0  0  0.107622  0  0.995516  0  0  0.124577  0.102194  0  0.999946  0
H  H35  1  0.28136797  0.32925193  0.49912814  1  0  0.097543  0  0.932867  0  0  0.103538  0  0.998496  0  0  0.1067  0  0.995902  0  0  0.124102  0.101051  0  1.000646  0
H  H36  1  0.08970040  0.48862238  0.91809883  1  0  0.115753  0  0.946138  0  0  0.125324  0  1.00505  0  0  0.128382  0  1.004746  0  0  0.112555  0.123103  0  1.005389  0
H  H37  1  0.60056777  0.51145219  0.58139364  1  0  0.115624  0  0.94734  0  0  0.125066  0  1.006327  0  0  0.128094  0  1.006125  0  0  0.112354  0.122893  0  1.00658  0
H  H38  1  0.91029185  0.51137481  0.08190178  1  0  0.115713  0  0.946221  0  0  0.125284  0  1.005127  0  0  0.12834  0  1.004822  0  0  0.11253  0.123063  0  1.005465  0
H  H39  1  0.39944315  0.48855216  0.41861117  1  0  0.115603  0  0.947325  0  0  0.125032  0  1.006335  0  0  0.128061  0  1.006128  0  0  0.112306  0.122858  0  1.006582  0
C  C40  1  0.69863412  0.08736277  0.88294594  1  0  0.701201  0  3.879728  0  0  0.656228  0  4.169018  0  0  0.691154  0  4.16005  0  0  0.230489  0.632681  0  4.176037  0
C  C41  1  0.61213198  0.91284802  0.61709798  1  0  0.700064  0  3.878835  0  0  0.654277  0  4.169127  0  0  0.689185  0  4.160273  0  0  0.229404  0.630766  0  4.176203  0
C  C42  1  0.30139795  0.91264075  0.11706450  1  0  0.701478  0  3.879616  0  0  0.655961  0  4.169795  0  0  0.690912  0  4.160793  0  0  0.230331  0.632416  0  4.176804  0
C  C43  1  0.38785559  0.08714197  0.38289727  1  0  0.700017  0  3.878733  0  0  0.654119  0  4.169239  0  0  0.689018  0  4.160406  0  0  0.229416  0.630615  0  4.176291  0
C  C44  1  0.79963340  0.15553728  0.82727419  1  0  -0.014445  0  3.70426  0  0  0.002815  0  3.936196  0  0  0.001719  0  3.954496  0  0  0.002536  0.003586  0  3.923338  0
C  C45  1  0.64516002  0.84459621  0.67274168  1  0  -0.015348  0  3.703031  0  0  0.002656  0  3.934769  0  0  0.001523  0  3.953169  0  0  0.003006  0.003433  0  3.921908  0
C  C46  1  0.20038636  0.84446103  0.17273009  1  0  -0.014517  0  3.703992  0  0  0.002883  0  3.935995  0  0  0.001778  0  3.95428  0  0  0.002604  0.003654  0  3.923137  0
C  C47  1  0.35483747  0.15540285  0.32725465  1  0  -0.015252  0  3.702892  0  0  0.002753  0  3.934675  0  0  0.001621  0  3.953083  0  0  0.003029  0.003535  0  3.921797  0
C  C48  1  0.73817502  0.20715637  0.77845388  1  0  -0.100079  0  3.691429  0  0  -0.121644  0  3.935112  0  0  -0.126382  0  3.955129  0  0  -0.070079  -0.118715  0  3.922013  0
C  C49  1  0.53201501  0.79305586  0.72148421  1  0  -0.099739  0  3.690914  0  0  -0.121824  0  3.935183  0  0  -0.12645  0  3.955199  0  0  -0.070352  -0.118821  0  3.921856  0
C  C50  1  0.26182887  0.79283390  0.22155009  1  0  -0.100093  0  3.691231  0  0  -0.121664  0  3.934869  0  0  -0.126391  0  3.954883  0  0  -0.070092  -0.118738  0  3.921779  0
C  C51  1  0.46798518  0.20694428  0.27851462  1  0  -0.09977  0  3.690998  0  0  -0.121771  0  3.935267  0  0  -0.12639  0  3.955281  0  0  -0.070341  -0.118774  0  3.921923  0
C  C52  1  0.83256445  0.26777351  0.72679344  1  0  0.120593  0  3.676333  0  0  0.092479  0  3.919593  0  0  0.099362  0  3.934568  0  0  0.046887  0.087749  0  3.910078  0
C  C53  1  0.56561749  0.73236851  0.77319243  1  0  0.119858  0  3.676729  0  0  0.091735  0  3.919757  0  0  0.098689  0  3.934775  0  0  0.046634  0.086953  0  3.910094  0
C  C54  1  0.16742920  0.73221568  0.27320802  1  0  0.120705  0  3.676078  0  0  0.092547  0  3.919356  0  0  0.099428  0  3.934321  0  0  0.046919  0.087814  0  3.909843  0
C  C55  1  0.43439116  0.26763776  0.22680984  1  0  0.119792  0  3.676559  0  0  0.091686  0  3.919574  0  0  0.098628  0  3.934599  0  0  0.046573  0.086939  0  3.909919  0
C  C56  1  0.04178579  0.22689584  0.76762790  1  0  0.112794  0  3.672711  0  0  0.083547  0  3.915926  0  0  0.089542  0  3.932461  0  0  0.040248  0.079165  0  3.905802  0
C  C57  1  0.81566555  0.77292023  0.73253155  1  0  0.1137  0  3.670243  0  0  0.084662  0  3.913582  0  0  0.09071  0  3.93017  0  0  0.04061  0.080238  0  3.903374  0
C  C58  1  0.95822029  0.77310531  0.23237113  1  0  0.112743  0  3.672772  0  0  0.08355  0  3.915911  0  0  0.089539  0  3.932468  0  0  0.040321  0.079171  0  3.905781  0
C  C59  1  0.18434025  0.22708897  0.26746837  1  0  0.113799  0  3.670221  0  0  0.084868  0  3.913522  0  0  0.090899  0  3.93014  0  0  0.040678  0.080444  0  3.903315  0
C  C60  1  0.95582493  0.16873064  0.82262157  1  0  -0.120199  0  3.708012  0  0  -0.142483  0  3.958354  0  0  -0.148206  0  3.979438  0  0  -0.077092  -0.138651  0  3.94408  0
C  C61  1  0.78804102  0.83114536  0.67747079  1  0  -0.120865  0  3.705973  0  0  -0.143064  0  3.956354  0  0  -0.148737  0  3.977384  0  0  -0.077475  -0.139279  0  3.942101  0
C  C62  1  0.04419192  0.83127262  0.17738073  1  0  -0.120482  0  3.708019  0  0  -0.142679  0  3.958335  0  0  -0.148396  0  3.979399  0  0  -0.077234  -0.138849  0  3.944059  0
C  C63  1  0.21195690  0.16885670  0.32252551  1  0  -0.12096  0  3.706103  0  0  -0.143192  0  3.956483  0  0  -0.14886  0  3.977504  0  0  -0.077546  -0.139416  0  3.942239  0
C  C64  1  0.34598250  0.73377625  0.94559272  1  0  0.653467  0  3.923245  0  0  0.607554  0  4.214584  0  0  0.641062  0  4.20927  0  0  0.205079  0.584514  0  4.221142  0
C  C65  1  0.61183087  0.26626989  0.55409833  1  0  0.653846  0  3.92277  0  0  0.608192  0  4.213823  0  0  0.641658  0  4.208658  0  0  0.205474  0.585008  0  4.220573  0
C  C66  1  0.65401437  0.26622803  0.05440977  1  0  0.653545  0  3.922989  0  0  0.607576  0  4.21438  0  0  0.641084  0  4.209062  0  0  0.20504  0.584534  0  4.220926  0
C  C67  1  0.38815716  0.73372532  0.44590307  1  0  0.653921  0  3.922824  0  0  0.608212  0  4.213928  0  0  0.641691  0  4.208734  0  0  0.205399  0.585001  0  4.220721  0
C  C68  1  0.32468851  0.62608351  0.98324624  1  0  -0.012839  0  3.708645  0  0  0.008706  0  3.937196  0  0  0.00681  0  3.956155  0  0  0.005581  0.010034  0  3.924  0
C  C69  1  0.69827296  0.37390075  0.51643272  1  0  -0.010388  0  3.70727  0  0  0.010738  0  3.936131  0  0  0.008866  0  3.955082  0  0  0.005794  0.01194  0  3.923101  0
C  C70  1  0.67530138  0.37391974  0.01675548  1  0  -0.012882  0  3.708672  0  0  0.008701  0  3.937185  0  0  0.006801  0  3.956152  0  0  0.005564  0.010029  0  3.923978  0
C  C71  1  0.30172479  0.62609450  0.48356985  1  0  -0.010464  0  3.707254  0  0  0.010747  0  3.936068  0  0  0.008871  0  3.955017  0  0  0.005854  0.011959  0  3.923039  0
C  C72  1  0.44065130  0.64644127  0.04324874  1  0  -0.101598  0  3.693821  0  0  -0.128019  0  3.941435  0  0  -0.132712  0  3.962478  0  0  -0.070233  -0.125222  0  3.928237  0
C  C73  1  0.79418002  0.35355868  0.45658936  1  0  -0.104303  0  3.693787  0  0  -0.130528  0  3.941591  0  0  -0.135264  0  3.96265  0  0  -0.070569  -0.127698  0  3.928206  0
C  C74  1  0.55934372  0.35356796  0.95675176  1  0  -0.101643  0  3.694111  0  0  -0.128037  0  3.94167  0  0  -0.132731  0  3.962714  0  0  -0.070214  -0.125232  0  3.92846  0
C  C75  1  0.20581671  0.64643453  0.54341226  1  0  -0.104101  0  3.69358  0  0  -0.130386  0  3.941411  0  0  -0.135124  0  3.962476  0  0  -0.070566  -0.127561  0  3.928034  0
C  C76  1  0.40748062  0.55681509  0.08690988  1  0  0.111529  0  3.695269  0  0  0.082881  0  3.944611  0  0  0.088136  0  3.961111  0  0  0.044286  0.079495  0  3.933798  0
C  C77  1  0.85069382  0.44319175  0.41294729  1  0  0.112421  0  3.693059  0  0  0.084413  0  3.94237  0  0  0.089648  0  3.958907  0  0  0.044957  0.081018  0  3.931557  0
C  C78  1  0.59251543  0.44319620  0.91309215  1  0  0.1117  0  3.695208  0  0  0.083036  0  3.944515  0  0  0.088291  0  3.961017  0  0  0.044408  0.079649  0  3.933705  0
C  C79  1  0.14930662  0.55680457  0.58705721  1  0  0.112455  0  3.693019  0  0  0.084455  0  3.942346  0  0  0.089697  0  3.958884  0  0  0.045004  0.08104  0  3.931528  0
C  C80  1  0.15817241  0.42093221  0.01006564  1  0  0.120921  0  3.651494  0  0  0.0931  0  3.896789  0  0  0.098855  0  3.913455  0  0  0.047102  0.089433  0  3.885698  0
C  C81  1  0.73688455  0.57909868  0.48952246  1  0  0.123218  0  3.651061  0  0  0.095576  0  3.896618  0  0  0.101338  0  3.913313  0  0  0.048522  0.091802  0  3.885785  0
C  C82  1  0.84182712  0.57907307  0.98993703  1  0  0.121036  0  3.651473  0  0  0.093197  0  3.896763  0  0  0.098951  0  3.91341  0  0  0.047141  0.089532  0  3.885673  0
C  C83  1  0.26312332  0.42089957  0.51048008  1  0  0.123222  0  3.650972  0  0  0.095551  0  3.896583  0  0  0.101308  0  3.913282  0  0  0.048519  0.09176  0  3.885741  0
C  C84  1  0.18213399  0.50882297  0.96531810  1  0  -0.11486  0  3.70146  0  0  -0.135937  0  3.943641  0  0  -0.141556  0  3.965874  0  0  -0.07114  -0.132127  0  3.92843  0
C  C85  1  0.67288746  0.49119070  0.53424176  1  0  -0.11706  0  3.70532  0  0  -0.137649  0  3.947108  0  0  -0.143338  0  3.96943  0  0  -0.072249  -0.133863  0  3.932081  0
C  C86  1  0.81785698  0.49118030  0.03468420  1  0  -0.114902  0  3.701522  0  0  -0.135986  0  3.943708  0  0  -0.141601  0  3.965939  0  0  -0.071174  -0.132178  0  3.928494  0
C  C87  1  0.32712094  0.50880861  0.46576213  1  0  -0.116995  0  3.705255  0  0  -0.137587  0  3.947025  0  0  -0.143271  0  3.969345  0  0  -0.072185  -0.133797  0  3.931994  0
C  C88  1  0.94502485  0.92676857  0.97414963  1  0  0.562963  0  3.914146  0  0  0.519776  0  4.200634  0  0  0.549289  0  4.196628  0  0  0.213825  0.499356  0  4.206471  0
C  C89  1  0.01805751  0.07321013  0.52586928  1  0  0.563416  0  3.913878  0  0  0.520452  0  4.199949  0  0  0.549979  0  4.195932  0  0  0.214415  0.50006  0  4.205701  0
C  C90  1  0.05497415  0.07323780  0.02585555  1  0  0.563103  0  3.913763  0  0  0.519975  0  4.200176  0  0  0.549494  0  4.196165  0  0  0.213895  0.499551  0  4.206021  0
C  C91  1  0.98192648  0.92678780  0.47412337  1  0  0.563743  0  3.913746  0  0  0.520524  0  4.200143  0  0  0.550052  0  4.196126  0  0  0.214429  0.500127  0  4.2059  0
C  C92  1  0.21570637  0.92327052  0.72849837  1  0  0.553781  0  3.949243  0  0  0.50889  0  4.252382  0  0  0.538405  0  4.246893  0  0  0.212885  0.488472  0  4.259073  0
C  C93  1  0.29239551  0.07704559  0.77151499  1  0  0.555923  0  3.947855  0  0  0.510903  0  4.251077  0  0  0.540427  0  4.245516  0  0  0.212907  0.490474  0  4.257831  0
C  C94  1  0.78428422  0.07672335  0.27149297  1  0  0.553879  0  3.949511  0  0  0.509058  0  4.252572  0  0  0.538578  0  4.247065  0  0  0.212968  0.488648  0  4.259254  0
C  C95  1  0.70760632  0.92294921  0.22847421  1  0  0.55619  0  3.947685  0  0  0.511111  0  4.25098  0  0  0.540636  0  4.245407  0  0  0.212977  0.490684  0  4.257737  0
N  N96  1  0.98121321  0.27528723  0.71949925  1  0  -0.297443  0  3.442409  0  0  -0.214865  0  3.741759  0  0  -0.225604  0  3.747533  0  0  -0.37891  -0.208505  0  3.737539  0
N  N97  1  0.70664239  0.72469178  0.78059972  1  0  -0.29706  0  3.441936  0  0  -0.214133  0  3.740747  0  0  -0.224951  0  3.746595  0  0  -0.378889  -0.207657  0  3.736402  0
N  N98  1  0.01878556  0.72470790  0.28049983  1  0  -0.297406  0  3.442412  0  0  -0.214828  0  3.741744  0  0  -0.225564  0  3.747514  0  0  -0.378905  -0.208468  0  3.737526  0
N  N99  1  0.29336709  0.27532049  0.21940191  1  0  -0.296952  0  3.441627  0  0  -0.214118  0  3.740523  0  0  -0.22493  0  3.746362  0  0  -0.378867  -0.207636  0  3.736142  0
N  N100  1  0.26765528  0.44576842  0.07169568  1  0  -0.292234  0  3.444527  0  0  -0.21013  0  3.743702  0  0  -0.220297  0  3.749493  0  0  -0.375199  -0.204416  0  3.739739  0
N  N101  1  0.82175553  0.55426158  0.42802557  1  0  -0.292295  0  3.442957  0  0  -0.210876  0  3.742806  0  0  -0.221168  0  3.748669  0  0  -0.375196  -0.20513  0  3.738782  0
N  N102  1  0.73234518  0.55424088  0.92830714  1  0  -0.292366  0  3.444475  0  0  -0.210219  0  3.743634  0  0  -0.220365  0  3.749399  0  0  -0.375236  -0.204512  0  3.739688  0
N  N103  1  0.17824976  0.44573367  0.57197700  1  0  -0.292468  0  3.443068  0  0  -0.211031  0  3.742939  0  0  -0.221335  0  3.748818  0  0  -0.37529  -0.205234  0  3.738863  0
O  O104  1  0.54888028  0.03586674  0.86301044  1  0  -0.729725  0  2.052346  0  0  -0.680044  0  2.310281  0  0  -0.711978  0  2.300791  0  0  -0.387696  -0.662019  0  2.3154  0
O  O105  1  0.51383989  0.96439848  0.63704600  1  0  -0.729305  0  2.04991  0  0  -0.679248  0  2.308148  0  0  -0.711318  0  2.298622  0  0  -0.387524  -0.661391  0  2.313353  0
O  O106  1  0.45113833  0.96412061  0.13699647  1  0  -0.729773  0  2.052434  0  0  -0.679939  0  2.310707  0  0  -0.711877  0  2.301205  0  0  -0.387733  -0.661917  0  2.315825  0
O  O107  1  0.48614614  0.03558842  0.36294695  1  0  -0.729274  0  2.04987  0  0  -0.679196  0  2.308166  0  0  -0.711245  0  2.298647  0  0  -0.387545  -0.661341  0  2.313362  0
O  O108  1  0.77149097  0.08849957  0.94542728  1  0  -0.716245  0  2.024821  0  0  -0.663887  0  2.270434  0  0  -0.694359  0  2.260698  0  0  -0.371078  -0.646265  0  2.275342  0
O  O109  1  0.68363952  0.91160673  0.55456553  1  0  -0.714957  0  2.024852  0  0  -0.661877  0  2.270098  0  0  -0.692539  0  2.260507  0  0  -0.369904  -0.644386  0  2.275385  0
O  O110  1  0.22854046  0.91151994  0.05458088  1  0  -0.716301  0  2.024671  0  0  -0.663719  0  2.270476  0  0  -0.69421  0  2.260754  0  0  -0.370923  -0.646103  0  2.275395  0
O  O111  1  0.31634706  0.08837912  0.44542608  1  0  -0.714952  0  2.024876  0  0  -0.661828  0  2.270217  0  0  -0.6925  0  2.260627  0  0  -0.369919  -0.644348  0  2.275501  0
O  O112  1  0.23542816  0.71494826  0.89393917  1  0  -0.652129  0  1.909668  0  0  -0.605502  0  2.135105  0  0  -0.631013  0  2.122751  0  0  -0.361002  -0.591285  0  2.142634  0
O  O113  1  0.52011261  0.28526178  0.60571248  1  0  -0.652771  0  1.909308  0  0  -0.606088  0  2.134699  0  0  -0.631752  0  2.122358  0  0  -0.361026  -0.591863  0  2.142337  0
O  O114  1  0.76455634  0.28505499  0.10606255  1  0  -0.652067  0  1.909822  0  0  -0.605417  0  2.13528  0  0  -0.630924  0  2.122917  0  0  -0.360909  -0.591203  0  2.142801  0
O  O115  1  0.47987588  0.71473436  0.39428679  1  0  -0.652815  0  1.909298  0  0  -0.606148  0  2.134721  0  0  -0.6318  0  2.122371  0  0  -0.361011  -0.591907  0  2.142372  0
O  O116  1  0.47153003  0.84611319  0.97038068  1  0  -0.79655  0  2.111693  0  0  -0.741331  0  2.374553  0  0  -0.774941  0  2.361826  0  0  -0.406133  -0.725058  0  2.382729  0
O  O117  1  0.62506801  0.15385846  0.52939536  1  0  -0.796628  0  2.112025  0  0  -0.741222  0  2.374951  0  0  -0.775001  0  2.362093  0  0  -0.406044  -0.724945  0  2.383197  0
O  O118  1  0.52846430  0.15388385  0.02961528  1  0  -0.796587  0  2.111377  0  0  -0.741346  0  2.374247  0  0  -0.774958  0  2.361521  0  0  -0.406137  -0.725067  0  2.382401  0
O  O119  1  0.37491156  0.84613062  0.47060262  1  0  -0.796614  0  2.112058  0  0  -0.7412  0  2.375031  0  0  -0.774972  0  2.362133  0  0  -0.406006  -0.724911  0  2.383286  0
O  O120  1  0.00300863  0.86508357  0.91877126  1  0  -0.660044  0  2.076449  0  0  -0.601484  0  2.3379  0  0  -0.630824  0  2.324276  0  0  -0.362691  -0.585108  0  2.34614  0
O  O121  1  0.13759414  0.13487672  0.58131855  1  0  -0.660438  0  2.075403  0  0  -0.601775  0  2.336943  0  0  -0.631257  0  2.323301  0  0  -0.362886  -0.585332  0  2.345136  0
O  O122  1  0.99700703  0.13492379  0.08123352  1  0  -0.66003  0  2.076616  0  0  -0.601537  0  2.338156  0  0  -0.630863  0  2.324489  0  0  -0.362648  -0.58516  0  2.346388  0
O  O123  1  0.86238565  0.86511711  0.41867163  1  0  -0.660523  0  2.07529  0  0  -0.601836  0  2.336975  0  0  -0.631306  0  2.323335  0  0  -0.362846  -0.585388  0  2.345171  0
O  O124  1  0.80385864  0.87670993  0.98959838  1  0  -0.640327  0  2.074003  0  0  -0.586275  0  2.330568  0  0  -0.614559  0  2.318998  0  0  -0.357635  -0.570268  0  2.33737  0
O  O125  1  0.92685787  0.12329610  0.51040733  1  0  -0.640622  0  2.075999  0  0  -0.586664  0  2.332159  0  0  -0.614968  0  2.320499  0  0  -0.357889  -0.570508  0  2.338724  0
O  O126  1  0.19615819  0.12330626  0.01040051  1  0  -0.640504  0  2.073414  0  0  -0.58646  0  2.329943  0  0  -0.614745  0  2.31836  0  0  -0.357717  -0.570452  0  2.336748  0
O  O127  1  0.07312074  0.87670185  0.48958591  1  0  -0.640752  0  2.076038  0  0  -0.586744  0  2.332391  0  0  -0.615063  0  2.320723  0  0  -0.358006  -0.570582  0  2.338952  0
O  O128  1  0.20121655  0.84831798  0.77197312  1  0  -0.649046  0  1.99153  0  0  -0.602295  0  2.231071  0  0  -0.62893  0  2.218455  0  0  -0.357054  -0.58738  0  2.238598  0
O  O129  1  0.35264127  0.15199073  0.72800392  1  0  -0.650385  0  1.989444  0  0  -0.603623  0  2.229317  0  0  -0.630397  0  2.216651  0  0  -0.357523  -0.588674  0  2.236842  0
O  O130  1  0.79878346  0.15167317  0.22802696  1  0  -0.649047  0  1.992115  0  0  -0.602316  0  2.231654  0  0  -0.628945  0  2.219023  0  0  -0.357047  -0.587407  0  2.239179  0
O  O131  1  0.64734202  0.84799717  0.27198863  1  0  -0.650631  0  1.989003  0  0  -0.603839  0  2.228853  0  0  -0.6306  0  2.216181  0  0  -0.357673  -0.588888  0  2.23638  0
O  O132  1  0.16910990  0.88517293  0.65266469  1  0  -0.66659  0  2.056452  0  0  -0.616171  0  2.300663  0  0  -0.644382  0  2.291066  0  0  -0.369881  -0.599883  0  2.306287  0
O  O133  1  0.28382635  0.11515436  0.84732066  1  0  -0.666511  0  2.055574  0  0  -0.616346  0  2.300098  0  0  -0.644564  0  2.290753  0  0  -0.369117  -0.600052  0  2.305598  0
O  O134  1  0.83087086  0.11481421  0.34733523  1  0  -0.666669  0  2.056285  0  0  -0.616275  0  2.300426  0  0  -0.644476  0  2.290822  0  0  -0.369927  -0.599989  0  2.306051  0
O  O135  1  0.71618900  0.88484375  0.15267781  1  0  -0.66661  0  2.055873  0  0  -0.616433  0  2.300437  0  0  -0.644648  0  2.291091  0  0  -0.369108  -0.600149  0  2.305942  0
