# generated using pymatgen
data_Cu3H8C10N13O8
_symmetry_space_group_name_H-M   'P 1'
_cell_length_a   9.31929741
_cell_length_b   9.31929790
_cell_length_c   16.71554140
_cell_angle_alpha   95.98260278
_cell_angle_beta   95.98213843
_cell_angle_gamma   105.62731055
_symmetry_Int_Tables_number   1
_chemical_formula_structural   Cu3H8C10N13O8
_chemical_formula_sum   'Cu6 H16 C20 N26 O16'
_cell_volume   1377.12656694
_cell_formula_units_Z   2
loop_
 _symmetry_equiv_pos_site_id
 _symmetry_equiv_pos_as_xyz
  1  'x, y, z'
loop_
 _atom_site_type_symbol
 _atom_site_label
 _atom_site_symmetry_multiplicity
 _atom_site_fract_x
 _atom_site_fract_y
 _atom_site_fract_z
 _atom_site_occupancy
 _atom_site_pbe_bader_charge
 _atom_site_pbe_bader_spin_density
 _atom_site_pbe_cm5_charge
 _atom_site_pbe_ddec_charge
 _atom_site_pbe_ddec_spin_density
 _atom_site_pbe_ddec_sum_bond_order
 _atom_site_pbe_magmom
Cu  Cu0  1  0.54613930  0.45437140  0.74995013  1  1.034072  0.554834  0.756856  0.731728  0.79151  2.451065  0.553
Cu  Cu1  1  0.45435245  0.54615946  0.24995451  1  1.034408  0.55484  0.756957  0.731675  0.791479  2.451344  0.553
Cu  Cu2  1  0.97994281  0.06359000  0.84979437  1  1.062  0.530607  0.772468  0.68574  0.762121  2.464734  0.527
Cu  Cu3  1  0.93561170  0.02028327  0.64981633  1  1.057295  -0.42902  0.767656  0.680303  -0.55292  2.46278  -0.428
Cu  Cu4  1  0.02027036  0.93557594  0.14977884  1  1.056753  -0.429079  0.767448  0.680308  -0.552975  2.462037  -0.428
Cu  Cu5  1  0.06365316  0.97997954  0.34984369  1  1.062366  0.530547  0.772283  0.685263  0.762  2.464695  0.527
H  H6  1  0.71473323  0.71630627  0.54414756  1  0.543877  -6.1e-05  0.294406  0.320161  7.7e-05  1.00865  0.0
H  H7  1  0.28406933  0.28373540  0.95516768  1  0.54  -0.000161  0.292829  0.317341  -0.000197  1.009186  0.0
H  H8  1  0.28374440  0.28409410  0.45516606  1  0.540188  -0.000161  0.292876  0.317423  -0.000197  1.00928  0.0
H  H9  1  0.71628062  0.71472822  0.04415398  1  0.543492  -6.1e-05  0.29436  0.320211  7.7e-05  1.008349  0.0
H  H10  1  0.59659056  0.56234705  0.57967592  1  0.478178  0.00027  0.304587  0.319192  0.000304  0.963449  0.0
H  H11  1  0.43636513  0.40395138  0.91994594  1  0.479893  9.4e-05  0.30395  0.317433  0.000155  0.965597  0.0
H  H12  1  0.40397132  0.43639500  0.41994835  1  0.479835  9.4e-05  0.30392  0.317082  0.000154  0.965173  0.0
H  H13  1  0.56232360  0.59657598  0.07967898  1  0.478286  0.00027  0.30461  0.31931  0.000303  0.963377  0.0
H  H14  1  0.80341712  0.25227242  0.93598334  1  0.543253  -0.000495  0.319541  0.345204  0.000796  0.944774  -0.001
H  H15  1  0.74780733  0.19650476  0.56505342  1  0.555778  -0.000984  0.319825  0.345879  0.000401  0.944458  -0.001
H  H16  1  0.19650649  0.74779299  0.06505201  1  0.554395  -0.000987  0.319857  0.345891  0.000402  0.94447  -0.001
H  H17  1  0.25228563  0.80341708  0.43598649  1  0.543248  -0.000496  0.319525  0.345172  0.000796  0.94486  -0.001
H  H18  1  0.70283789  0.38283079  0.90430544  1  0.501994  -0.000893  0.316187  0.331838  0.000818  0.95116  -0.001
H  H19  1  0.61449765  0.29383294  0.59672475  1  0.520985  -0.000554  0.315228  0.330901  0.00115  0.95384  -0.001
H  H20  1  0.29383627  0.61449261  0.09672408  1  0.520964  -0.000555  0.315248  0.330971  0.001149  0.953696  -0.001
H  H21  1  0.38282954  0.70282509  0.40431120  1  0.502396  -0.000892  0.3162  0.331842  0.000817  0.951063  -0.001
C  C22  1  0.75846779  0.72864202  0.80098268  1  1.019463  0.001402  0.195683  0.169947  0.001136  4.059087  0.001
C  C23  1  0.27269083  0.24099977  0.69862489  1  1.017372  0.001579  0.194468  0.16916  0.001735  4.059537  0.003
C  C24  1  0.24100785  0.27269862  0.19862464  1  1.017347  0.00158  0.19449  0.16919  0.001736  4.059352  0.003
C  C25  1  0.72864348  0.75846285  0.30098783  1  1.019156  0.001408  0.19552  0.169671  0.00114  4.05914  0.001
C  C26  1  0.73248745  0.71150134  0.66989789  1  1.553984  0.002007  0.330859  0.559001  0.002106  4.085795  0.002
C  C27  1  0.28977366  0.26570950  0.82959126  1  1.525684  0.004087  0.330017  0.559575  0.004873  4.081626  0.006
C  C28  1  0.26572426  0.28978298  0.32959030  1  1.52532  0.004087  0.33005  0.559642  0.004872  4.081476  0.006
C  C29  1  0.71149671  0.73248252  0.16990265  1  1.55479  0.002008  0.330832  0.558864  0.002107  4.086239  0.002
C  C30  1  0.72612927  0.67521546  0.87970779  1  1.584748  -0.00236  0.212688  0.532915  -0.000258  4.223921  -0.003
C  C31  1  0.32578169  0.27372042  0.61993127  1  1.574437  -0.002446  0.213395  0.534125  -0.000289  4.222627  -0.003
C  C32  1  0.27373449  0.32579806  0.11993195  1  1.573681  -0.002448  0.213527  0.534449  -0.00029  4.222526  -0.003
C  C33  1  0.67520415  0.72612010  0.37971256  1  1.584978  -0.002358  0.212637  0.532792  -0.000257  4.22399  -0.003
C  C34  1  0.76565647  0.26016990  0.81503920  1  1.531085  0.04157  0.353069  0.56392  0.038224  4.069265  0.026
C  C35  1  0.73978183  0.23379846  0.68597286  1  1.521847  0.041132  0.353276  0.563911  0.036877  4.072345  0.024
C  C36  1  0.23380337  0.73978737  0.18597634  1  1.522297  0.041141  0.353368  0.564093  0.036897  4.072115  0.024
C  C37  1  0.26017070  0.76565582  0.31504085  1  1.531192  0.041581  0.353096  0.563987  0.038231  4.068959  0.026
C  C38  1  0.06123883  0.96276962  0.99006761  1  1.624948  -0.001699  0.203495  0.477158  0.00013  4.230994  -0.003
C  C39  1  0.03662483  0.93903501  0.50983698  1  1.594353  0.002726  0.204671  0.480265  0.001543  4.225512  0.003
C  C40  1  0.93903433  0.03662578  0.00980318  1  1.594219  0.002728  0.204888  0.480586  0.001543  4.225814  0.003
C  C41  1  0.96277174  0.06124587  0.49010674  1  1.625307  -0.0017  0.203596  0.47752  0.000126  4.231055  -0.003
N  N42  1  0.84972910  0.85489372  0.78419475  1  -0.711292  0.026435  -0.252854  -0.2084  0.020451  3.498431  0.025
N  N43  1  0.14769109  0.14741417  0.71524661  1  -0.721334  -0.00189  -0.252194  -0.208778  -0.001896  3.487363  -0.005
N  N44  1  0.14742830  0.14768594  0.21525125  1  -0.721024  -0.001877  -0.252147  -0.208927  -0.001887  3.48697  -0.005
N  N45  1  0.85490231  0.84971699  0.28419743  1  -0.710331  0.026393  -0.252609  -0.208079  0.02042  3.4976  0.024
N  N46  1  0.83409626  0.84495684  0.70118729  1  -0.754242  -0.04216  -0.283421  -0.303518  -0.028739  3.47034  -0.038
N  N47  1  0.15766164  0.16194996  0.79823730  1  -0.718403  0.075649  -0.283534  -0.307529  0.056789  3.464099  0.066
N  N48  1  0.16197491  0.15766304  0.29824120  1  -0.71855  0.075633  -0.283506  -0.307433  0.056782  3.464243  0.066
N  N49  1  0.84495628  0.83408083  0.20119039  1  -0.755015  -0.042152  -0.28339  -0.303475  -0.028734  3.470187  -0.038
N  N50  1  0.68434571  0.63696583  0.73182827  1  -1.223229  0.062401  -0.40732  -0.464141  0.046456  3.596374  0.052
N  N51  1  0.36347002  0.31609004  0.76784402  1  -1.226462  0.068307  -0.410197  -0.468828  0.050646  3.600193  0.057
N  N52  1  0.31609616  0.36347934  0.26784139  1  -1.226701  0.068315  -0.410237  -0.468878  0.050652  3.600379  0.057
N  N53  1  0.63695598  0.68434833  0.23183562  1  -1.223755  0.062407  -0.407321  -0.464088  0.046459  3.596644  0.052
N  N54  1  0.68549117  0.65644749  0.59115687  1  -1.31727  0.006372  -0.582053  -0.659591  0.004504  3.302403  0.004
N  N55  1  0.34485932  0.31238478  0.90845228  1  -1.311188  0.00159  -0.581998  -0.658559  0.000995  3.301094  0.001
N  N56  1  0.31240002  0.34488410  0.40845350  1  -1.311133  0.001598  -0.58211  -0.658239  0.001002  3.300942  0.001
N  N57  1  0.65642958  0.68548442  0.09116313  1  -1.317474  0.006391  -0.58211  -0.659813  0.004517  3.302343  0.004
N  N58  1  0.69524055  0.30126419  0.75046668  1  -1.185386  -0.018047  -0.366079  -0.544535  -0.014792  3.322272  -0.016
N  N59  1  0.30126340  0.69523935  0.25046735  1  -1.185654  -0.018044  -0.366163  -0.544706  -0.014791  3.322447  -0.016
N  N60  1  0.85350010  0.16849990  0.79097871  1  -0.539335  0.320564  -0.242679  -0.232209  0.229697  3.443224  0.239
N  N61  1  0.83864218  0.15368423  0.71016809  1  -0.648809  0.178827  -0.244566  -0.23554  0.122368  3.446946  0.114
N  N62  1  0.15369442  0.83866059  0.21017427  1  -0.648935  0.178897  -0.244627  -0.23553  0.122407  3.446962  0.114
N  N63  1  0.16850500  0.85350914  0.29097862  1  -0.539531  0.320552  -0.242536  -0.232075  0.229687  3.443003  0.239
N  N64  1  0.75837456  0.30352858  0.89220439  1  -1.25307  0.154038  -0.521112  -0.55797  0.109655  3.228531  0.11
N  N65  1  0.69553723  0.24018557  0.60880245  1  -1.301753  0.158469  -0.521911  -0.559396  0.11275  3.228325  0.113
N  N66  1  0.24019181  0.69554291  0.10880530  1  -1.300332  0.158468  -0.521934  -0.559504  0.112748  3.228115  0.113
N  N67  1  0.30352523  0.75836770  0.39220650  1  -1.253495  0.154022  -0.521112  -0.558046  0.109646  3.22851  0.11
O  O68  1  0.79054326  0.74708409  0.94667143  1  -1.150388  0.02185  -0.285149  -0.486301  0.015551  2.206683  0.019
O  O69  1  0.25399077  0.20926281  0.55294579  1  -1.151831  0.021776  -0.285573  -0.486254  0.015465  2.204644  0.019
O  O70  1  0.20928114  0.25401875  0.05294264  1  -1.151676  0.021782  -0.285703  -0.486431  0.015469  2.204556  0.019
O  O71  1  0.74706528  0.79053976  0.44667786  1  -1.150322  0.021848  -0.285076  -0.486251  0.015549  2.206856  0.019
O  O72  1  0.62416240  0.54430367  0.87073312  1  -1.127722  0.107839  -0.323773  -0.556012  0.0779  2.272303  0.098
O  O73  1  0.45667772  0.37602188  0.62880800  1  -1.127945  0.112213  -0.325431  -0.559846  0.08085  2.271271  0.102
O  O74  1  0.37603502  0.45669095  0.12881148  1  -1.127461  0.112211  -0.325474  -0.559959  0.080848  2.271322  0.102
O  O75  1  0.54429267  0.62415295  0.37073556  1  -1.127932  0.107825  -0.3237  -0.555701  0.077889  2.272029  0.098
O  O76  1  0.10324323  0.96890213  0.92072496  1  -1.066734  0.087536  -0.28984  -0.423797  0.06291  2.299602  0.078
O  O77  1  0.02931059  0.89619171  0.57897178  1  -1.067387  -0.086523  -0.28961  -0.423203  -0.055736  2.29691  -0.078
O  O78  1  0.89621176  0.02932210  0.07894055  1  -1.066431  -0.086516  -0.289668  -0.423278  -0.055733  2.297515  -0.078
O  O79  1  0.96889964  0.10324090  0.42076271  1  -1.066524  0.087537  -0.290122  -0.424113  0.062914  2.299677  0.078
O  O80  1  0.11362762  0.89978555  0.04534610  1  -1.133524  -0.028765  -0.302923  -0.494827  -0.019154  2.373196  -0.027
O  O81  1  0.10041861  0.88720810  0.45475630  1  -1.128054  0.031915  -0.302803  -0.496249  0.023128  2.369168  0.03
O  O82  1  0.88718418  0.10040613  0.95472309  1  -1.128404  0.031872  -0.30306  -0.49674  0.023097  2.368596  0.03
O  O83  1  0.89980003  0.11364925  0.54538670  1  -1.133824  -0.028736  -0.302816  -0.494893  -0.019137  2.37383  -0.027
