# generated using pymatgen
data_CdH12C16(NO2)2
_symmetry_space_group_name_H-M   'P 1'
_cell_length_a   7.56488152
_cell_length_b   10.30442945
_cell_length_c   12.78633374
_cell_angle_alpha   111.31546308
_cell_angle_beta   104.01854315
_cell_angle_gamma   97.62824364
_symmetry_Int_Tables_number   1
_chemical_formula_structural   CdH12C16(NO2)2
_chemical_formula_sum   'Cd2 H24 C32 N4 O8'
_cell_volume   873.58702137
_cell_formula_units_Z   2
loop_
 _symmetry_equiv_pos_site_id
 _symmetry_equiv_pos_as_xyz
  1  'x, y, z'
loop_
 _atom_site_type_symbol
 _atom_site_label
 _atom_site_symmetry_multiplicity
 _atom_site_fract_x
 _atom_site_fract_y
 _atom_site_fract_z
 _atom_site_occupancy
 _atom_site_hle17_bader_spin_density
 _atom_site_hle17_ddec_charge
 _atom_site_hle17_ddec_spin_density
 _atom_site_hle17_ddec_sum_bond_order
 _atom_site_hle17_magmom
 _atom_site_hse06_10hf_bader_spin_density
 _atom_site_hse06_10hf_ddec_charge
 _atom_site_hse06_10hf_ddec_spin_density
 _atom_site_hse06_10hf_ddec_sum_bond_order
 _atom_site_hse06_10hf_magmom
 _atom_site_hse06_bader_spin_density
 _atom_site_hse06_ddec_charge
 _atom_site_hse06_ddec_spin_density
 _atom_site_hse06_ddec_sum_bond_order
 _atom_site_hse06_magmom
 _atom_site_pbe_bader_spin_density
 _atom_site_pbe_cm5_charge
 _atom_site_pbe_ddec_charge
 _atom_site_pbe_ddec_spin_density
 _atom_site_pbe_ddec_sum_bond_order
 _atom_site_pbe_magmom
Cd  Cd0  1  0.32629022  0.08062137  0.21995694  1  0  1.05652  0  1.707903  0  0  0.857808  0  2.153532  0  0  0.917051  0  2.103662  0  0  0.766551  0.816257  0  2.187064  0
Cd  Cd1  1  0.60629577  0.86066285  0.77978960  1  0  1.057577  0  1.70583  0  0  0.859059  0  2.15129  0  0  0.918313  0  2.101423  0  0  0.766858  0.817553  0  2.184802  0
H  H2  1  0.07400635  0.58854718  0.15322620  1  0  0.104496  0  0.929527  0  0  0.11574  0  0.986583  0  0  0.119579  0  0.98367  0  0  0.108718  0.112935  0  0.988753  0
H  H3  1  0.42077662  0.43582107  0.84696397  1  0  0.103785  0  0.92984  0  0  0.115795  0  0.986067  0  0  0.119746  0  0.983006  0  0  0.108452  0.112909  0  0.988336  0
H  H4  1  0.02191532  0.60953240  0.91386856  1  0  0.106381  0  0.960029  0  0  0.115845  0  1.02241  0  0  0.118761  0  1.022275  0  0  0.104675  0.113837  0  1.022524  0
H  H5  1  0.60807323  0.69612661  0.08628407  1  0  0.10642  0  0.959752  0  0  0.115901  0  1.022119  0  0  0.118838  0  1.021959  0  0  0.104869  0.113875  0  1.022296  0
H  H6  1  0.67596451  0.13329739  0.72034148  1  0  0.077085  0  0.939391  0  0  0.088969  0  0.998273  0  0  0.091139  0  0.996463  0  0  0.117077  0.08732  0  0.999687  0
H  H7  1  0.45594965  0.41312228  0.27988939  1  0  0.07731  0  0.93915  0  0  0.088572  0  0.998752  0  0  0.090748  0  0.996939  0  0  0.11709  0.086903  0  1.000181  0
H  H8  1  0.88226526  0.08547058  0.03242566  1  0  0.105184  0  0.934645  0  0  0.112959  0  0.996719  0  0  0.116239  0  0.993136  0  0  0.123413  0.110389  0  0.999625  0
H  H9  1  0.34981437  0.05344839  0.96771886  1  0  0.105026  0  0.935648  0  0  0.11208  0  0.998443  0  0  0.115327  0  0.994871  0  0  0.123024  0.1096  0  1.001201  0
H  H10  1  0.02477515  0.34590546  0.14419716  1  0  0.112824  0  0.955847  0  0  0.121419  0  1.017372  0  0  0.124843  0  1.016409  0  0  0.107288  0.11898  0  1.018019  0
H  H11  1  0.38052922  0.20208519  0.85594707  1  0  0.112575  0  0.956054  0  0  0.121234  0  1.017256  0  0  0.124739  0  1.016217  0  0  0.107396  0.118704  0  1.018029  0
H  H12  1  0.81557718  0.39731679  0.81835578  1  0  0.113062  0  0.935103  0  0  0.127125  0  0.985848  0  0  0.130319  0  0.985312  0  0  0.113635  0.124868  0  0.986391  0
H  H13  1  0.49715527  0.57926849  0.18190172  1  0  0.112748  0  0.936124  0  0  0.126394  0  0.987314  0  0  0.129614  0  0.986751  0  0  0.113581  0.124135  0  0.987887  0
H  H14  1  0.89757748  0.33649758  0.35074136  1  0  0.106784  0  0.950949  0  0  0.116074  0  1.011958  0  0  0.119749  0  1.010799  0  0  0.101404  0.113411  0  1.013028  0
H  H15  1  0.04649708  0.98564995  0.64923487  1  0  0.107295  0  0.948636  0  0  0.116339  0  1.009888  0  0  0.120079  0  1.008644  0  0  0.101384  0.11367  0  1.010982  0
H  H16  1  0.01327380  0.80556922  0.84055469  1  0  0.090883  0  0.952534  0  0  0.097264  0  1.019349  0  0  0.100826  0  1.0154  0  0  0.115263  0.094651  0  1.022208  0
H  H17  1  0.67258089  0.96469843  0.15920309  1  0  0.091568  0  0.952434  0  0  0.097804  0  1.019392  0  0  0.101269  0  1.015544  0  0  0.115593  0.09527  0  1.022167  0
H  H18  1  0.19936510  0.64360162  0.74741831  1  0  0.124449  0  0.975637  0  0  0.131798  0  1.038359  0  0  0.135677  0  1.036985  0  0  0.108564  0.128999  0  1.039462  0
H  H19  1  0.95197278  0.89617119  0.25252082  1  0  0.124944  0  0.975179  0  0  0.132314  0  1.037977  0  0  0.136297  0  1.03643  0  0  0.108803  0.129442  0  1.039188  0
H  H20  1  0.76028394  0.50223261  0.41368003  1  0  0.095534  0  0.969873  0  0  0.10593  0  1.031302  0  0  0.108906  0  1.030553  0  0  0.104116  0.103838  0  1.031939  0
H  H21  1  0.84609723  0.08826118  0.58610644  1  0  0.096351  0  0.968116  0  0  0.106364  0  1.030015  0  0  0.109313  0  1.029289  0  0  0.104316  0.104279  0  1.030653  0
H  H22  1  0.58958434  0.66952711  0.52014795  1  0  0.091409  0  0.92758  0  0  0.101882  0  0.985505  0  0  0.104859  0  0.982629  0  0  0.119705  0.09968  0  0.987661  0
H  H23  1  0.56890090  0.14897973  0.47956753  1  0  0.090813  0  0.928054  0  0  0.101508  0  0.985817  0  0  0.10443  0  0.983002  0  0  0.119725  0.099354  0  0.987907  0
H  H24  1  0.24795820  0.47710518  0.57313143  1  0  0.11655  0  0.927498  0  0  0.127254  0  0.985281  0  0  0.131261  0  0.981707  0  0  0.111802  0.124284  0  0.987999  0
H  H25  1  0.17456806  0.90388152  0.42685593  1  0  0.116659  0  0.928015  0  0  0.127472  0  0.985665  0  0  0.131342  0  0.982269  0  0  0.112008  0.124567  0  0.988276  0
C  C26  1  0.15582255  0.79594652  0.08410912  1  0  0.660097  0  3.946348  0  0  0.617641  0  4.230548  0  0  0.652504  0  4.225072  0  0  0.18455  0.594261  0  4.232949  0
C  C27  1  0.57178367  0.71217173  0.91597350  1  0  0.657824  0  3.951455  0  0  0.615676  0  4.235354  0  0  0.650548  0  4.229898  0  0  0.183643  0.592297  0  4.237729  0
C  C28  1  0.02607278  0.54833321  0.05672951  1  0  -0.066294  0  3.732713  0  0  -0.091152  0  3.985015  0  0  -0.090637  0  4.00389  0  0  -0.076386  -0.09109  0  3.971719  0
C  C29  1  0.46926518  0.49205816  0.94345385  1  0  -0.067065  0  3.731235  0  0  -0.091865  0  3.98393  0  0  -0.091473  0  4.002771  0  0  -0.076396  -0.091722  0  3.970643  0
C  C30  1  0.05960630  0.64240038  0.00925157  1  0  -0.185562  0  3.646446  0  0  -0.200559  0  3.900076  0  0  -0.210562  0  3.918355  0  0  -0.083295  -0.193862  0  3.887144  0
C  C31  1  0.55030571  0.63356968  0.99091250  1  0  -0.184309  0  3.643976  0  0  -0.199733  0  3.898214  0  0  -0.209739  0  3.916497  0  0  -0.083306  -0.193051  0  3.885286  0
C  C32  1  0.75920892  0.18540675  0.81384311  1  0  0.110331  0  3.759339  0  0  0.07904  0  4.013853  0  0  0.085832  0  4.033237  0  0  0.039169  0.074745  0  4.001036  0
C  C33  1  0.44551943  0.37186508  0.18636428  1  0  0.11092  0  3.756745  0  0  0.080292  0  4.011061  0  0  0.087089  0  4.030437  0  0  0.039319  0.076017  0  3.998209  0
C  C34  1  0.93759442  0.39546376  0.99075977  1  0  0.133302  0  3.805033  0  0  0.150184  0  4.035572  0  0  0.154601  0  4.05859  0  0  0.009865  0.147316  0  4.019829  0
C  C35  1  0.44667540  0.40510535  0.00937233  1  0  0.134195  0  3.801863  0  0  0.149388  0  4.034524  0  0  0.153878  0  4.057453  0  0  0.009744  0.146475  0  4.018828  0
C  C36  1  0.87182452  0.15764805  0.98778713  1  0  0.139739  0  3.686618  0  0  0.10724  0  3.940017  0  0  0.115446  0  3.957037  0  0  0.051642  0.102051  0  3.928089  0
C  C37  1  0.38401851  0.17023510  0.01235658  1  0  0.13915  0  3.687666  0  0  0.107289  0  3.94078  0  0  0.115512  0  3.957778  0  0  0.051375  0.102075  0  3.928829  0
C  C38  1  0.95105324  0.30430030  0.04986039  1  0  -0.153192  0  3.683527  0  0  -0.173557  0  3.932143  0  0  -0.181307  0  3.953111  0  0  -0.079259  -0.167826  0  3.917368  0
C  C39  1  0.40113850  0.25485431  0.95028205  1  0  -0.152081  0  3.681096  0  0  -0.171686  0  3.929467  0  0  -0.179522  0  3.950311  0  0  -0.078511  -0.165872  0  3.914773  0
C  C40  1  0.83689976  0.33229800  0.86899056  1  0  -0.15995  0  3.702208  0  0  -0.175349  0  3.942246  0  0  -0.183061  0  3.963537  0  0  -0.08016  -0.171065  0  3.928636  0
C  C41  1  0.46777838  0.46363432  0.13118529  1  0  -0.160122  0  3.701711  0  0  -0.174709  0  3.942202  0  0  -0.182495  0  3.963433  0  0  -0.080381  -0.170438  0  3.928618  0
C  C42  1  0.15608280  0.26558806  0.35257567  1  0  0.650914  0  3.973697  0  0  0.609269  0  4.259592  0  0  0.643918  0  4.254608  0  0  0.177846  0.58596  0  4.261802  0
C  C43  1  0.30314287  0.91286505  0.64738304  1  0  0.647814  0  3.977723  0  0  0.606445  0  4.263146  0  0  0.641096  0  4.258263  0  0  0.176991  0.583065  0  4.26545  0
C  C44  1  0.04090965  0.35812335  0.40777940  1  0  -0.202315  0  3.676557  0  0  -0.21829  0  3.931339  0  0  -0.228796  0  3.949385  0  0  -0.093486  -0.21139  0  3.919056  0
C  C45  1  0.13271216  0.95016647  0.59214945  1  0  -0.200625  0  3.67425  0  0  -0.21615  0  3.928665  0  0  -0.226714  0  3.946704  0  0  -0.092432  -0.20926  0  3.916417  0
C  C46  1  0.95982834  0.73561757  0.74614645  1  0  0.137183  0  3.700938  0  0  0.102768  0  3.958539  0  0  0.111407  0  3.974708  0  0  0.046646  0.097137  0  3.947439  0
C  C47  1  0.71347839  0.98925180  0.25364403  1  0  0.135088  0  3.699331  0  0  0.101052  0  3.957132  0  0  0.109779  0  3.973321  0  0  0.045302  0.09532  0  3.9461  0
C  C48  1  0.06327482  0.64439334  0.69423312  1  0  -0.153885  0  3.667402  0  0  -0.171128  0  3.911178  0  0  -0.179163  0  3.930958  0  0  -0.079682  -0.16587  0  3.897878  0
C  C49  1  0.86886860  0.95000851  0.30564046  1  0  -0.153014  0  3.665561  0  0  -0.170922  0  3.909602  0  0  -0.178987  0  3.929271  0  0  -0.07963  -0.165572  0  3.896412  0
C  C50  1  0.99423141  0.55630031  0.57262265  1  0  0.134975  0  3.788453  0  0  0.15183  0  4.015558  0  0  0.156228  0  4.038515  0  0  0.010838  0.149008  0  3.999815  0
C  C51  1  0.92129952  0.98348561  0.42723474  1  0  0.135109  0  3.788556  0  0  0.152606  0  4.014902  0  0  0.156998  0  4.037855  0  0  0.010627  0.149758  0  3.99917  0
C  C52  1  0.82029659  0.56601556  0.50857101  1  0  -0.15614  0  3.709208  0  0  -0.171632  0  3.948648  0  0  -0.179632  0  3.970747  0  0  -0.081224  -0.166379  0  3.933639  0
C  C53  1  0.81123327  0.05714170  0.49119896  1  0  -0.156683  0  3.70849  0  0  -0.171945  0  3.948182  0  0  -0.179949  0  3.970293  0  0  -0.080516  -0.166762  0  3.933274  0
C  C54  1  0.72466107  0.65885785  0.56657358  1  0  0.122721  0  3.727004  0  0  0.091384  0  3.976326  0  0  0.098517  0  3.995385  0  0  0.043631  0.086795  0  3.963235  0
C  C55  1  0.65764109  0.09196913  0.43318306  1  0  0.124688  0  3.728017  0  0  0.093328  0  3.977191  0  0  0.100498  0  3.996321  0  0  0.043916  0.088699  0  3.964133  0
C  C56  1  0.10467274  0.46182327  0.51842057  1  0  -0.053586  0  3.705143  0  0  -0.075621  0  3.949302  0  0  -0.074399  0  3.967176  0  0  -0.069859  -0.076227  0  3.936987  0
C  C57  1  0.08589379  0.94328034  0.48150939  1  0  -0.056587  0  3.707237  0  0  -0.078992  0  3.951445  0  0  -0.077718  0  3.9694  0  0  -0.071598  -0.07958  0  3.939025  0
N  N58  1  0.77743956  0.09863545  0.87132834  1  0  -0.338627  0  3.273741  0  0  -0.25995  0  3.542664  0  0  -0.280746  0  3.561803  0  0  -0.333614  -0.246326  0  3.529338  0
N  N59  1  0.40617875  0.22760498  0.12883233  1  0  -0.339035  0  3.271825  0  0  -0.260381  0  3.540372  0  0  -0.281164  0  3.559487  0  0  -0.333478  -0.24675  0  3.527068  0
N  N60  1  0.79303197  0.74256855  0.68377503  1  0  -0.344413  0  3.293088  0  0  -0.262422  0  3.563243  0  0  -0.283994  0  3.582264  0  0  -0.337877  -0.247693  0  3.54984  0
N  N61  1  0.60891505  0.05843993  0.31595797  1  0  -0.343948  0  3.292371  0  0  -0.262312  0  3.562781  0  0  -0.283887  0  3.581761  0  0  -0.337605  -0.247627  0  3.54948  0
O  O62  1  0.19200062  0.84331562  0.19621383  1  0  -0.645525  0  1.932705  0  0  -0.58411  0  2.159462  0  0  -0.612631  0  2.149253  0  0  -0.337809  -0.564052  0  2.165409  0
O  O63  1  0.49599770  0.64735619  0.80384747  1  0  -0.64517  0  1.932902  0  0  -0.583796  0  2.159464  0  0  -0.612357  0  2.149355  0  0  -0.338189  -0.563689  0  2.16538  0
O  O64  1  0.19932369  0.87520230  0.03241228  1  0  -0.63394  0  1.892744  0  0  -0.570411  0  2.118235  0  0  -0.599484  0  2.108666  0  0  -0.33168  -0.55014  0  2.124008  0
O  O65  1  0.66703901  0.84306770  0.96763353  1  0  -0.632926  0  1.895922  0  0  -0.569567  0  2.121202  0  0  -0.598621  0  2.111645  0  0  -0.330562  -0.549225  0  2.126878  0
O  O66  1  0.07586660  0.17959156  0.24284865  1  0  -0.647126  0  1.962736  0  0  -0.578711  0  2.203526  0  0  -0.609926  0  2.195649  0  0  -0.333969  -0.557046  0  2.208184  0
O  O67  1  0.33345852  0.93757678  0.75733519  1  0  -0.645951  0  1.964472  0  0  -0.578454  0  2.206102  0  0  -0.609585  0  2.198087  0  0  -0.333881  -0.556806  0  2.210813  0
O  O68  1  0.32254529  0.27280569  0.40964867  1  0  -0.650399  0  1.873176  0  0  -0.596801  0  2.091774  0  0  -0.623605  0  2.081814  0  0  -0.347743  -0.578012  0  2.097847  0
O  O69  1  0.41178077  0.86203427  0.59003877  1  0  -0.649817  0  1.875345  0  0  -0.596132  0  2.093765  0  0  -0.622958  0  2.083796  0  0  -0.347888  -0.577357  0  2.099947  0
