# generated using pymatgen
data_CdH28C28(NO)4
_symmetry_space_group_name_H-M   'P 1'
_cell_length_a   9.02189965
_cell_length_b   11.38492493
_cell_length_c   15.11890000
_cell_angle_alpha   110.02534650
_cell_angle_beta   90.00000000
_cell_angle_gamma   113.34234574
_symmetry_Int_Tables_number   1
_chemical_formula_structural   CdH28C28(NO)4
_chemical_formula_sum   'Cd2 H56 C56 N8 O8'
_cell_volume   1322.93990303
_cell_formula_units_Z   2
loop_
 _symmetry_equiv_pos_site_id
 _symmetry_equiv_pos_as_xyz
  1  'x, y, z'
loop_
 _atom_site_type_symbol
 _atom_site_label
 _atom_site_symmetry_multiplicity
 _atom_site_fract_x
 _atom_site_fract_y
 _atom_site_fract_z
 _atom_site_occupancy
 _atom_site_hle17_bader_spin_density
 _atom_site_hle17_ddec_charge
 _atom_site_hle17_ddec_spin_density
 _atom_site_hle17_ddec_sum_bond_order
 _atom_site_hle17_magmom
 _atom_site_hse06_10hf_bader_spin_density
 _atom_site_hse06_10hf_ddec_charge
 _atom_site_hse06_10hf_ddec_spin_density
 _atom_site_hse06_10hf_ddec_sum_bond_order
 _atom_site_hse06_10hf_magmom
 _atom_site_hse06_bader_spin_density
 _atom_site_hse06_ddec_charge
 _atom_site_hse06_ddec_spin_density
 _atom_site_hse06_ddec_sum_bond_order
 _atom_site_hse06_magmom
 _atom_site_pbe_bader_charge
 _atom_site_pbe_bader_spin_density
 _atom_site_pbe_cm5_charge
 _atom_site_pbe_ddec_charge
 _atom_site_pbe_ddec_spin_density
 _atom_site_pbe_ddec_sum_bond_order
 _atom_site_pbe_magmom
Cd  Cd0  1  0.27668927  0.99997343  0.74994890  1  0  1.073408  0  1.728312  0  0  0.883788  0  2.178897  0  0  0.941746  0  2.127629  0  1.226396  0  0.7602  0.843082  0  2.213575  0
Cd  Cd1  1  0.72331119  0.00002681  0.25005156  1  0  1.073427  0  1.728287  0  0  0.883829  0  2.178865  0  0  0.941787  0  2.127594  0  1.226391  0  0.760212  0.843124  0  2.213542  0
H  H2  1  0.03043968  0.09836076  0.51758725  1  0  0.101581  0  0.970249  0  0  0.109474  0  1.035812  0  0  0.113096  0  1.032613  0  0.092151  0  0.102234  0.106986  0  1.037943  0
H  H3  1  0.93212211  0.90154462  0.98236428  1  0  0.10134  0  0.9711  0  0  0.109543  0  1.036223  0  0  0.113154  0  1.03306  0  0.098895  0  0.10217  0.106856  0  1.0387  0
H  H4  1  0.96955643  0.90163741  0.48241202  1  0  0.101457  0  0.970286  0  0  0.109343  0  1.035879  0  0  0.112966  0  1.03268  0  0.092254  0  0.102178  0.106854  0  1.038012  0
H  H5  1  0.06787613  0.09845562  0.01763486  1  0  0.101341  0  0.971232  0  0  0.109573  0  1.036305  0  0  0.113185  0  1.033142  0  0.098744  0  0.102154  0.106894  0  1.038771  0
H  H6  1  0.95275131  0.24042138  0.45410501  1  0  0.110772  0  0.959041  0  0  0.12116  0  1.019663  0  0  0.124282  0  1.017906  0  0.109249  0  0.106103  0.118869  0  1.021053  0
H  H7  1  0.71248493  0.75945925  0.04586924  1  0  0.111105  0  0.958624  0  0  0.121317  0  1.019477  0  0  0.124438  0  1.017725  0  0.108971  0  0.106302  0.119093  0  1.020838  0
H  H8  1  0.04724966  0.75957989  0.54589373  1  0  0.11078  0  0.959044  0  0  0.121156  0  1.019695  0  0  0.124279  0  1.017936  0  0.10956  0  0.106096  0.118867  0  1.021084  0
H  H9  1  0.28751228  0.24053892  0.95412937  1  0  0.111055  0  0.95867  0  0  0.121268  0  1.019527  0  0  0.124387  0  1.017778  0  0.108943  0  0.1063  0.119045  0  1.020887  0
H  H10  1  0.15408783  0.58154401  0.72448200  1  0  0.091372  0  0.954059  0  0  0.10539  0  1.010563  0  0  0.107978  0  1.010238  0  0.048164  0  0.099371  0.103596  0  1.010837  0
H  H11  1  0.57243080  0.41842839  0.77538362  1  0  0.092369  0  0.952757  0  0  0.105836  0  1.009809  0  0  0.108411  0  1.009509  0  0.049555  0  0.099649  0.103995  0  1.010159  0
H  H12  1  0.84591263  0.41845623  0.27551713  1  0  0.091378  0  0.954043  0  0  0.105397  0  1.010545  0  0  0.107986  0  1.010219  0  0.048195  0  0.099364  0.103601  0  1.010817  0
H  H13  1  0.42757084  0.58156978  0.22461564  1  0  0.092318  0  0.952753  0  0  0.105793  0  1.009802  0  0  0.108367  0  1.009502  0  0.049561  0  0.099633  0.103952  0  1.010152  0
H  H14  1  0.23135887  0.43478697  0.78881421  1  0  0.095695  0  0.956985  0  0  0.107005  0  1.018349  0  0  0.110181  0  1.016499  0  0.061029  0  0.102411  0.104704  0  1.01978  0
H  H15  1  0.79657244  0.56517100  0.71112178  1  0  0.095441  0  0.957093  0  0  0.106699  0  1.018551  0  0  0.109758  0  1.016841  0  0.088879  0  0.102179  0.104361  0  1.019999  0
H  H16  1  0.76863886  0.56521224  0.21118599  1  0  0.095759  0  0.95699  0  0  0.107075  0  1.018331  0  0  0.110251  0  1.016483  0  0.06101  0  0.102445  0.104777  0  1.019759  0
H  H17  1  0.20342913  0.43482924  0.28887736  1  0  0.095396  0  0.957069  0  0  0.10665  0  1.018531  0  0  0.109709  0  1.016822  0  0.088917  0  0.102138  0.104302  0  1.01999  0
H  H18  1  0.03646454  0.61409001  0.59989516  1  0  0.100188  0  0.980886  0  0  0.10812  0  1.049756  0  0  0.111365  0  1.047861  0  0.108568  0  0.098288  0.105723  0  1.051135  0
H  H19  1  0.42220263  0.38590920  0.90010834  1  0  0.100413  0  0.981097  0  0  0.10866  0  1.049447  0  0  0.111927  0  1.047549  0  0.10686  0  0.098496  0.106258  0  1.051007  0
H  H20  1  0.96353481  0.38591023  0.40010463  1  0  0.100183  0  0.98086  0  0  0.108122  0  1.04972  0  0  0.111364  0  1.047832  0  0.108559  0  0.098294  0.105726  0  1.051098  0
H  H21  1  0.57780072  0.61408795  0.09989132  1  0  0.100409  0  0.981067  0  0  0.108633  0  1.049454  0  0  0.111898  0  1.047556  0  0.106921  0  0.098471  0.106231  0  1.051014  0
H  H22  1  0.43785925  0.08830497  0.97858153  1  0  0.108623  0  0.957394  0  0  0.118301  0  1.017892  0  0  0.12049  0  1.017561  0  0.106196  0  0.117204  0.116726  0  1.018155  0
H  H23  1  0.34963015  0.91161691  0.52142121  1  0  0.107802  0  0.957649  0  0  0.117475  0  1.018219  0  0  0.119582  0  1.018039  0  0.124291  0  0.116768  0.115897  0  1.018492  0
H  H24  1  0.56214232  0.91169527  0.02142025  1  0  0.108651  0  0.957428  0  0  0.118331  0  1.017918  0  0  0.120518  0  1.017592  0  0.106219  0  0.11719  0.116756  0  1.018181  0
H  H25  1  0.65037193  0.08838436  0.47857885  1  0  0.107798  0  0.957591  0  0  0.117473  0  1.018162  0  0  0.119577  0  1.017986  0  0.124306  0  0.116759  0.115895  0  1.018436  0
H  H26  1  0.77348362  0.22004998  0.04654625  1  0  0.118661  0  0.957817  0  0  0.127618  0  1.020063  0  0  0.13047  0  1.018571  0  0.131155  0  0.121429  0.125504  0  1.021294  0
H  H27  1  0.55361504  0.78000285  0.45349290  1  0  0.118458  0  0.95776  0  0  0.12742  0  1.020099  0  0  0.130266  0  1.018542  0  0.126992  0  0.121008  0.125318  0  1.021317  0
H  H28  1  0.22651683  0.77995026  0.95345354  1  0  0.118684  0  0.957805  0  0  0.127621  0  1.020081  0  0  0.130474  0  1.018585  0  0.131153  0  0.121428  0.125507  0  1.021312  0
H  H29  1  0.44638593  0.21999842  0.54650716  1  0  0.118453  0  0.957761  0  0  0.127413  0  1.0201  0  0  0.130258  0  1.018546  0  0.127022  0  0.121017  0.125312  0  1.021318  0
H  H30  1  0.75371215  0.13443088  0.69929645  1  0  0.135109  0  0.92073  0  0  0.156458  0  0.975345  0  0  0.158475  0  0.975249  0  0.066231  0  0.103114  0.154998  0  0.97545  0
H  H31  1  0.61928014  0.86537759  0.80063009  1  0  0.134338  0  0.920201  0  0  0.155935  0  0.974648  0  0  0.15798  0  0.974508  0  0.088734  0  0.102656  0.154486  0  0.974748  0
H  H32  1  0.24628831  0.86556936  0.30070401  1  0  0.135105  0  0.920727  0  0  0.156449  0  0.975352  0  0  0.158466  0  0.975255  0  0.066238  0  0.103119  0.154989  0  0.975456  0
H  H33  1  0.38072194  0.13462369  0.19936997  1  0  0.134305  0  0.920191  0  0  0.155897  0  0.974638  0  0  0.157939  0  0.974501  0  0.088762  0  0.102637  0.154448  0  0.974737  0
H  H34  1  0.78691651  0.30985306  0.74786757  1  0  0.125245  0  0.953068  0  0  0.144134  0  1.016897  0  0  0.145477  0  1.017863  0  0.049573  0  0.098851  0.143169  0  1.016215  0
H  H35  1  0.47706775  0.68996881  0.75210806  1  0  0.126021  0  0.951912  0  0  0.144924  0  1.015665  0  0  0.14627  0  1.016605  0  0.081574  0  0.099021  0.143948  0  1.015042  0
H  H36  1  0.21308232  0.69014615  0.25213329  1  0  0.125223  0  0.953053  0  0  0.144134  0  1.016853  0  0  0.145476  0  1.017817  0  0.049544  0  0.098864  0.143168  0  1.016172  0
H  H37  1  0.52293322  0.31003246  0.24789134  1  0  0.126034  0  0.951866  0  0  0.144926  0  1.015627  0  0  0.146274  0  1.016565  0  0.081557  0  0.099014  0.14395  0  1.015008  0
H  H38  1  0.58664889  0.17847717  0.69567906  1  0  0.126964  0  0.945732  0  0  0.149841  0  1.004108  0  0  0.15148  0  1.003277  0  0.063542  0  0.102204  0.148596  0  1.004784  0
H  H39  1  0.40817579  0.82134676  0.80430504  1  0  0.126871  0  0.946383  0  0  0.14953  0  1.004813  0  0  0.151159  0  1.003995  0  0.059158  0  0.10206  0.148387  0  1.005286  0
H  H40  1  0.41335157  0.82152307  0.30432206  1  0  0.126956  0  0.945711  0  0  0.149824  0  1.004098  0  0  0.151457  0  1.003274  0  0.063529  0  0.102208  0.148579  0  1.004774  0
H  H41  1  0.59182629  0.17865451  0.19569503  1  0  0.126911  0  0.946339  0  0  0.149531  0  1.00481  0  0  0.151161  0  1.003991  0  0.059404  0  0.102047  0.148388  0  1.005283  0
H  H42  1  0.99219690  0.27311586  0.84397616  1  0  0.085124  0  0.942497  0  0  0.097288  0  1.00861  0  0  0.098196  0  1.008294  0  0.100915  0  0.109843  0.096527  0  1.008932  0
H  H43  1  0.71917328  0.72682149  0.65602131  1  0  0.085309  0  0.941719  0  0  0.09735  0  1.008334  0  0  0.098278  0  1.008025  0  0.119419  0  0.109655  0.096589  0  1.008644  0
H  H44  1  0.00780355  0.72688439  0.15602364  1  0  0.085128  0  0.942509  0  0  0.097301  0  1.008631  0  0  0.098207  0  1.008317  0  0.100914  0  0.109843  0.096539  0  1.008953  0
H  H45  1  0.28082666  0.27317772  0.34397756  1  0  0.085357  0  0.941732  0  0  0.097438  0  1.008297  0  0  0.098367  0  1.007984  0  0.119401  0  0.109681  0.096677  0  1.008605  0
H  H46  1  0.01861560  0.28596166  0.96249012  1  0  0.07573  0  0.959022  0  0  0.093899  0  1.016404  0  0  0.093827  0  1.017922  0  0.08057  0  0.108858  0.093836  0  1.015482  0
H  H47  1  0.73275120  0.71398806  0.53751253  1  0  0.076027  0  0.958187  0  0  0.094282  0  1.015789  0  0  0.094219  0  1.017352  0  0.085226  0  0.109025  0.094221  0  1.014815  0
H  H48  1  0.98138596  0.71403858  0.03751034  1  0  0.07573  0  0.959026  0  0  0.093905  0  1.016406  0  0  0.093834  0  1.017921  0  0.080583  0  0.108862  0.093842  0  1.015483  0
H  H49  1  0.26724815  0.28601218  0.46248727  1  0  0.076021  0  0.958209  0  0  0.094278  0  1.015807  0  0  0.094213  0  1.017375  0  0.085243  0  0.109018  0.094218  0  1.014833  0
H  H50  1  0.14736785  0.51272374  0.94667720  1  0  0.072482  0  0.940661  0  0  0.09131  0  1.002245  0  0  0.091396  0  1.003755  0  0.04409  0  0.093683  0.091207  0  1.001218  0
H  H51  1  0.63459626  0.48714968  0.55326477  1  0  0.072771  0  0.940375  0  0  0.091391  0  1.001719  0  0  0.091459  0  1.003262  0  0.031786  0  0.093619  0.091272  0  1.000699  0
H  H52  1  0.85263209  0.48727547  0.05332234  1  0  0.072497  0  0.940677  0  0  0.091317  0  1.002271  0  0  0.091406  0  1.003781  0  0.044084  0  0.093673  0.091214  0  1.001244  0
H  H53  1  0.36540257  0.51284953  0.44673411  1  0  0.072768  0  0.940382  0  0  0.091401  0  1.001701  0  0  0.091469  0  1.003243  0  0.031796  0  0.093631  0.091282  0  1.000682  0
H  H54  1  0.95660099  0.49499594  0.89991561  1  0  0.065608  0  0.94148  0  0  0.083675  0  1.005373  0  0  0.083505  0  1.007614  0  0.015543  0  0.089087  0.083696  0  1.003917  0
H  H55  1  0.46165878  0.50499399  0.60008550  1  0  0.065412  0  0.940459  0  0  0.083027  0  1.004766  0  0  0.082869  0  1.007004  0  0.056318  0  0.088962  0.08305  0  1.003312  0
H  H56  1  0.04340058  0.50500430  0.10008419  1  0  0.06559  0  0.941468  0  0  0.083686  0  1.005337  0  0  0.083517  0  1.007578  0  0.015548  0  0.089096  0.083705  0  1.00388  0
H  H57  1  0.53834057  0.49500625  0.39991298  1  0  0.065452  0  0.940472  0  0  0.083084  0  1.00473  0  0  0.082923  0  1.00697  0  0.056521  0  0.088984  0.083107  0  1.003275  0
C  C58  1  0.19079261  0.17159494  0.69321717  1  0  0.610274  0  3.970473  0  0  0.565046  0  4.254841  0  0  0.599486  0  4.248836  0  1.512327  0  0.182091  0.541755  0  4.258057  0
C  C59  1  0.01921545  0.82845583  0.80674407  1  0  0.610345  0  3.970201  0  0  0.565389  0  4.254602  0  0  0.599884  0  4.248556  0  1.52533  0  0.182737  0.542079  0  4.257868  0
C  C60  1  0.80920401  0.82840427  0.30678369  1  0  0.610188  0  3.970465  0  0  0.564952  0  4.25483  0  0  0.599391  0  4.248829  0  1.512329  0  0.18208  0.541661  0  4.258044  0
C  C61  1  0.98078330  0.17154544  0.19325600  1  0  0.610456  0  3.970112  0  0  0.565489  0  4.254506  0  0  0.59998  0  4.248458  0  1.525204  0  0.182765  0.542179  0  4.257773  0
C  C62  1  0.13855779  0.25797804  0.65709309  1  0  -0.074146  0  3.792407  0  0  -0.050098  0  4.026035  0  0  -0.058685  0  4.04952  0  -0.023809  0  -0.0259  -0.04461  0  4.010186  0
C  C63  1  0.88061076  0.74198509  0.84285084  1  0  -0.074588  0  3.791377  0  0  -0.051715  0  4.026576  0  0  -0.06039  0  4.050145  0  -0.014299  0  -0.026584  -0.0462  0  4.010791  0
C  C64  1  0.86143720  0.74202014  0.34290684  1  0  -0.074162  0  3.792323  0  0  -0.050066  0  4.025892  0  0  -0.058655  0  4.049377  0  -0.02367  0  -0.025899  -0.044579  0  4.010043  0
C  C65  1  0.11939022  0.25801619  0.15714923  1  0  -0.074674  0  3.791511  0  0  -0.051748  0  4.02665  0  0  -0.060409  0  4.050201  0  -0.014036  0  -0.026582  -0.046232  0  4.010864  0
C  C66  1  0.05793904  0.20418836  0.56320830  1  0  -0.074531  0  3.755212  0  0  -0.098894  0  4.003867  0  0  -0.097683  0  4.021956  0  -0.024188  0  -0.087139  -0.099537  0  3.991451  0
C  C67  1  0.85376449  0.79572630  0.93673636  1  0  -0.073593  0  3.75551  0  0  -0.097863  0  4.00413  0  0  -0.096664  0  4.022287  0  -0.072536  0  -0.086441  -0.098422  0  3.991946  0
C  C68  1  0.94205647  0.79581085  0.43679123  1  0  -0.074197  0  3.755104  0  0  -0.098556  0  4.003711  0  0  -0.097347  0  4.021802  0  -0.024572  0  -0.086988  -0.0992  0  3.991295  0
C  C69  1  0.14623323  0.20427291  0.06326317  1  0  -0.073585  0  3.75563  0  0  -0.097892  0  4.004219  0  0  -0.096698  0  4.022372  0  -0.072813  0  -0.086426  -0.098455  0  3.992029  0
C  C70  1  0.01368369  0.28463264  0.52749807  1  0  -0.112312  0  3.708456  0  0  -0.126513  0  3.947756  0  0  -0.130036  0  3.967575  0  -0.091918  0  -0.08501  -0.124079  0  3.934312  0
C  C71  1  0.72914103  0.71526037  0.97245688  1  0  -0.11253  0  3.708262  0  0  -0.126916  0  3.947504  0  0  -0.13045  0  3.967338  0  -0.037515  0  -0.085494  -0.12467  0  3.934133  0
C  C72  1  0.98631617  0.71536863  0.47250134  1  0  -0.112541  0  3.708623  0  0  -0.12675  0  3.947928  0  0  -0.130274  0  3.967748  0  -0.091845  0  -0.085105  -0.124316  0  3.934484  0
C  C73  1  0.27085781  0.28473884  0.02754265  1  0  -0.112469  0  3.708225  0  0  -0.126856  0  3.947506  0  0  -0.130389  0  3.967342  0  -0.037579  0  -0.085489  -0.124611  0  3.934139  0
C  C74  1  0.05194390  0.42334958  0.58410488  1  0  0.098987  0  3.825631  0  0  0.11724  0  4.05371  0  0  0.119594  0  4.077463  0  -0.01973  0  -0.009731  0.115663  0  4.037457  0
C  C75  1  0.62855488  0.57656818  0.91583264  1  0  0.097257  0  3.824942  0  0  0.116165  0  4.052085  0  0  0.118528  0  4.075868  0  -0.006188  0  -0.010141  0.114711  0  4.035888  0
C  C76  1  0.94805759  0.57665272  0.41589479  1  0  0.099086  0  3.825642  0  0  0.11735  0  4.053716  0  0  0.119705  0  4.077465  0  -0.019222  0  -0.009693  0.115772  0  4.037464  0
C  C77  1  0.37144573  0.42342794  0.08416675  1  0  0.097218  0  3.824957  0  0  0.116083  0  4.052145  0  0  0.118444  0  4.075928  0  -0.006142  0  -0.01015  0.114629  0  4.035948  0
C  C78  1  0.12710124  0.47509262  0.67960361  1  0  -0.131109  0  3.744727  0  0  -0.147241  0  3.990601  0  0  -0.151673  0  4.011615  0  -0.064751  0  -0.094196  -0.144348  0  3.976331  0
C  C79  1  0.65194947  0.52485297  0.82030868  1  0  -0.131535  0  3.742594  0  0  -0.147487  0  3.988372  0  0  -0.151949  0  4.009381  0  -0.023155  0  -0.094214  -0.14452  0  3.974066  0
C  C80  1  0.87289811  0.52490762  0.32039553  1  0  -0.13118  0  3.744716  0  0  -0.147322  0  3.990608  0  0  -0.151755  0  4.011622  0  -0.064935  0  -0.094203  -0.144427  0  3.976336  0
C  C81  1  0.34805107  0.47514521  0.17969058  1  0  -0.131436  0  3.74257  0  0  -0.147382  0  3.988361  0  0  -0.151844  0  4.009372  0  -0.022948  0  -0.094179  -0.144416  0  3.974051  0
C  C82  1  0.17016781  0.39379155  0.71564321  1  0  -0.086973  0  3.782273  0  0  -0.112052  0  4.034537  0  0  -0.111131  0  4.054555  0  -0.050142  0  -0.092057  -0.112329  0  4.020855  0
C  C83  1  0.77637341  0.60616126  0.78429541  1  0  -0.086355  0  3.78021  0  0  -0.110911  0  4.032522  0  0  -0.109876  0  4.052595  0  -0.141446  0  -0.09164  -0.111247  0  4.018888  0
C  C84  1  0.82982881  0.60620766  0.28435632  1  0  -0.086995  0  3.782268  0  0  -0.112098  0  4.034539  0  0  -0.111176  0  4.054556  0  -0.050158  0  -0.09206  -0.112377  0  4.020856  0
C  C85  1  0.22362654  0.39383795  0.21570346  1  0  -0.086284  0  3.780306  0  0  -0.110852  0  4.032596  0  0  -0.10982  0  4.052661  0  -0.141648  0  -0.091604  -0.11118  0  4.018964  0
C  C86  1  0.02108814  0.51471160  0.54681741  1  0  -0.116247  0  3.736046  0  0  -0.137372  0  3.989605  0  0  -0.139861  0  4.009723  0  -0.021566  0  -0.093546  -0.135236  0  3.975415  0
C  C87  1  0.50628512  0.48527420  0.95316411  1  0  -0.115552  0  3.734798  0  0  -0.1369  0  3.987647  0  0  -0.13946  0  4.007865  0  -0.04592  0  -0.09358  -0.135121  0  3.9739  0
C  C88  1  0.97891224  0.48529070  0.45318226  1  0  -0.116266  0  3.736066  0  0  -0.137408  0  3.989644  0  0  -0.139897  0  4.009762  0  -0.125888  0  -0.093621  -0.135274  0  3.975453  0
C  C89  1  0.49371490  0.51472294  0.04683555  1  0  -0.115484  0  3.734797  0  0  -0.136796  0  3.987657  0  0  -0.139351  0  4.007874  0  -0.136246  0  -0.093499  -0.135018  0  3.97391  0
C  C90  1  0.66556177  0.19187870  0.83244280  1  0  0.36409  0  3.692981  0  0  0.340045  0  3.960767  0  0  0.355846  0  3.976317  0  0.975842  0  0.214013  0.329666  0  3.949864  0
C  C91  1  0.47363224  0.80792873  0.66751786  1  0  0.364017  0  3.690976  0  0  0.339148  0  3.959968  0  0  0.354951  0  3.975535  0  0.991225  0  0.213631  0.32866  0  3.94914  0
C  C92  1  0.33443869  0.80812154  0.16755766  1  0  0.36402  0  3.692957  0  0  0.339966  0  3.960754  0  0  0.355767  0  3.976302  0  0.975851  0  0.214001  0.329587  0  3.949851  0
C  C93  1  0.52637036  0.19207357  0.33248247  1  0  0.364144  0  3.690919  0  0  0.339299  0  3.959916  0  0  0.355103  0  3.975483  0  0.991271  0  0.213753  0.328811  0  3.949087  0
C  C94  1  0.54057157  0.13370090  0.94539068  1  0  -0.0035  0  3.794057  0  0  -0.040899  0  4.069413  0  0  -0.038939  0  4.091004  0  0.458458  0  -0.009887  -0.042224  0  4.054826  0
C  C95  1  0.40694608  0.86620964  0.55460385  1  0  -0.003102  0  3.797681  0  0  -0.040515  0  4.072803  0  0  -0.038538  0  4.094426  0  0.42535  0  -0.009819  -0.041795  0  4.058176  0
C  C96  1  0.45942778  0.86629934  0.05460978  1  0  -0.003582  0  3.794178  0  0  -0.040982  0  4.069518  0  0  -0.039023  0  4.09111  0  0.458458  0  -0.009887  -0.042308  0  4.054931  0
C  C97  1  0.59305489  0.13379163  0.44539622  1  0  -0.003115  0  3.797691  0  0  -0.040526  0  4.072823  0  0  -0.038545  0  4.094446  0  0.425365  0  -0.009818  -0.041804  0  4.058193  0
C  C98  1  0.70476912  0.19987137  0.98013147  1  0  -0.071307  0  3.699086  0  0  -0.11335  0  3.962151  0  0  -0.111641  0  3.980273  0  0.238399  0  -0.004763  -0.114486  0  3.950126  0
C  C99  1  0.50504467  0.80011443  0.51989172  1  0  -0.070831  0  3.701265  0  0  -0.112881  0  3.96438  0  0  -0.11111  0  3.982442  0  0.255309  0  -0.003797  -0.113969  0  3.952258  0
C  C100  1  0.29523074  0.80012990  0.01986859  1  0  -0.071336  0  3.699071  0  0  -0.113365  0  3.962137  0  0  -0.111656  0  3.980261  0  0.238395  0  -0.004753  -0.114501  0  3.950112  0
C  C101  1  0.49495630  0.19988684  0.48010834  1  0  -0.070834  0  3.701268  0  0  -0.112844  0  3.96437  0  0  -0.111073  0  3.982432  0  0.255286  0  -0.003783  -0.113931  0  3.952248  0
C  C102  1  0.70064206  0.20500908  0.73931699  1  0  -0.385778  0  3.720012  0  0  -0.467657  0  3.960212  0  0  -0.471549  0  3.966813  0  -0.039019  0  -0.228594  -0.464785  0  3.955548  0
C  C103  1  0.49560031  0.79479939  0.76064460  1  0  -0.386324  0  3.718027  0  0  -0.468089  0  3.959164  0  0  -0.471967  0  3.965702  0  -0.089371  0  -0.228397  -0.465157  0  3.954439  0
C  C104  1  0.29935736  0.79498910  0.26068360  1  0  -0.385726  0  3.719961  0  0  -0.467606  0  3.960159  0  0  -0.471492  0  3.96676  0  -0.039005  0  -0.228603  -0.464733  0  3.955493  0
C  C105  1  0.50440177  0.20520188  0.23935612  1  0  -0.386362  0  3.717982  0  0  -0.468074  0  3.959109  0  0  -0.471952  0  3.965648  0  -0.089618  0  -0.228361  -0.465142  0  3.954385  0
C  C106  1  0.95814827  0.31224405  0.91415490  1  0  0.00094  0  3.620522  0  0  -0.056114  0  3.870195  0  0  -0.051642  0  3.880804  0  0.291805  0  -0.055003  -0.058973  0  3.862966  0
C  C107  1  0.64601397  0.68769123  0.58584336  1  0  0.001116  0  3.617773  0  0  -0.05712  0  3.869418  0  0  -0.052762  0  3.880158  0  0.262792  0  -0.05512  -0.059922  0  3.862076  0
C  C108  1  0.04185219  0.68775619  0.08584556  1  0  0.000923  0  3.620493  0  0  -0.056165  0  3.870216  0  0  -0.05169  0  3.880829  0  0.291763  0  -0.055022  -0.059024  0  3.862986  0
C  C109  1  0.35398648  0.31230901  0.41415644  1  0  0.001059  0  3.617858  0  0  -0.057201  0  3.869516  0  0  -0.052843  0  3.880253  0  0.262722  0  -0.055152  -0.060003  0  3.862175  0
C  C110  1  0.01539789  0.46847846  0.94946014  1  0  -0.125148  0  3.681189  0  0  -0.169531  0  3.948081  0  0  -0.170831  0  3.961989  0  -0.029798  0  -0.164687  -0.168486  0  3.938419  0
C  C111  1  0.54695475  0.53147641  0.55052465  1  0  -0.125591  0  3.681778  0  0  -0.168667  0  3.947243  0  0  -0.169939  0  3.96122  0  -0.03962  0  -0.164512  -0.167641  0  3.937556  0
C  C112  1  0.98460086  0.53152281  0.05054058  1  0  -0.125102  0  3.681159  0  0  -0.169492  0  3.948052  0  0  -0.170801  0  3.961967  0  -0.007064  0  -0.164602  -0.168447  0  3.938393  0
C  C113  1  0.45304511  0.46852486  0.44947409  1  0  -0.12575  0  3.681861  0  0  -0.168802  0  3.947275  0  0  -0.170071  0  3.961254  0  -0.062992  0  -0.164566  -0.167776  0  3.937588  0
N  N114  1  0.78216900  0.23636319  0.90831456  1  0  -0.107617  0  3.520045  0  0  -0.015377  0  3.732163  0  0  -0.030455  0  3.756647  0  -1.232487  0  -0.242398  -0.005452  0  3.715483  0
N  N115  1  0.54589899  0.76357107  0.59168741  1  0  -0.107446  0  3.516368  0  0  -0.014716  0  3.729158  0  0  -0.029754  0  3.753632  0  -1.22045  0  -0.242413  -0.004777  0  3.712489  0
N  N116  1  0.21783197  0.76363808  0.09168617  1  0  -0.107538  0  3.519949  0  0  -0.015289  0  3.73207  0  0  -0.030368  0  3.756556  0  -1.232449  0  -0.242391  -0.005364  0  3.715389  0
N  N117  1  0.45410361  0.23643124  0.40831292  1  0  -0.107441  0  3.516346  0  0  -0.014783  0  3.729229  0  0  -0.02982  0  3.753703  0  -1.220507  0  -0.242476  -0.004844  0  3.712562  0
N  N118  1  0.51788853  0.12953238  0.85380323  1  0  -0.454  0  3.234758  0  0  -0.382198  0  3.51675  0  0  -0.40568  0  3.534866  0  -1.214214  0  -0.364689  -0.366151  0  3.504042  0
N  N119  1  0.38830209  0.87026990  0.64616073  1  0  -0.453551  0  3.232842  0  0  -0.381177  0  3.514891  0  0  -0.404651  0  3.53298  0  -1.229321  0  -0.364239  -0.365255  0  3.502188  0
N  N120  1  0.48211252  0.87046683  0.14619696  1  0  -0.453962  0  3.234679  0  0  -0.382154  0  3.516665  0  0  -0.405637  0  3.534783  0  -1.214227  0  -0.364702  -0.366107  0  3.503956  0
N  N121  1  0.61170110  0.12973137  0.35384000  1  0  -0.453605  0  3.232793  0  0  -0.381273  0  3.514884  0  0  -0.404746  0  3.532969  0  -1.229333  0  -0.364295  -0.365351  0  3.502182  0
O  O122  1  0.21301753  0.20010336  0.78276423  1  0  -0.639585  0  1.95394  0  0  -0.581922  0  2.191823  0  0  -0.608859  0  2.181554  0  -1.154002  0  -0.332251  -0.563238  0  2.198268  0
O  O123  1  0.01298830  0.79984327  0.71718338  1  0  -0.639589  0  1.954118  0  0  -0.581812  0  2.191769  0  0  -0.608731  0  2.181453  0  -1.153944  0  -0.332511  -0.563016  0  2.198048  0
O  O124  1  0.78698130  0.79989585  0.21723596  1  0  -0.639612  0  1.953979  0  0  -0.581943  0  2.191847  0  0  -0.608879  0  2.181576  0  -1.153977  0  -0.332283  -0.56326  0  2.19829  0
O  O125  1  0.98701386  0.20015594  0.28281682  1  0  -0.639639  0  1.954118  0  0  -0.581877  0  2.191783  0  0  -0.608795  0  2.181466  0  -1.153828  0  -0.332537  -0.563081  0  2.198063  0
O  O126  1  0.21235157  0.07135354  0.63218748  1  0  -0.642074  0  1.937785  0  0  -0.578904  0  2.174769  0  0  -0.607512  0  2.164977  0  -1.160253  0  -0.338912  -0.558963  0  2.180673  0
O  O127  1  0.14091848  0.92878486  0.86777188  1  0  -0.642358  0  1.938487  0  0  -0.579001  0  2.174932  0  0  -0.607612  0  2.16517  0  -1.169882  0  -0.339311  -0.558886  0  2.180758  0
O  O128  1  0.78764393  0.92864567  0.36781337  1  0  -0.642  0  1.937727  0  0  -0.578844  0  2.174721  0  0  -0.60745  0  2.16493  0  -1.160289  0  -0.338872  -0.558902  0  2.180624  0
O  O129  1  0.85907909  0.07121848  0.13222872  1  0  -0.642377  0  1.938403  0  0  -0.579032  0  2.174858  0  0  -0.607642  0  2.165098  0  -1.169871  0  -0.339306  -0.558917  0  2.180682  0
