# generated using pymatgen
data_KCoH3(CO2)3
_symmetry_space_group_name_H-M   'P 1'
_cell_length_a   7.02637477
_cell_length_b   7.02964969
_cell_length_c   8.49902970
_cell_angle_alpha   89.99991314
_cell_angle_beta   90.09721968
_cell_angle_gamma   120.01615305
_symmetry_Int_Tables_number   1
_chemical_formula_structural   KCoH3(CO2)3
_chemical_formula_sum   'K2 Co2 H6 C6 O12'
_cell_volume   363.49080263
_cell_formula_units_Z   2
loop_
 _symmetry_equiv_pos_site_id
 _symmetry_equiv_pos_as_xyz
  1  'x, y, z'
loop_
 _atom_site_type_symbol
 _atom_site_label
 _atom_site_symmetry_multiplicity
 _atom_site_fract_x
 _atom_site_fract_y
 _atom_site_fract_z
 _atom_site_occupancy
 _atom_site_hle17_ddec_charge
 _atom_site_hle17_ddec_spin_density
 _atom_site_hle17_ddec_sum_bond_order
 _atom_site_hle17_magmom
 _atom_site_hse06_10hf_bader_charge
 _atom_site_hse06_10hf_bader_spin_density
 _atom_site_hse06_10hf_ddec_charge
 _atom_site_hse06_10hf_ddec_spin_density
 _atom_site_hse06_10hf_ddec_sum_bond_order
 _atom_site_hse06_10hf_magmom
 _atom_site_hse06_ddec_charge
 _atom_site_hse06_ddec_spin_density
 _atom_site_hse06_ddec_sum_bond_order
 _atom_site_hse06_magmom
 _atom_site_pbe_cm5_charge
 _atom_site_pbe_ddec_charge
 _atom_site_pbe_ddec_spin_density
 _atom_site_pbe_ddec_sum_bond_order
 _atom_site_pbe_magmom
K  K0  1  0.99955210  0.99932434  0.25016164  1  0.936416  4.1e-05  0.411368  0.0  0.895948  -0.000858  0.881629  7.1e-05  0.583107  0.0  0.899736  0.000347  0.558388  0.0  0.72013  0.867742  -0.000258  0.601138  -0.001
K  K1  1  0.00046291  0.99978763  0.74986455  1  0.936425  4.5e-05  0.411336  0.0  0.895955  -0.000858  0.881576  7.2e-05  0.583167  0.0  0.899697  0.000347  0.558432  0.0  0.720072  0.867684  -0.000255  0.601197  -0.001
Co  Co2  1  0.66637068  0.33306147  0.25008063  1  1.078887  -2.851116  1.870684  -2.617  1.37548  -2.705507  1.061265  -2.858748  2.256603  -2.688  1.13197  -2.8912  2.193821  -2.752  0.645441  1.004331  -2.828957  2.303435  -2.628
Co  Co3  1  0.33362704  0.66669812  0.74991433  1  1.078953  -2.851123  1.870512  -2.617  1.375506  -2.705526  1.061363  -2.858758  2.25643  -2.688  1.132068  -2.891207  2.193641  -2.752  0.645454  1.004463  -2.829257  2.303256  -2.628
H  H4  1  0.59751703  0.99876235  0.00162007  1  0.019774  0.000361  0.963138  -0.001  0.09797  -0.000437  0.026339  0.00049  1.034082  0.0  0.027917  0.000554  1.028041  0.0  0.119995  0.024966  0.000412  1.03882  -0.001
H  H5  1  0.00002599  0.59776300  0.00002439  1  0.0184  0.000371  0.96178  -0.001  0.099446  -0.000423  0.025051  0.000495  1.032915  0.0  0.026599  0.000556  1.026897  0.0  0.119412  0.023702  0.00042  1.037608  -0.001
H  H6  1  0.40247546  0.40124313  0.99839584  1  0.019838  0.000358  0.963205  -0.001  0.100194  -0.000433  0.026352  0.00049  1.03417  0.0  0.027928  0.000553  1.028133  0.0  0.119994  0.024979  0.000411  1.038908  -0.001
H  H7  1  0.40408548  0.00289852  0.50091428  1  0.019841  0.000361  0.963343  -0.001  0.104238  -0.000434  0.026416  0.000491  1.034234  0.0  0.027979  0.000554  1.028234  0.0  0.119811  0.025037  0.000412  1.038966  -0.001
H  H8  1  0.99999994  0.40184879  0.49998975  1  0.019819  0.000358  0.963648  -0.001  0.098732  -0.000444  0.026395  0.000486  1.034528  0.0  0.027899  0.000549  1.028622  0.0  0.120067  0.025066  0.00041  1.039198  -0.001
H  H9  1  0.59592351  0.59882557  0.49908327  1  0.019877  0.000362  0.963226  -0.001  0.106191  -0.000431  0.026459  0.000491  1.034105  0.0  0.028024  0.000554  1.028102  0.0  0.11981  0.025082  0.000412  1.038837  -0.001
C  C10  1  0.44104779  0.99983913  0.00046340  1  0.584086  0.015644  3.875025  0.011  1.580859  0.002869  0.521325  0.003771  4.182803  0.002  0.557329  0.002862  4.174312  0.001  0.150135  0.495102  0.006203  4.188123  0.004
C  C11  1  0.00000459  0.44071645  0.00000682  1  0.583727  0.015431  3.875667  0.011  1.57505  0.002838  0.521011  0.003735  4.183588  0.002  0.557  0.002835  4.175113  0.001  0.149994  0.494842  0.006117  4.188865  0.004
C  C12  1  0.55893778  0.55877464  0.99954419  1  0.584118  0.015649  3.875137  0.011  1.578352  0.00289  0.521419  0.003772  4.182838  0.002  0.557419  0.002866  4.174345  0.001  0.150208  0.495202  0.006201  4.188163  0.004
C  C13  1  0.56020094  0.00101922  0.50027992  1  0.582672  0.015548  3.87649  0.011  1.572325  0.002893  0.519846  0.003786  4.184553  0.002  0.555832  0.00288  4.17607  0.001  0.149983  0.493666  0.006184  4.18985  0.004
C  C14  1  0.99999847  0.55876736  0.49998613  1  0.583458  0.015716  3.87628  0.011  1.585541  0.002875  0.520746  0.003781  4.183764  0.002  0.556765  0.002869  4.175328  0.001  0.150609  0.494489  0.006248  4.189026  0.004
C  C15  1  0.43980614  0.44082788  0.49971184  1  0.582544  0.015549  3.87637  0.011  1.56426  0.002911  0.519724  0.003789  4.184422  0.002  0.555711  0.002882  4.175936  0.001  0.149956  0.493543  0.006185  4.189717  0.004
O  O16  1  0.40529998  0.10041717  0.11065858  1  -0.637387  -0.032946  2.137291  -0.06  -1.215323  -0.050331  -0.597224  -0.025766  2.410865  -0.043  -0.630871  -0.019971  2.398479  -0.034  -0.361918  -0.571566  -0.031833  2.418553  -0.053
O  O17  1  0.90043011  0.30561567  0.11097554  1  -0.637452  -0.032614  2.133938  -0.06  -1.218108  -0.049879  -0.597368  -0.02554  2.407094  -0.043  -0.630902  -0.019771  2.394681  -0.034  -0.362151  -0.571842  -0.031579  2.414834  -0.052
O  O18  1  0.69357927  0.59412808  0.11109889  1  -0.637733  -0.032806  2.136135  -0.06  -1.219054  -0.050227  -0.597578  -0.025729  2.409471  -0.043  -0.63113  -0.019942  2.397018  -0.034  -0.363027  -0.572019  -0.031797  2.41727  -0.053
O  O19  1  0.59525618  0.90026922  0.61077073  1  -0.637604  -0.03259  2.136328  -0.06  -1.21489  -0.0499  -0.597451  -0.025551  2.409732  -0.043  -0.630964  -0.019788  2.397298  -0.034  -0.363242  -0.571926  -0.031576  2.417493  -0.052
O  O20  1  0.10091511  0.69481157  0.61044020  1  -0.636926  -0.032995  2.137629  -0.06  -1.223098  -0.050424  -0.596715  -0.025819  2.411139  -0.043  -0.630372  -0.020019  2.398732  -0.034  -0.362474  -0.571066  -0.031894  2.418855  -0.053
O  O21  1  0.30498723  0.40491706  0.61097380  1  -0.637179  -0.032829  2.135745  -0.06  -1.211731  -0.050205  -0.596987  -0.025701  2.409219  -0.043  -0.630563  -0.019908  2.396804  -0.034  -0.36259  -0.571396  -0.031764  2.416921  -0.053
O  O22  1  0.09955192  0.40519176  0.88900899  1  -0.637535  -0.032618  2.133786  -0.06  -1.214529  -0.049926  -0.59744  -0.025543  2.406941  -0.043  -0.630978  -0.019773  2.394524  -0.034  -0.362214  -0.571914  -0.031576  2.414682  -0.052
O  O23  1  0.30641673  0.90055102  0.88889345  1  -0.637808  -0.032807  2.136076  -0.06  -1.220386  -0.050186  -0.597637  -0.025726  2.409472  -0.043  -0.631194  -0.01994  2.397018  -0.034  -0.363045  -0.572079  -0.031791  2.417259  -0.053
O  O24  1  0.59468234  0.69510642  0.88935179  1  -0.637549  -0.03295  2.137179  -0.06  -1.216142  -0.050325  -0.597386  -0.025768  2.410709  -0.043  -0.631034  -0.019974  2.398318  -0.034  -0.361962  -0.571732  -0.031829  2.418398  -0.053
O  O25  1  0.89909603  0.59389957  0.38953696  1  -0.636912  -0.03299  2.137935  -0.06  -1.217556  -0.05046  -0.596713  -0.025822  2.411471  -0.043  -0.630365  -0.020022  2.399061  -0.034  -0.362529  -0.571064  -0.031898  2.419193  -0.053
O  O26  1  0.69501042  0.09991629  0.38902144  1  -0.637192  -0.032823  2.13581  -0.06  -1.219045  -0.050191  -0.59699  -0.025703  2.409272  -0.043  -0.630563  -0.01991  2.396859  -0.034  -0.36264  -0.571404  -0.031769  2.416989  -0.053
O  O27  1  0.40475174  0.30502045  0.38922531  1  -0.637559  -0.032587  2.136419  -0.06  -1.21618  -0.049872  -0.597426  -0.025548  2.409825  -0.043  -0.630938  -0.019785  2.397398  -0.034  -0.363279  -0.571891  -0.031583  2.417583  -0.052
