# generated using pymatgen
data_FeH2C4O5
_symmetry_space_group_name_H-M   'P 1'
_cell_length_a   6.84521218
_cell_length_b   15.12184556
_cell_length_c   15.12168899
_cell_angle_alpha   117.75910796
_cell_angle_beta   98.68022076
_cell_angle_gamma   98.67824466
_symmetry_Int_Tables_number   1
_chemical_formula_structural   FeH2C4O5
_chemical_formula_sum   'Fe6 H12 C24 O30'
_cell_volume   1324.78268542
_cell_formula_units_Z   6
loop_
 _symmetry_equiv_pos_site_id
 _symmetry_equiv_pos_as_xyz
  1  'x, y, z'
loop_
 _atom_site_type_symbol
 _atom_site_label
 _atom_site_symmetry_multiplicity
 _atom_site_fract_x
 _atom_site_fract_y
 _atom_site_fract_z
 _atom_site_occupancy
 _atom_site_pbe_bader_charge
 _atom_site_pbe_bader_spin_density
 _atom_site_pbe_cm5_charge
 _atom_site_pbe_ddec_charge
 _atom_site_pbe_ddec_spin_density
 _atom_site_pbe_ddec_sum_bond_order
 _atom_site_pbe_magmom
Fe  Fe0  1  0.46283026  0.25742748  0.56761801  1  1.635779  3.920279  0.82813  1.198801  4.470082  2.646392  3.882
Fe  Fe1  1  0.20554216  0.31023944  0.74259074  1  1.635849  3.922175  0.828501  1.198953  4.473592  2.646597  3.884
Fe  Fe2  1  0.89526481  0.43237479  0.68980896  1  1.635826  3.920686  0.82807  1.19988  4.470389  2.645664  3.883
Fe  Fe3  1  0.53716992  0.74257382  0.43236509  1  1.635929  3.920225  0.828213  1.198894  4.470039  2.646512  3.882
Fe  Fe4  1  0.79444827  0.68973636  0.25740825  1  1.636095  3.922112  0.828458  1.198881  4.473523  2.646723  3.884
Fe  Fe5  1  0.10475097  0.56764581  0.31021065  1  1.635569  3.920662  0.828108  1.199689  4.470319  2.645912  3.883
H  H6  1  0.18392735  0.55360411  0.53666241  1  0.13982  0.001131  0.115262  0.139766  0.000124  0.99242  0.0
H  H7  1  0.07270072  0.21276879  0.35159801  1  0.573822  0.002764  0.341633  0.347783  0.001648  0.865832  0.003
H  H8  1  0.63025450  0.98303083  0.44638433  1  0.09459  0.001232  0.114884  0.138963  0.000129  0.991848  0.0
H  H9  1  0.85999770  0.13883293  0.78722414  1  0.592823  0.002672  0.341785  0.347663  0.00165  0.865648  0.003
H  H10  1  0.64731042  0.46332344  0.01694667  1  0.119133  0.001164  0.11449  0.138351  0.000124  0.99216  0.0
H  H11  1  0.72115616  0.64836534  0.86114810  1  0.608554  0.002578  0.341569  0.347931  0.001648  0.866067  0.003
H  H12  1  0.81607922  0.44641882  0.46333979  1  0.140326  0.001131  0.115204  0.139633  0.000124  0.992511  0.0
H  H13  1  0.92727580  0.78726495  0.64841248  1  0.574223  0.002766  0.341764  0.347772  0.001648  0.865769  0.003
H  H14  1  0.36973526  0.01694961  0.55359495  1  0.094764  0.001232  0.114911  0.139058  0.000129  0.9916  0.0
H  H15  1  0.13994548  0.86114597  0.21275257  1  0.591974  0.002673  0.341707  0.347557  0.00165  0.865879  0.003
H  H16  1  0.35269900  0.53667554  0.98307102  1  0.118579  0.001165  0.114527  0.138347  0.000124  0.992133  0.0
H  H17  1  0.27880513  0.35162900  0.13887275  1  0.608428  0.002575  0.341672  0.347909  0.001648  0.866191  0.003
C  C18  1  0.27049092  0.43679919  0.61563389  1  1.522958  0.016001  0.240573  0.640798  0.010476  4.073989  0.012
C  C19  1  0.39118996  0.46674630  0.55599477  1  0.043127  0.027609  -0.018933  -0.138204  0.012958  3.961292  0.018
C  C20  1  0.57361367  0.43606146  0.53522588  1  0.565416  0.019303  0.083387  0.311418  0.010265  4.06789  0.012
C  C21  1  0.32252533  0.52960879  0.52019253  1  -0.047845  0.031096  -0.087357  -0.179096  0.015103  3.913645  0.019
C  C22  1  0.83371723  0.17884634  0.56323414  1  1.549981  0.015695  0.241755  0.643872  0.010372  4.073173  0.012
C  C23  1  0.92446556  0.08923418  0.53322884  1  -0.019025  0.027485  -0.019519  -0.140241  0.012788  3.962656  0.018
C  C24  1  0.13754700  0.09916117  0.56390887  1  0.631884  0.018534  0.083743  0.310946  0.010056  4.067964  0.011
C  C25  1  0.79286766  0.99059423  0.47038395  1  -0.005258  0.031048  -0.086864  -0.177741  0.015078  3.914116  0.019
C  C26  1  0.65493088  0.38436353  0.82113932  1  1.524798  0.016049  0.241894  0.642689  0.010503  4.074703  0.012
C  C27  1  0.83527327  0.44396637  0.91074259  1  0.015916  0.028001  -0.020095  -0.141161  0.013115  3.963992  0.018
C  C28  1  0.03841062  0.46476810  0.90084020  1  0.532645  0.019683  0.08446  0.313434  0.010371  4.063952  0.012
C  C29  1  0.80234927  0.47974585  0.00941160  1  0.027739  0.030343  -0.086165  -0.17711  0.014853  3.913804  0.019
C  C30  1  0.72951673  0.56320519  0.38436174  1  1.522716  0.016015  0.240683  0.640902  0.010481  4.073448  0.012
C  C31  1  0.60879612  0.53326813  0.44400936  1  0.042384  0.02763  -0.019162  -0.138684  0.012969  3.96174  0.018
C  C32  1  0.42640652  0.56395915  0.46477419  1  0.56569  0.019296  0.083544  0.311614  0.010261  4.068488  0.012
C  C33  1  0.67748330  0.47040641  0.47980886  1  -0.048091  0.031108  -0.087204  -0.178694  0.015108  3.913491  0.019
C  C34  1  0.16628946  0.82114723  0.43676233  1  1.55001  0.015697  0.241706  0.64396  0.010373  4.073264  0.012
C  C35  1  0.07552769  0.91075321  0.46675921  1  -0.018966  0.02748  -0.019545  -0.140404  0.012787  3.962998  0.018
C  C36  1  0.86244856  0.90083086  0.43607885  1  0.631436  0.01854  0.083878  0.311236  0.010056  4.067945  0.011
C  C37  1  0.20712185  0.00939162  0.52959850  1  -0.005338  0.031048  -0.086769  -0.177606  0.015077  3.913744  0.019
C  C38  1  0.34508077  0.61563699  0.17886602  1  1.52443  0.016059  0.2418  0.642591  0.010508  4.074746  0.012
C  C39  1  0.16471724  0.55603029  0.08926348  1  0.016235  0.028022  -0.020086  -0.141075  0.013126  3.963858  0.018
C  C40  1  0.96160470  0.53523088  0.09917592  1  0.532507  0.01967  0.084495  0.313473  0.010364  4.064411  0.012
C  C41  1  0.19765858  0.52025004  0.99059596  1  0.028091  0.030338  -0.086247  -0.177195  0.014851  3.913819  0.019
O  O42  1  0.32240466  0.37619468  0.64681161  1  -1.153978  0.136777  -0.295438  -0.57054  0.069133  2.492921  0.106
O  O43  1  0.11532670  0.47332211  0.63495635  1  -1.135268  0.138778  -0.298886  -0.520908  0.066611  2.29211  0.104
O  O44  1  0.65176018  0.37512567  0.56608312  1  -1.132502  0.222093  -0.347971  -0.586583  0.111737  2.508818  0.179
O  O45  1  0.09877908  0.22696344  0.42305362  1  -0.549592  0.099067  -0.280515  -0.271968  0.04558  2.105033  0.078
O  O46  1  0.29250902  0.20219359  0.43376673  1  -0.46001  0.384413  -0.279972  -0.371957  0.18515  1.930382  0.323
O  O47  1  0.94625831  0.27061397  0.62383953  1  -1.170565  0.136656  -0.295955  -0.572095  0.069087  2.491992  0.106
O  O48  1  0.64205173  0.16165385  0.52674367  1  -1.140798  0.138696  -0.299823  -0.521679  0.066508  2.291801  0.103
O  O49  1  0.27658293  0.19093427  0.62483472  1  -1.140743  0.22185  -0.348045  -0.585246  0.111622  2.508926  0.179
O  O50  1  0.87194942  0.19610680  0.77304529  1  -0.578696  0.099417  -0.279972  -0.271163  0.045689  2.103339  0.079
O  O51  1  0.09043129  0.23159181  0.79782787  1  -0.449796  0.385062  -0.279967  -0.371799  0.185437  1.92909  0.323
O  O52  1  0.67571307  0.35321330  0.72936878  1  -1.158141  0.13673  -0.295607  -0.571319  0.06902  2.493555  0.106
O  O53  1  0.48047607  0.36506483  0.83831700  1  -1.135816  0.138977  -0.29978  -0.52079  0.066666  2.291692  0.104
O  O54  1  0.08568123  0.43386590  0.80903120  1  -1.127108  0.222324  -0.348941  -0.587553  0.11193  2.50788  0.179
O  O55  1  0.67584109  0.57692924  0.80386479  1  -0.579228  0.09919  -0.280792  -0.272618  0.045482  2.10271  0.078
O  O56  1  0.85890281  0.56625617  0.76842245  1  -0.46577  0.384447  -0.279682  -0.371726  0.185087  1.927299  0.323
O  O57  1  0.67759275  0.62379812  0.35316734  1  -1.154082  0.136802  -0.295583  -0.570634  0.069145  2.493024  0.106
O  O58  1  0.88469620  0.52668614  0.36505468  1  -1.135232  0.138782  -0.298865  -0.520875  0.066613  2.291867  0.104
O  O59  1  0.34825707  0.62489494  0.43392601  1  -1.132022  0.222047  -0.348103  -0.586528  0.11173  2.509135  0.179
O  O60  1  0.90120551  0.77303322  0.57694477  1  -0.549861  0.099079  -0.280571  -0.271882  0.045587  2.104863  0.078
O  O61  1  0.70748107  0.79780231  0.56621382  1  -0.460315  0.384413  -0.280018  -0.372011  0.185145  1.930375  0.323
O  O62  1  0.05375013  0.72937420  0.37617174  1  -1.17077  0.136661  -0.295859  -0.572099  0.069096  2.492046  0.106
O  O63  1  0.35795546  0.83834668  0.47324351  1  -1.140833  0.138686  -0.299799  -0.521647  0.066505  2.291861  0.103
O  O64  1  0.72341288  0.80905236  0.37514918  1  -1.140735  0.221896  -0.348158  -0.585407  0.111642  2.508949  0.179
O  O65  1  0.12804623  0.80388832  0.22695578  1  -0.57776  0.099445  -0.279863  -0.270991  0.045705  2.10345  0.079
O  O66  1  0.90957181  0.76838863  0.20218406  1  -0.449976  0.385064  -0.279964  -0.371813  0.185437  1.929032  0.323
O  O67  1  0.32430482  0.64680267  0.27063955  1  -1.158108  0.136733  -0.295616  -0.571319  0.069021  2.493733  0.106
O  O68  1  0.51953299  0.63491870  0.16167760  1  -1.135634  0.138983  -0.299689  -0.520701  0.066669  2.291817  0.104
O  O69  1  0.91432984  0.56612458  0.19097471  1  -1.127329  0.222298  -0.348866  -0.5875  0.111913  2.508285  0.179
O  O70  1  0.32414659  0.42307361  0.19613404  1  -0.579294  0.099215  -0.28087  -0.272655  0.045494  2.102839  0.078
O  O71  1  0.14111233  0.43376907  0.23159663  1  -0.465562  0.384442  -0.279689  -0.371548  0.185082  1.927246  0.323
