# generated using pymatgen
data_AgH6C7N3
_symmetry_space_group_name_H-M   'P 1'
_cell_length_a   9.13934585
_cell_length_b   12.40613286
_cell_length_c   12.56206263
_cell_angle_alpha   90.00003668
_cell_angle_beta   90.00006969
_cell_angle_gamma   89.99997282
_symmetry_Int_Tables_number   1
_chemical_formula_structural   AgH6C7N3
_chemical_formula_sum   'Ag8 H48 C56 N24'
_cell_volume   1424.33614257
_cell_formula_units_Z   8
loop_
 _symmetry_equiv_pos_site_id
 _symmetry_equiv_pos_as_xyz
  1  'x, y, z'
loop_
 _atom_site_type_symbol
 _atom_site_label
 _atom_site_symmetry_multiplicity
 _atom_site_fract_x
 _atom_site_fract_y
 _atom_site_fract_z
 _atom_site_occupancy
 _atom_site_pbe_bader_spin_density
 _atom_site_pbe_cm5_charge
 _atom_site_pbe_ddec_charge
 _atom_site_pbe_ddec_spin_density
 _atom_site_pbe_ddec_sum_bond_order
 _atom_site_pbe_magmom
Ag  Ag0  1  0.76360862  0.16654024  0.49325458  1  0  0.472977  0.332211  0  1.951644  0
Ag  Ag1  1  0.26360832  0.83346032  0.00674609  1  0  0.472973  0.332223  0  1.951649  0
Ag  Ag2  1  0.23639291  0.33346036  0.99325429  1  0  0.472956  0.332198  0  1.95167  0
Ag  Ag3  1  0.73639099  0.66654053  0.50674534  1  0  0.472971  0.332241  0  1.951649  0
Ag  Ag4  1  0.23639235  0.83345968  0.50674518  1  0  0.472964  0.332204  0  1.951659  0
Ag  Ag5  1  0.73639265  0.16654040  0.99325526  1  0  0.472969  0.332208  0  1.951662  0
Ag  Ag6  1  0.76360805  0.66654037  0.00674546  1  0  0.472972  0.332207  0  1.951657  0
Ag  Ag7  1  0.26360779  0.33346019  0.49325441  1  0  0.472966  0.332199  0  1.951639  0
H  H8  1  0.98757185  0.63391786  0.33798813  1  0  0.091064  0.093189  0  1.03775  0
H  H9  1  0.48757321  0.36608181  0.16201194  1  0  0.091071  0.093196  0  1.037735  0
H  H10  1  0.01242801  0.86608240  0.83798766  1  0  0.091075  0.093211  0  1.037735  0
H  H11  1  0.51242668  0.13391857  0.66201257  1  0  0.091065  0.0932  0  1.037736  0
H  H12  1  0.01242693  0.36608206  0.66201242  1  0  0.091062  0.093186  0  1.037758  0
H  H13  1  0.51242776  0.63391811  0.83798781  1  0  0.09107  0.093209  0  1.03774  0
H  H14  1  0.98757296  0.13391832  0.16201209  1  0  0.091069  0.093197  0  1.037732  0
H  H15  1  0.48757319  0.86608216  0.33798718  1  0  0.091069  0.093189  0  1.037753  0
H  H16  1  0.17661441  0.54157493  0.22665172  1  0  0.090816  0.097271  0  1.048899  0
H  H17  1  0.67661525  0.45842566  0.27334887  1  0  0.090807  0.097265  0  1.048915  0
H  H18  1  0.82338527  0.95842526  0.72665124  1  0  0.090814  0.097258  0  1.048919  0
H  H19  1  0.32338483  0.04157560  0.77334927  1  0  0.090808  0.097264  0  1.048913  0
H  H20  1  0.82338547  0.45842499  0.77334803  1  0  0.090814  0.097259  0  1.048922  0
H  H21  1  0.32338572  0.54157426  0.72665089  1  0  0.090811  0.097259  0  1.04893  0
H  H22  1  0.17661461  0.04157466  0.27334851  1  0  0.090815  0.097281  0  1.048914  0
H  H23  1  0.67661505  0.95842593  0.22665208  1  0  0.090811  0.097253  0  1.048937  0
H  H24  1  0.19313753  0.34306988  0.22104112  1  0  0.081884  0.074037  0  1.066698  0
H  H25  1  0.69313825  0.65692909  0.27895868  1  0  0.081875  0.074016  0  1.06671  0
H  H26  1  0.80686027  0.15692893  0.72104282  1  0  0.081864  0.07401  0  1.066727  0
H  H27  1  0.30686151  0.84307113  0.77895847  1  0  0.081866  0.074021  0  1.066717  0
H  H28  1  0.80686234  0.65692924  0.77895863  1  0  0.081876  0.074013  0  1.066706  0
H  H29  1  0.30686162  0.34307082  0.72104027  1  0  0.08186  0.073996  0  1.066709  0
H  H30  1  0.19313851  0.84307018  0.27895852  1  0  0.081897  0.074087  0  1.066677  0
H  H31  1  0.69313836  0.15692959  0.22104129  1  0  0.081863  0.073986  0  1.066751  0
H  H32  1  0.02127087  0.22840649  0.32837291  1  0  0.094208  0.109364  0  1.027289  0
H  H33  1  0.52127243  0.77159335  0.17162675  1  0  0.0942  0.109368  0  1.027273  0
H  H34  1  0.97872711  0.27159400  0.82837483  1  0  0.094202  0.109412  0  1.027242  0
H  H35  1  0.47872715  0.72840681  0.67162661  1  0  0.094191  0.10937  0  1.027282  0
H  H36  1  0.97872791  0.77159343  0.67162685  1  0  0.094191  0.10935  0  1.027304  0
H  H37  1  0.47872744  0.22840657  0.82837300  1  0  0.094183  0.109355  0  1.027298  0
H  H38  1  0.02127167  0.72840592  0.17162651  1  0  0.094202  0.109353  0  1.02726  0
H  H39  1  0.52127163  0.27159391  0.32837394  1  0  0.094199  0.109385  0  1.02727  0
H  H40  1  0.59382845  0.33843109  0.60086985  1  0  0.298935  0.293563  0  0.978085  0
H  H41  1  0.09382892  0.66156904  0.89913046  1  0  0.298957  0.293648  0  0.97796  0
H  H42  1  0.40617024  0.16157005  0.10086981  1  0  0.298942  0.293614  0  0.977987  0
H  H43  1  0.90617105  0.83843046  0.39913098  1  0  0.298944  0.293626  0  0.978003  0
H  H44  1  0.40617033  0.66156963  0.39912991  1  0  0.298909  0.293564  0  0.978059  0
H  H45  1  0.90617096  0.33843088  0.10087009  1  0  0.298947  0.293638  0  0.977972  0
H  H46  1  0.59382963  0.83842987  0.89912994  1  0  0.298936  0.293609  0  0.977994  0
H  H47  1  0.09382883  0.16156946  0.60087037  1  0  0.298918  0.293552  0  0.978071  0
H  H48  1  0.57702852  0.47461213  0.60021712  1  0  0.302365  0.30866  0  0.958142  0
H  H49  1  0.07702798  0.52538801  0.89978396  1  0  0.302371  0.308679  0  0.958137  0
H  H50  1  0.42297236  0.02538821  0.10021622  1  0  0.302367  0.308664  0  0.958146  0
H  H51  1  0.92297199  0.97461229  0.39978379  1  0  0.30237  0.308677  0  0.958139  0
H  H52  1  0.42297136  0.52538698  0.39978263  1  0  0.302387  0.308703  0  0.958101  0
H  H53  1  0.92297190  0.47461271  0.10021659  1  0  0.30239  0.308711  0  0.958086  0
H  H54  1  0.57702861  0.97461171  0.89978274  1  0  0.302361  0.308659  0  0.958141  0
H  H55  1  0.07702898  0.02538762  0.60021676  1  0  0.302364  0.308659  0  0.958137  0
C  C56  1  0.72808302  0.41506249  0.49603205  1  0  0.311571  0.52783  0  4.126593  0
C  C57  1  0.22808397  0.58493727  0.00396858  1  0  0.311557  0.527799  0  4.12661  0
C  C58  1  0.27191633  0.08493730  0.99603164  1  0  0.311534  0.527728  0  4.126736  0
C  C59  1  0.77191642  0.91506277  0.50396882  1  0  0.311543  0.527711  0  4.126691  0
C  C60  1  0.27191685  0.58493743  0.50396770  1  0  0.311548  0.527812  0  4.126578  0
C  C61  1  0.77191590  0.41506264  0.99603197  1  0  0.311544  0.527769  0  4.126651  0
C  C62  1  0.72808355  0.91506262  0.00396891  1  0  0.311536  0.527717  0  4.12669  0
C  C63  1  0.22808345  0.08493714  0.49603173  1  0  0.311563  0.527775  0  4.126633  0
C  C64  1  0.89703921  0.48238075  0.39313822  1  0  0.07482  0.14542  0  4.07712  0
C  C65  1  0.39703928  0.51761896  0.10686098  1  0  0.074805  0.145378  0  4.077159  0
C  C66  1  0.10296106  0.01761898  0.89313841  1  0  0.074818  0.145395  0  4.077175  0
C  C67  1  0.60296129  0.98238115  0.60686111  1  0  0.074841  0.145431  0  4.077204  0
C  C68  1  0.10296066  0.51761837  0.60686154  1  0  0.074838  0.145408  0  4.077109  0
C  C69  1  0.60296059  0.48238096  0.89313798  1  0  0.074825  0.14541  0  4.077071  0
C  C70  1  0.89703881  0.98238094  0.10686214  1  0  0.074846  0.145452  0  4.077082  0
C  C71  1  0.39703859  0.01761957  0.39313785  1  0  0.0748  0.145363  0  4.077161  0
C  C72  1  0.99306789  0.54612015  0.33418857  1  0  -0.109605  -0.170697  0  4.013178  0
C  C73  1  0.49306920  0.45388032  0.16581071  1  0  -0.109596  -0.170676  0  4.013134  0
C  C74  1  0.00693415  0.95388011  0.83418895  1  0  -0.109613  -0.170715  0  4.013198  0
C  C75  1  0.50693070  0.04612006  0.66581128  1  0  -0.109599  -0.170695  0  4.013157  0
C  C76  1  0.00693198  0.45387976  0.66581119  1  0  -0.109604  -0.170703  0  4.013204  0
C  C77  1  0.50693177  0.54612040  0.83418825  1  0  -0.109607  -0.170724  0  4.01319  0
C  C78  1  0.99306901  0.04611981  0.16581080  1  0  -0.109608  -0.17068  0  4.013158  0
C  C79  1  0.49306918  0.95388067  0.33418847  1  0  -0.10962  -0.170702  0  4.013222  0
C  C80  1  0.09874127  0.49403234  0.27236948  1  0  -0.119383  -0.112692  0  4.047949  0
C  C81  1  0.59874200  0.50596827  0.22763024  1  0  -0.119369  -0.112672  0  4.047903  0
C  C82  1  0.90125880  0.00596811  0.77236958  1  0  -0.119352  -0.112637  0  4.047879  0
C  C83  1  0.40125877  0.99403272  0.72763020  1  0  -0.119311  -0.112616  0  4.047778  0
C  C84  1  0.90125860  0.50596758  0.72763027  1  0  -0.119375  -0.11266  0  4.047915  0
C  C85  1  0.40125896  0.49403245  0.77236951  1  0  -0.11937  -0.112662  0  4.047958  0
C  C86  1  0.09874107  0.99403262  0.22763017  1  0  -0.119335  -0.112662  0  4.047813  0
C  C87  1  0.59874220  0.00596800  0.27236955  1  0  -0.119344  -0.112615  0  4.047955  0
C  C88  1  0.10870373  0.38087701  0.26984519  1  0  -0.124187  -0.123407  0  4.102222  0
C  C89  1  0.60870439  0.61912279  0.23015375  1  0  -0.124184  -0.123416  0  4.10221  0
C  C90  1  0.89129525  0.11912343  0.76984614  1  0  -0.124174  -0.123399  0  4.102257  0
C  C91  1  0.39129529  0.88087660  0.73015363  1  0  -0.124217  -0.123458  0  4.102158  0
C  C92  1  0.89129615  0.61912290  0.73015377  1  0  -0.124165  -0.123374  0  4.102187  0
C  C93  1  0.39129658  0.38087713  0.76984521  1  0  -0.124165  -0.123365  0  4.102119  0
C  C94  1  0.10870463  0.88087648  0.23015441  1  0  -0.124256  -0.12358  0  4.102096  0
C  C95  1  0.60870349  0.11912332  0.26984612  1  0  -0.124188  -0.123422  0  4.102177  0
C  C96  1  0.01263237  0.31610747  0.32884419  1  0  -0.120553  -0.198866  0  4.053396  0
C  C97  1  0.51263399  0.68389237  0.17115546  1  0  -0.120593  -0.198902  0  4.053476  0
C  C98  1  0.98736452  0.18389221  0.82884527  1  0  -0.120583  -0.198935  0  4.053469  0
C  C99  1  0.48736559  0.81610859  0.67115538  1  0  -0.120582  -0.198901  0  4.05355  0
C  C100  1  0.98736641  0.68389245  0.67115556  1  0  -0.120576  -0.198881  0  4.053474  0
C  C101  1  0.48736698  0.31610755  0.82884430  1  0  -0.120551  -0.198873  0  4.053418  0
C  C102  1  0.01263317  0.81610771  0.17115528  1  0  -0.120561  -0.198797  0  4.053386  0
C  C103  1  0.51263318  0.18389294  0.32884437  1  0  -0.120558  -0.198862  0  4.053376  0
C  C104  1  0.90676314  0.36794944  0.39052795  1  0  0.069859  0.13686  0  4.099293  0
C  C105  1  0.40676532  0.63205026  0.10947205  1  0  0.069899  0.136894  0  4.099291  0
C  C106  1  0.09323604  0.13205028  0.89052900  1  0  0.069897  0.136869  0  4.099353  0
C  C107  1  0.59323525  0.86794985  0.60947131  1  0  0.069899  0.136873  0  4.099321  0
C  C108  1  0.09323564  0.63205048  0.60947181  1  0  0.069871  0.136857  0  4.099262  0
C  C109  1  0.59323564  0.36794965  0.89052770  1  0  0.06988  0.136858  0  4.099312  0
C  C110  1  0.90676383  0.86794883  0.10947155  1  0  0.069871  0.136833  0  4.099321  0
C  C111  1  0.40676463  0.13205087  0.39052765  1  0  0.069883  0.136862  0  4.09926  0
N  N112  1  0.79906184  0.32727282  0.45715946  1  0  -0.415628  -0.431651  0  3.58267  0
N  N113  1  0.29906280  0.67272772  0.04283965  1  0  -0.415634  -0.431644  0  3.582584  0
N  N114  1  0.20093744  0.17272694  0.95716063  1  0  -0.415635  -0.431631  0  3.582658  0
N  N115  1  0.70093766  0.82727315  0.54283977  1  0  -0.415657  -0.431631  0  3.582649  0
N  N116  1  0.20093803  0.67272790  0.54283950  1  0  -0.415645  -0.431663  0  3.582603  0
N  N117  1  0.70093707  0.32727219  0.95716011  1  0  -0.415643  -0.431654  0  3.582613  0
N  N118  1  0.79906243  0.82727217  0.04283992  1  0  -0.415648  -0.43164  0  3.582644  0
N  N119  1  0.29906221  0.17272676  0.45716078  1  0  -0.415644  -0.431635  0  3.582588  0
N  N120  1  0.78275427  0.50997117  0.46043286  1  0  -0.41097  -0.417596  0  3.563796  0
N  N121  1  0.28275534  0.49002857  0.03956703  1  0  -0.410943  -0.417515  0  3.563845  0
N  N122  1  0.21724579  0.99002917  0.96043186  1  0  -0.410947  -0.417495  0  3.563792  0
N  N123  1  0.71724434  0.00997173  0.53956776  1  0  -0.410949  -0.417471  0  3.563847  0
N  N124  1  0.21724560  0.49002874  0.53956769  1  0  -0.410938  -0.417489  0  3.563758  0
N  N125  1  0.71724563  0.50997135  0.96043193  1  0  -0.41094  -0.417476  0  3.563741  0
N  N126  1  0.78275408  0.00997156  0.03956790  1  0  -0.410929  -0.417468  0  3.563778  0
N  N127  1  0.28275444  0.99002899  0.46043279  1  0  -0.41094  -0.417492  0  3.563794  0
N  N128  1  0.60705582  0.40769763  0.55903996  1  0  -0.588164  -0.663515  0  3.377188  0
N  N129  1  0.10705421  0.59230250  0.94096115  1  0  -0.588194  -0.663644  0  3.377086  0
N  N130  1  0.39294499  0.09230269  0.05903907  1  0  -0.588168  -0.663558  0  3.377118  0
N  N131  1  0.89294582  0.90769702  0.44096091  1  0  -0.588188  -0.663607  0  3.377117  0
N  N132  1  0.39294515  0.59230229  0.44096059  1  0  -0.588165  -0.66359  0  3.37715  0
N  N133  1  0.89294566  0.40769742  0.05903940  1  0  -0.5882  -0.663655  0  3.377093  0
N  N134  1  0.60705488  0.90769723  0.94096068  1  0  -0.588173  -0.663565  0  3.377081  0
N  N135  1  0.10705515  0.09230209  0.55903884  1  0  -0.588139  -0.663496  0  3.377146  0
