# generated using pymatgen
data_ZnH14C18Br2(N2O)2
_symmetry_space_group_name_H-M   'P 1'
_cell_length_a   8.74820998
_cell_length_b   9.54574015
_cell_length_c   13.60547746
_cell_angle_alpha   73.23084269
_cell_angle_beta   73.91343371
_cell_angle_gamma   66.62506334
_symmetry_Int_Tables_number   1
_chemical_formula_structural   ZnH14C18Br2(N2O)2
_chemical_formula_sum   'Zn2 H28 C36 Br4 N8 O4'
_cell_volume   981.32813200
_cell_formula_units_Z   2
loop_
 _symmetry_equiv_pos_site_id
 _symmetry_equiv_pos_as_xyz
  1  'x, y, z'
loop_
 _atom_site_type_symbol
 _atom_site_label
 _atom_site_symmetry_multiplicity
 _atom_site_fract_x
 _atom_site_fract_y
 _atom_site_fract_z
 _atom_site_occupancy
 _atom_site_pbe_bader_spin_density
 _atom_site_pbe_cm5_charge
 _atom_site_pbe_ddec_charge
 _atom_site_pbe_ddec_spin_density
 _atom_site_pbe_ddec_sum_bond_order
 _atom_site_pbe_magmom
Zn  Zn0  1  0.48922901  0.45128133  0.26853272  1  0  0.523495  0.563552  0  2.661569  0
Zn  Zn1  1  0.51076968  0.54872222  0.73146815  1  0  0.523505  0.563581  0  2.66146  0
H  H2  1  0.80332431  0.43838120  0.10935894  1  0  0.115227  0.092161  0  0.993421  0
H  H3  1  0.19667158  0.56162352  0.89064071  1  0  0.115221  0.092191  0  0.993344  0
H  H4  1  0.11040354  0.38005000  0.10772733  1  0  0.110668  0.126039  0  0.998576  0
H  H5  1  0.88959526  0.61995005  0.89227202  1  0  0.110662  0.12604  0  0.998558  0
H  H6  1  0.20936879  0.29743656  0.27780755  1  0  0.094375  0.106571  0  1.056746  0
H  H7  1  0.79062926  0.70256233  0.72219069  1  0  0.094376  0.106559  0  1.05673  0
H  H8  1  0.69409241  0.34009752  0.43379200  1  0  0.108893  0.098787  0  1.051504  0
H  H9  1  0.30590716  0.65990369  0.56620698  1  0  0.108889  0.098785  0  1.051494  0
H  H10  1  0.12235664  0.28303748  0.46417564  1  0  0.287092  0.260446  0  1.00751  0
H  H11  1  0.87764432  0.71695674  0.53582378  1  0  0.287088  0.260421  0  1.007521  0
H  H12  1  0.04050308  0.38666915  0.61084495  1  0  0.091213  0.0953  0  1.047828  0
H  H13  1  0.95949984  0.61332621  0.38915317  1  0  0.091205  0.095325  0  1.047833  0
H  H14  1  0.13670105  0.34744835  0.77598943  1  0  0.097136  0.09498  0  1.059377  0
H  H15  1  0.86330026  0.65254818  0.22400799  1  0  0.097136  0.095022  0  1.05937  0
H  H16  1  0.09135448  0.89200604  0.87347191  1  0  0.098832  0.095814  0  1.033911  0
H  H17  1  0.90864920  0.10799049  0.12652583  1  0  0.098821  0.095796  0  1.033895  0
H  H18  1  0.98985835  0.93450590  0.71140445  1  0  0.100345  0.098925  0  1.049432  0
H  H19  1  0.01014132  0.06549182  0.28859522  1  0  0.100364  0.098969  0  1.049409  0
H  H20  1  0.28699424  0.86830434  0.94193231  1  0  0.289482  0.258169  0  1.013003  0
H  H21  1  0.71300820  0.13169221  0.05807006  1  0  0.289496  0.258161  0  1.013019  0
H  H22  1  0.32807340  0.12516521  0.08486973  1  0  0.106201  0.122045  0  1.033162  0
H  H23  1  0.67192333  0.87483719  0.91513098  1  0  0.106211  0.122073  0  1.033132  0
H  H24  1  0.44315482  0.00971372  0.25073039  1  0  0.109684  0.120399  0  0.988946  0
H  H25  1  0.55684855  0.99029328  0.74926749  1  0  0.109694  0.120443  0  0.988996  0
H  H26  1  0.49908971  0.72582361  0.32832571  1  0  0.116672  0.094187  0  0.993241  0
H  H27  1  0.50091600  0.27418340  0.67167617  1  0  0.116672  0.094193  0  0.993274  0
H  H28  1  0.33869959  0.66766691  0.08728241  1  0  0.102798  0.091369  0  1.040619  0
H  H29  1  0.66130272  0.33233314  0.91272221  1  0  0.102831  0.091422  0  1.040545  0
C  C30  1  0.85276108  0.40188502  0.18139366  1  0  0.039496  0.068258  0  3.936109  0
C  C31  1  0.14723523  0.59811854  0.81860615  1  0  0.039471  0.068213  0  3.936075  0
C  C32  1  0.02220399  0.36971073  0.18135115  1  0  -0.076972  -0.099355  0  3.977476  0
C  C33  1  0.97779395  0.63029165  0.81864788  1  0  -0.076949  -0.099349  0  3.977315  0
C  C34  1  0.07682121  0.32341719  0.27627818  1  0  -0.070157  -0.125444  0  3.901817  0
C  C35  1  0.92317640  0.67658287  0.72372138  1  0  -0.070198  -0.125432  0  3.901726  0
C  C36  1  0.96049065  0.30982930  0.36977939  1  0  0.109418  0.218534  0  4.012109  0
C  C37  1  0.03950901  0.69016842  0.63022028  1  0  0.109456  0.218546  0  4.012081  0
C  C38  1  0.79083359  0.34624134  0.36404382  1  0  0.043569  -0.000612  0  3.873322  0
C  C39  1  0.20916478  0.65375988  0.63595610  1  0  0.043558  -0.000631  0  3.873379  0
C  C40  1  0.94530014  0.18156141  0.55514148  1  0  0.245061  0.489383  0  4.100425  0
C  C41  1  0.05469875  0.81843515  0.44485856  1  0  0.245047  0.48934  0  4.100437  0
C  C42  1  0.01400187  0.16002357  0.64955708  1  0  -0.008614  -0.015957  0  3.957645  0
C  C43  1  0.98599866  0.83997181  0.35044218  1  0  -0.008585  -0.015902  0  3.95766  0
C  C44  1  0.05496747  0.27729999  0.66759326  1  0  -0.089397  -0.100376  0  3.972625  0
C  C45  1  0.94503545  0.72269537  0.33240485  1  0  -0.089497  -0.100553  0  3.972866  0
C  C46  1  0.10834230  0.25622752  0.75966700  1  0  -0.084983  -0.088515  0  3.961236  0
C  C47  1  0.89166102  0.74376669  0.24033348  1  0  -0.084926  -0.088446  0  3.961474  0
C  C48  1  0.12534463  0.11707251  0.83410794  1  0  -0.016901  -0.034414  0  3.987481  0
C  C49  1  0.87465591  0.88292287  0.16589059  1  0  -0.016877  -0.034468  0  3.987552  0
C  C50  1  0.08497913  0.99954885  0.81566300  1  0  -0.089972  -0.110498  0  3.986642  0
C  C51  1  0.91502496  0.00044652  0.18433711  1  0  -0.089975  -0.110456  0  3.986601  0
C  C52  1  0.02747217  0.02221385  0.72477019  1  0  -0.081442  -0.081339  0  3.948305  0
C  C53  1  0.97253031  0.97778269  0.27522923  1  0  -0.081436  -0.081362  0  3.948352  0
C  C54  1  0.17943345  0.10488794  0.93221411  1  0  0.23897  0.476816  0  4.122789  0
C  C55  1  0.82056784  0.89510860  0.06778478  1  0  0.23895  0.476813  0  4.122868  0
C  C56  1  0.32169749  0.90619191  0.07357669  1  0  0.104697  0.21394  0  4.011509  0
C  C57  1  0.67830205  0.09380931  0.92642450  1  0  0.104663  0.213907  0  4.011413  0
C  C58  1  0.35379812  0.00255204  0.12031108  1  0  -0.069702  -0.12152  0  3.894982  0
C  C59  1  0.64620220  0.99745033  0.87968901  1  0  -0.069648  -0.121503  0  3.894944  0
C  C60  1  0.41804746  0.93754531  0.21240180  1  0  -0.076198  -0.093477  0  3.972144  0
C  C61  1  0.58195676  0.06245937  0.78759713  1  0  -0.076236  -0.093505  0  3.972333  0
C  C62  1  0.45090203  0.77993792  0.25558569  1  0  0.044743  0.083491  0  3.920507  0
C  C63  1  0.54910261  0.22006559  0.74441488  1  0  0.044763  0.083432  0  3.920632  0
C  C64  1  0.35883250  0.74819433  0.12122956  1  0  0.04015  -0.007439  0  3.885121  0
C  C65  1  0.64117059  0.25180688  0.87877322  1  0  0.040143  -0.007462  0  3.885123  0
Br  Br66  1  0.47875437  0.33995034  0.13480995  1  0  -0.243333  -0.454168  0  1.372201  0
Br  Br67  1  0.52123791  0.66005442  0.86519326  1  0  -0.243334  -0.454192  0  1.372202  0
Br  Br68  1  0.34373301  0.39396435  0.44203670  1  0  -0.259663  -0.438567  0  1.282366  0
Br  Br69  1  0.65627348  0.60603100  0.55796152  1  0  -0.25967  -0.438582  0  1.282333  0
N  N70  1  0.74049319  0.39098183  0.27165047  1  0  -0.337541  -0.202512  0  3.639144  0
N  N71  1  0.25950354  0.60902056  0.72835023  1  0  -0.337521  -0.202513  0  3.639215  0
N  N72  1  0.01336666  0.26553517  0.46521084  1  0  -0.398976  -0.378272  0  3.585495  0
N  N73  1  0.98663344  0.73446138  0.53478826  1  0  -0.398946  -0.378211  0  3.58548  0
N  N74  1  0.25772581  0.95502487  0.98137686  1  0  -0.402031  -0.3806  0  3.615718  0
N  N75  1  0.74227459  0.04497401  0.01862391  1  0  -0.402035  -0.380604  0  3.615768  0
N  N76  1  0.42274406  0.68731357  0.20930840  1  0  -0.33257  -0.191896  0  3.624858  0
N  N77  1  0.57725902  0.31268765  0.79069585  1  0  -0.332605  -0.19188  0  3.625016  0
O  O78  1  0.83565299  0.12848956  0.55849370  1  0  -0.28456  -0.463449  0  2.111162  0
O  O79  1  0.16434018  0.87151285  0.44150689  1  0  -0.284545  -0.463416  0  2.111149  0
O  O80  1  0.15360269  0.22165397  0.96581629  1  0  -0.295219  -0.480759  0  2.108732  0
O  O81  1  0.84639815  0.77834375  0.03418391  1  0  -0.295228  -0.480765  0  2.108763  0
