# generated using pymatgen
data_ZnH13C12NO5
_symmetry_space_group_name_H-M   'P 1'
_cell_length_a   7.16082996
_cell_length_b   7.52098131
_cell_length_c   24.16180000
_cell_angle_alpha   90.00000000
_cell_angle_beta   90.00000000
_cell_angle_gamma   91.14055848
_symmetry_Int_Tables_number   1
_chemical_formula_structural   ZnH13C12NO5
_chemical_formula_sum   'Zn4 H52 C48 N4 O20'
_cell_volume   1301.01139860
_cell_formula_units_Z   4
loop_
 _symmetry_equiv_pos_site_id
 _symmetry_equiv_pos_as_xyz
  1  'x, y, z'
loop_
 _atom_site_type_symbol
 _atom_site_label
 _atom_site_symmetry_multiplicity
 _atom_site_fract_x
 _atom_site_fract_y
 _atom_site_fract_z
 _atom_site_occupancy
 _atom_site_hle17_bader_spin_density
 _atom_site_hle17_ddec_charge
 _atom_site_hle17_ddec_spin_density
 _atom_site_hle17_ddec_sum_bond_order
 _atom_site_hle17_magmom
 _atom_site_hse06_10hf_bader_spin_density
 _atom_site_hse06_10hf_ddec_charge
 _atom_site_hse06_10hf_ddec_spin_density
 _atom_site_hse06_10hf_ddec_sum_bond_order
 _atom_site_hse06_10hf_magmom
 _atom_site_hse06_bader_spin_density
 _atom_site_hse06_ddec_charge
 _atom_site_hse06_ddec_spin_density
 _atom_site_hse06_ddec_sum_bond_order
 _atom_site_hse06_magmom
 _atom_site_pbe_bader_charge
 _atom_site_pbe_bader_spin_density
 _atom_site_pbe_cm5_charge
 _atom_site_pbe_ddec_charge
 _atom_site_pbe_ddec_spin_density
 _atom_site_pbe_ddec_sum_bond_order
 _atom_site_pbe_magmom
Zn  Zn0  1  0.13119125  0.55313716  0.22088007  1  0  1.095545  0  1.79411  0  0  0.924645  0  2.243726  0  0  0.972827  0  2.187164  0  1.340939  0  0.6706  0.890866  0  2.282525  0
Zn  Zn1  1  0.36880943  0.94686327  0.72087965  1  0  1.095668  0  1.794088  0  0  0.924698  0  2.24371  0  0  0.972881  0  2.18715  0  1.340903  0  0.670627  0.890921  0  2.282506  0
Zn  Zn2  1  0.86880829  0.44686401  0.77911993  1  0  1.095608  0  1.794112  0  0  0.924629  0  2.243747  0  0  0.972813  0  2.187187  0  1.340949  0  0.670592  0.890849  0  2.282544  0
Zn  Zn3  1  0.63119288  0.05313657  0.27911993  1  0  1.095535  0  1.794103  0  0  0.924636  0  2.243701  0  0  0.972811  0  2.187142  0  1.340953  0  0.670616  0.890857  0  2.282498  0
H  H4  1  0.02139547  0.81672680  0.27446672  1  0  0.415368  0  0.889363  0  0  0.384489  0  0.952848  0  0  0.395932  0  0.936236  0  0.643539  0  0.28595  0.37642  0  0.964548  0
H  H5  1  0.47860387  0.68327628  0.77446755  1  0  0.415342  0  0.889409  0  0  0.38445  0  0.952919  0  0  0.395894  0  0.936304  0  0.643573  0  0.285944  0.376378  0  0.964623  0
H  H6  1  0.97860271  0.18327570  0.72553204  1  0  0.415307  0  0.88945  0  0  0.384444  0  0.95294  0  0  0.395889  0  0.936323  0  0.643576  0  0.285918  0.376366  0  0.964657  0
H  H7  1  0.52139847  0.31672489  0.22553162  1  0  0.415213  0  0.889548  0  0  0.384354  0  0.953039  0  0  0.395799  0  0.936423  0  0.643585  0  0.285878  0.376276  0  0.964756  0
H  H8  1  0.24389231  0.82161676  0.27244742  1  0  0.41397  0  0.894192  0  0  0.382925  0  0.958233  0  0  0.394429  0  0.941548  0  0.640746  0  0.284539  0.37483  0  0.969945  0
H  H9  1  0.25610703  0.67838633  0.77244783  1  0  0.414007  0  0.894138  0  0  0.382935  0  0.958217  0  0  0.394445  0  0.941524  0  0.640798  0  0.284539  0.374841  0  0.969928  0
H  H10  1  0.75610452  0.17838840  0.72755217  1  0  0.414002  0  0.894148  0  0  0.382925  0  0.958235  0  0  0.394436  0  0.941541  0  0.640797  0  0.284536  0.37483  0  0.969947  0
H  H11  1  0.74389526  0.32161219  0.22755176  1  0  0.413974  0  0.894187  0  0  0.382891  0  0.958285  0  0  0.394402  0  0.941592  0  0.640787  0  0.284525  0.374796  0  0.969997  0
H  H12  1  0.13927030  0.49009832  0.34762352  1  0  0.124773  0  0.914343  0  0  0.136586  0  0.968566  0  0  0.140177  0  0.966548  0  0.123026  0  0.114377  0.134025  0  0.970175  0
H  H13  1  0.36073084  0.00990094  0.84762394  1  0  0.124729  0  0.914367  0  0  0.136549  0  0.968586  0  0  0.14014  0  0.966565  0  0.123099  0  0.11436  0.13398  0  0.970204  0
H  H14  1  0.86073201  0.50990152  0.65237482  1  0  0.124765  0  0.914351  0  0  0.136592  0  0.968566  0  0  0.140183  0  0.966543  0  0.123102  0  0.114374  0.134021  0  0.970185  0
H  H15  1  0.63926859  0.99009492  0.15237482  1  0  0.124743  0  0.914377  0  0  0.136549  0  0.968605  0  0  0.140139  0  0.966584  0  0.123133  0  0.114371  0.133988  0  0.970212  0
H  H16  1  0.10792059  0.10334210  0.39019237  1  0  0.093881  0  0.912068  0  0  0.112352  0  0.965841  0  0  0.114495  0  0.96425  0  0.052559  0  0.099524  0.110763  0  0.967074  0
H  H17  1  0.39207782  0.39665982  0.89019113  1  0  0.093876  0  0.912056  0  0  0.112347  0  0.965837  0  0  0.114489  0  0.964246  0  0.052529  0  0.09955  0.110757  0  0.967071  0
H  H18  1  0.89208175  0.89665907  0.60980846  1  0  0.09389  0  0.912126  0  0  0.112342  0  0.965905  0  0  0.114484  0  0.964314  0  0.052518  0  0.099524  0.110753  0  0.967138  0
H  H19  1  0.60791885  0.60333736  0.10980846  1  0  0.093921  0  0.912043  0  0  0.112369  0  0.96582  0  0  0.114511  0  0.964229  0  0.052485  0  0.099546  0.110781  0  0.967052  0
H  H20  1  0.28492484  0.25388553  0.41168166  1  0  0.066269  0  0.95261  0  0  0.08272  0  1.021087  0  0  0.083211  0  1.021051  0  0.055253  0  0.089511  0.082356  0  1.021124  0
H  H21  1  0.21507496  0.24611639  0.91168084  1  0  0.066177  0  0.952669  0  0  0.082655  0  1.021129  0  0  0.083147  0  1.02109  0  0.055251  0  0.089463  0.082291  0  1.021166  0
H  H22  1  0.71508174  0.74611830  0.58831834  1  0  0.066193  0  0.952766  0  0  0.082655  0  1.021217  0  0  0.083145  0  1.021184  0  0.055304  0  0.089472  0.082292  0  1.021254  0
H  H23  1  0.78492162  0.75387681  0.08831834  1  0  0.06621  0  0.952707  0  0  0.08267  0  1.021159  0  0  0.083159  0  1.021129  0  0.055283  0  0.089469  0.082306  0  1.021195  0
H  H24  1  0.02095951  0.46295553  0.44658635  1  0  0.065271  0  0.953047  0  0  0.08115  0  1.009917  0  0  0.082666  0  1.010675  0  0.071292  0  0.092256  0.08007  0  1.009429  0
H  H25  1  0.47903892  0.03704772  0.94658593  1  0  0.06532  0  0.952998  0  0  0.081154  0  1.009912  0  0  0.08267  0  1.010669  0  0.07133  0  0.092249  0.080074  0  1.009424  0
H  H26  1  0.97904571  0.53704963  0.55341365  1  0  0.065318  0  0.952946  0  0  0.081192  0  1.009832  0  0  0.082709  0  1.010587  0  0.071363  0  0.092253  0.080113  0  1.009343  0
H  H27  1  0.52095769  0.96294680  0.05341407  1  0  0.065342  0  0.952837  0  0  0.081183  0  1.009766  0  0  0.082699  0  1.010523  0  0.071175  0  0.092251  0.080104  0  1.009276  0
H  H28  1  0.90417819  0.07425369  0.47137837  1  0  0.116814  0  0.985749  0  0  0.132095  0  1.0442  0  0  0.134597  0  1.044171  0  0.015492  0  0.088156  0.130281  0  1.044309  0
H  H29  1  0.59582304  0.42574955  0.97138003  1  0  0.116831  0  0.985763  0  0  0.132098  0  1.044231  0  0  0.134611  0  1.04419  0  0.015467  0  0.088161  0.130284  0  1.04434  0
H  H30  1  0.09582571  0.92575546  0.52861914  1  0  0.11685  0  0.985669  0  0  0.132118  0  1.044127  0  0  0.134645  0  1.044067  0  0.015585  0  0.088184  0.130304  0  1.044236  0
H  H31  1  0.40417081  0.57424630  0.02861956  1  0  0.116864  0  0.985713  0  0  0.132135  0  1.044164  0  0  0.134651  0  1.044118  0  0.01558  0  0.088197  0.130321  0  1.044273  0
H  H32  1  0.83445310  0.27725413  0.50959117  1  0  0.111367  0  0.993963  0  0  0.123387  0  1.058373  0  0  0.126216  0  1.057737  0  0.033864  0  0.084398  0.121347  0  1.058891  0
H  H33  1  0.66554243  0.22274379  0.00959117  1  0  0.111286  0  0.994086  0  0  0.123315  0  1.058486  0  0  0.126168  0  1.057823  0  0.033898  0  0.084394  0.121277  0  1.059002  0
H  H34  1  0.16554921  0.72274571  0.49040841  1  0  0.111397  0  0.993944  0  0  0.123395  0  1.05837  0  0  0.126225  0  1.057738  0  0.033844  0  0.084412  0.121354  0  1.058888  0
H  H35  1  0.33445144  0.77725339  0.99040883  1  0  0.111399  0  0.993991  0  0  0.123399  0  1.05841  0  0  0.126229  0  1.057779  0  0.03386  0  0.084404  0.121359  0  1.058928  0
H  H36  1  0.15836086  0.14665487  0.20653345  1  0  0.087625  0  0.937253  0  0  0.095109  0  1.000261  0  0  0.097442  0  0.998306  0  0.130081  0  0.119026  0.093359  0  1.001742  0
H  H37  1  0.34163743  0.35334173  0.70653304  1  0  0.087612  0  0.937221  0  0  0.095118  0  1.000227  0  0  0.097454  0  0.998263  0  0.130258  0  0.119017  0.093368  0  1.001709  0
H  H38  1  0.84163584  0.85334364  0.79346737  1  0  0.087632  0  0.937168  0  0  0.095139  0  1.000183  0  0  0.097475  0  0.998221  0  0.130282  0  0.119039  0.093389  0  1.001665  0
H  H39  1  0.65835924  0.64665545  0.29346696  1  0  0.087618  0  0.9372  0  0  0.095125  0  1.00021  0  0  0.097459  0  0.998251  0  0.130109  0  0.119025  0.093375  0  1.001691  0
H  H40  1  0.11620610  0.92121658  0.13226788  1  0  0.117371  0  0.963073  0  0  0.123818  0  1.028859  0  0  0.126887  0  1.028927  0  0.123647  0  0.108899  0.121608  0  1.029015  0
H  H41  1  0.38379313  0.57878118  0.63226829  1  0  0.117356  0  0.96311  0  0  0.123843  0  1.028854  0  0  0.126914  0  1.028923  0  0.123661  0  0.108911  0.121633  0  1.02901  0
H  H42  1  0.88378780  0.07878193  0.86773295  1  0  0.117403  0  0.963088  0  0  0.123865  0  1.028838  0  0  0.126937  0  1.028906  0  0.123394  0  0.108906  0.121654  0  1.028995  0
H  H43  1  0.61620779  0.42121866  0.36773336  1  0  0.117442  0  0.963085  0  0  0.123891  0  1.02885  0  0  0.126962  0  1.028917  0  0.123482  0  0.108929  0.12168  0  1.029007  0
H  H44  1  0.03271280  0.35530064  0.01790140  1  0  0.098968  0  0.960989  0  0  0.112878  0  1.016527  0  0  0.115463  0  1.016465  0  0.065089  0  0.106058  0.111044  0  1.016719  0
H  H45  1  0.46728549  0.14469596  0.51790098  1  0  0.098945  0  0.961011  0  0  0.112881  0  1.01652  0  0  0.115466  0  1.016457  0  0.065073  0  0.106052  0.111047  0  1.016712  0
H  H46  1  0.96728381  0.64469389  0.98209902  1  0  0.098915  0  0.961059  0  0  0.112871  0  1.016547  0  0  0.115455  0  1.016486  0  0.065049  0  0.106039  0.111035  0  1.016742  0
H  H47  1  0.53271827  0.85530654  0.48209902  1  0  0.09892  0  0.961065  0  0  0.112861  0  1.01657  0  0  0.115446  0  1.016507  0  0.065046  0  0.106035  0.111025  0  1.016764  0
H  H48  1  0.08220761  0.56186381  0.09723986  1  0  0.079694  0  0.945507  0  0  0.086925  0  1.014991  0  0  0.089658  0  1.011796  0  0.10022  0  0.116134  0.084898  0  1.017364  0
H  H49  1  0.41779302  0.93813395  0.59723986  1  0  0.07972  0  0.945435  0  0  0.086997  0  1.014874  0  0  0.089732  0  1.011674  0  0.100187  0  0.116144  0.084971  0  1.017248  0
H  H50  1  0.91779049  0.43813470  0.90276014  1  0  0.079717  0  0.945507  0  0  0.086988  0  1.014945  0  0  0.089723  0  1.011745  0  0.100186  0  0.116154  0.084962  0  1.017319  0
H  H51  1  0.58220789  0.06186589  0.40276014  1  0  0.07973  0  0.945486  0  0  0.086995  0  1.014929  0  0  0.089731  0  1.011728  0  0.10018  0  0.116151  0.084969  0  1.017303  0
H  H52  1  0.04966834  0.84743500  0.03966468  1  0  0.085296  0  0.967819  0  0  0.097136  0  1.033133  0  0  0.099854  0  1.031355  0  0.054827  0  0.102796  0.095121  0  1.034549  0
H  H53  1  0.45033092  0.65256410  0.53966509  1  0  0.085296  0  0.967794  0  0  0.097134  0  1.033119  0  0  0.099852  0  1.031341  0  0.054835  0  0.102795  0.095119  0  1.034536  0
H  H54  1  0.95032690  0.15256085  0.96033698  1  0  0.085283  0  0.967867  0  0  0.097117  0  1.033194  0  0  0.099801  0  1.031455  0  0.054772  0  0.10277  0.095102  0  1.03461  0
H  H55  1  0.54967427  0.34743973  0.46033698  1  0  0.085248  0  0.967896  0  0  0.097102  0  1.033208  0  0  0.099785  0  1.03147  0  0.054784  0  0.102777  0.095089  0  1.034621  0
C  C56  1  0.30483420  0.30343276  0.30532742  1  0  0.699861  0  3.79854  0  0  0.644094  0  4.104717  0  0  0.678812  0  4.097103  0  1.57555  0  0.223337  0.620442  0  4.109211  0
C  C57  1  0.19516560  0.19656915  0.80532742  1  0  0.699953  0  3.798451  0  0  0.644117  0  4.104688  0  0  0.678836  0  4.097074  0  1.57561  0  0.22335  0.620465  0  4.109181  0
C  C58  1  0.69516814  0.69656841  0.69467175  1  0  0.69989  0  3.79853  0  0  0.644067  0  4.104786  0  0  0.678784  0  4.097173  0  1.575594  0  0.223348  0.620413  0  4.109279  0
C  C59  1  0.80483249  0.80342936  0.19467175  1  0  0.699888  0  3.798504  0  0  0.64407  0  4.104737  0  0  0.678785  0  4.097125  0  1.575597  0  0.223351  0.620416  0  4.109232  0
C  C60  1  0.13394143  0.34455257  0.34162521  1  0  -0.27686  0  3.6249  0  0  -0.281378  0  3.867313  0  0  -0.292344  0  3.876236  0  -0.057392  0  -0.091309  -0.273891  0  3.861006  0
C  C61  1  0.36605974  0.15544802  0.84162521  1  0  -0.276891  0  3.624835  0  0  -0.281429  0  3.867287  0  0  -0.292392  0  3.876207  0  -0.057739  0  -0.091308  -0.273935  0  3.860977  0
C  C62  1  0.86606231  0.65544860  0.65837438  1  0  -0.276852  0  3.624869  0  0  -0.281425  0  3.867323  0  0  -0.292387  0  3.876239  0  -0.057632  0  -0.091297  -0.273932  0  3.861019  0
C  C63  1  0.63393832  0.84454916  0.15837438  1  0  -0.276845  0  3.625046  0  0  -0.281344  0  3.867348  0  0  -0.292307  0  3.876274  0  -0.057764  0  -0.091275  -0.273858  0  3.861043  0
C  C64  1  0.95498751  0.30622019  0.30816206  1  0  0.704606  0  3.792124  0  0  0.65042  0  4.093444  0  0  0.685035  0  4.085933  0  1.555958  0  0.223933  0.626802  0  4.09791  0
C  C65  1  0.54501504  0.19377907  0.80816206  1  0  0.704574  0  3.792066  0  0  0.650386  0  4.093383  0  0  0.685001  0  4.085872  0  1.555945  0  0.223902  0.626769  0  4.097848  0
C  C66  1  0.04501480  0.69377965  0.69183836  1  0  0.704576  0  3.791915  0  0  0.650429  0  4.093198  0  0  0.685043  0  4.085685  0  1.555945  0  0.223917  0.626812  0  4.097665  0
C  C67  1  0.45498448  0.80622077  0.19183753  1  0  0.704372  0  3.792191  0  0  0.650359  0  4.093339  0  0  0.684961  0  4.085836  0  1.555927  0  0.223847  0.626743  0  4.097805  0
C  C68  1  0.13943868  0.24519079  0.39690213  1  0  -0.102899  0  3.744683  0  0  -0.150809  0  3.996082  0  0  -0.149624  0  4.008223  0  -0.004364  0  -0.165632  -0.151415  0  3.987604  0
C  C69  1  0.36055975  0.25481245  0.89690172  1  0  -0.102735  0  3.744533  0  0  -0.150667  0  3.995947  0  0  -0.14948  0  4.008084  0  -0.004083  0  -0.165607  -0.151275  0  3.987475  0
C  C70  1  0.86056514  0.75481437  0.60309787  1  0  -0.102807  0  3.74469  0  0  -0.150667  0  3.996063  0  0  -0.149478  0  4.008196  0  -0.004205  0  -0.165606  -0.151275  0  3.987588  0
C  C71  1  0.63943689  0.74518340  0.10309828  1  0  -0.102868  0  3.744698  0  0  -0.15071  0  3.996  0  0  -0.149522  0  4.008136  0  -0.004097  0  -0.165613  -0.151318  0  3.987526  0
C  C72  1  0.01670974  0.31819307  0.44122706  1  0  0.010387  0  3.762579  0  0  0.004814  0  4.018218  0  0  0.003939  0  4.041716  0  -0.1553  0  -0.095058  0.005422  0  4.002112  0
C  C73  1  0.48328867  0.18180884  0.94122706  1  0  0.010299  0  3.762578  0  0  0.004761  0  4.018205  0  0  0.003883  0  4.041713  0  -0.155306  0  -0.09507  0.00537  0  4.002099  0
C  C74  1  0.98329548  0.68181209  0.55877211  1  0  0.010258  0  3.762637  0  0  0.004644  0  4.0183  0  0  0.003767  0  4.041804  0  -0.15525  0  -0.095104  0.005253  0  4.002194  0
C  C75  1  0.51670513  0.81818435  0.05877294  1  0  0.010233  0  3.762619  0  0  0.004651  0  4.018269  0  0  0.003776  0  4.041767  0  -0.155009  0  -0.095125  0.00526  0  4.002163  0
C  C76  1  0.91249883  0.21868767  0.47565579  1  0  -0.316832  0  3.681211  0  0  -0.360232  0  3.922309  0  0  -0.365821  0  3.938918  0  -0.013637  0  -0.200595  -0.356237  0  3.911005  0
C  C77  1  0.58750097  0.28131425  0.97565537  1  0  -0.316753  0  3.681387  0  0  -0.360141  0  3.922454  0  0  -0.36576  0  3.939036  0  -0.013638  0  -0.200573  -0.356148  0  3.911147  0
C  C78  1  0.08750499  0.78131749  0.52434380  1  0  -0.316828  0  3.681309  0  0  -0.360175  0  3.922411  0  0  -0.365787  0  3.939006  0  -0.014068  0  -0.200574  -0.356179  0  3.911103  0
C  C79  1  0.41249567  0.71868160  0.02434380  1  0  -0.316863  0  3.681432  0  0  -0.360213  0  3.922517  0  0  -0.365816  0  3.939122  0  -0.014088  0  -0.200581  -0.356217  0  3.911209  0
C  C80  1  0.12925038  0.18763371  0.16426880  1  0  0.15493  0  3.674495  0  0  0.123183  0  3.925652  0  0  0.131541  0  3.94283  0  0.465381  0  0.054564  0.117741  0  3.914097  0
C  C81  1  0.37074794  0.31236422  0.66426922  1  0  0.154997  0  3.674332  0  0  0.12316  0  3.925594  0  0  0.13152  0  3.942775  0  0.465215  0  0.054586  0.11772  0  3.914036  0
C  C82  1  0.87074632  0.81236480  0.83573202  1  0  0.155094  0  3.674297  0  0  0.123216  0  3.925555  0  0  0.131575  0  3.942735  0  0.464752  0  0.054561  0.117775  0  3.913995  0
C  C83  1  0.62925021  0.68763695  0.33573202  1  0  0.155097  0  3.674426  0  0  0.123254  0  3.925658  0  0  0.131613  0  3.942839  0  0.465074  0  0.054595  0.117812  0  3.914101  0
C  C84  1  0.10506935  0.06208000  0.12262042  1  0  -0.158753  0  3.662348  0  0  -0.174191  0  3.905698  0  0  -0.183646  0  3.92786  0  0.046578  0  -0.079895  -0.168147  0  3.890984  0
C  C85  1  0.39493039  0.43791926  0.62262042  1  0  -0.158804  0  3.662304  0  0  -0.174258  0  3.90566  0  0  -0.183716  0  3.927823  0  0.0466  0  -0.079959  -0.168213  0  3.890947  0
C  C86  1  0.89492458  0.93791984  0.87738041  1  0  -0.158931  0  3.66235  0  0  -0.174328  0  3.905622  0  0  -0.183788  0  3.927782  0  0.047332  0  -0.07997  -0.168279  0  3.890911  0
C  C87  1  0.60507052  0.56208058  0.37738041  1  0  -0.15904  0  3.662366  0  0  -0.17445  0  3.905671  0  0  -0.183908  0  3.927829  0  0.047027  0  -0.080028  -0.168401  0  3.890959  0
C  C88  1  0.06412372  0.11762365  0.06850773  1  0  0.13774  0  3.812831  0  0  0.153715  0  4.039561  0  0  0.15886  0  4.063387  0  -0.070237  0  0.009463  0.150503  0  4.023264  0
C  C89  1  0.43587743  0.38237561  0.56850773  1  0  0.137693  0  3.812722  0  0  0.153681  0  4.039419  0  0  0.158825  0  4.063245  0  -0.070212  0  0.009444  0.150464  0  4.023132  0
C  C90  1  0.93587153  0.88237220  0.93149351  1  0  0.137602  0  3.812819  0  0  0.153645  0  4.039405  0  0  0.158794  0  4.063217  0  -0.070255  0  0.009457  0.15042  0  4.023127  0
C  C91  1  0.56412639  0.61762955  0.43149351  1  0  0.137576  0  3.812798  0  0  0.153623  0  4.039386  0  0  0.158772  0  4.063201  0  -0.070001  0  0.009441  0.150397  0  4.023106  0
C  C92  1  0.05834016  0.30215076  0.05906017  1  0  -0.174011  0  3.714434  0  0  -0.187715  0  3.952185  0  0  -0.196736  0  3.975  0  0.006961  0  -0.082934  -0.181881  0  3.936803  0
C  C93  1  0.44166372  0.19784583  0.55906058  1  0  -0.174042  0  3.714574  0  0  -0.187757  0  3.952309  0  0  -0.19678  0  3.97513  0  0.006681  0  -0.082955  -0.181922  0  3.936926  0
C  C94  1  0.94165785  0.69784376  0.94094024  1  0  -0.17388  0  3.714669  0  0  -0.187637  0  3.952359  0  0  -0.196662  0  3.975182  0  0.006458  0  -0.08287  -0.181798  0  3.936978  0
C  C95  1  0.55834147  0.80215800  0.44094024  1  0  -0.173885  0  3.714596  0  0  -0.187631  0  3.952276  0  0  -0.196658  0  3.975101  0  0.006401  0  -0.082885  -0.181791  0  3.936893  0
C  C96  1  0.08613341  0.41839666  0.10289714  1  0  0.142886  0  3.710418  0  0  0.110769  0  3.961847  0  0  0.118613  0  3.979156  0  0.448332  0  0.051378  0.105701  0  3.950088  0
C  C97  1  0.41386767  0.08159994  0.60289672  1  0  0.142925  0  3.710517  0  0  0.110752  0  3.961955  0  0  0.118596  0  3.979266  0  0.44858  0  0.051431  0.105681  0  3.950198  0
C  C98  1  0.91386463  0.58159919  0.89710369  1  0  0.14294  0  3.710624  0  0  0.11078  0  3.96205  0  0  0.118624  0  3.979362  0  0.448809  0  0.051412  0.10571  0  3.95029  0
C  C99  1  0.58613466  0.91840123  0.39710328  1  0  0.142899  0  3.710625  0  0  0.110757  0  3.96204  0  0  0.1186  0  3.979352  0  0.448854  0  0.05143  0.105685  0  3.950281  0
C  C100  1  0.02838043  0.98404131  0.02614664  1  0  -0.097038  0  3.727219  0  0  -0.117851  0  3.97781  0  0  -0.12065  0  3.998238  0  -0.070684  0  -0.07653  -0.115787  0  3.963719  0
C  C101  1  0.47162023  0.51595778  0.52614664  1  0  -0.097013  0  3.727161  0  0  -0.117835  0  3.977756  0  0  -0.120632  0  3.998184  0  -0.070686  0  -0.076524  -0.11577  0  3.963668  0
C  C102  1  0.97161764  0.01595587  0.97385418  1  0  -0.096891  0  3.727239  0  0  -0.11772  0  3.977796  0  0  -0.120494  0  3.998247  0  0.030395  0  -0.076483  -0.11565  0  3.963704  0
C  C103  1  0.52838217  0.48404605  0.47385418  1  0  -0.096843  0  3.727231  0  0  -0.117684  0  3.977782  0  0  -0.120458  0  3.998234  0  0.030261  0  -0.076494  -0.115615  0  3.963685  0
N  N104  1  0.11826046  0.36319745  0.15499921  1  0  -0.311991  0  3.241293  0  0  -0.234692  0  3.502135  0  0  -0.252838  0  3.517138  0  -1.24284  0  -0.316733  -0.22247  0  3.491892  0
N  N105  1  0.38173926  0.13680048  0.65499880  1  0  -0.311959  0  3.24124  0  0  -0.234631  0  3.502142  0  0  -0.252781  0  3.517153  0  -1.242837  0  -0.316732  -0.222408  0  3.4919  0
N  N106  1  0.88173624  0.63680106  0.84500161  1  0  -0.312099  0  3.241208  0  0  -0.234764  0  3.502114  0  0  -0.252911  0  3.517119  0  -1.242809  0  -0.316773  -0.22254  0  3.491872  0
N  N107  1  0.61826026  0.86319936  0.34500161  1  0  -0.311996  0  3.24141  0  0  -0.234685  0  3.502301  0  0  -0.25283  0  3.517307  0  -1.242852  0  -0.316737  -0.222461  0  3.492058  0
O  O108  1  0.33159185  0.39419023  0.26105630  1  0  -0.659444  0  2.100105  0  0  -0.587796  0  2.3552  0  0  -0.616991  0  2.343705  0  -1.189611  0  -0.309409  -0.567514  0  2.362538  0
O  O109  1  0.16840929  0.10580902  0.76105588  1  0  -0.659535  0  2.100099  0  0  -0.587832  0  2.355199  0  0  -0.617029  0  2.343703  0  -1.189606  0  -0.309397  -0.567549  0  2.362536  0
O  O110  1  0.66841049  0.60581094  0.73894329  1  0  -0.659438  0  2.100067  0  0  -0.587759  0  2.355179  0  0  -0.616956  0  2.343686  0  -1.189564  0  -0.309405  -0.567484  0  2.36253  0
O  O111  1  0.83159020  0.89418949  0.23894288  1  0  -0.659439  0  2.100056  0  0  -0.587769  0  2.355143  0  0  -0.616965  0  2.343651  0  -1.189556  0  -0.309399  -0.567496  0  2.362492  0
O  O112  1  0.41127259  0.18224371  0.32161759  1  0  -0.624929  0  2.070225  0  0  -0.561678  0  2.336671  0  0  -0.588196  0  2.324534  0  -1.179859  0  -0.304936  -0.543176  0  2.344438  0
O  O113  1  0.08872858  0.31775687  0.82161759  1  0  -0.624993  0  2.070241  0  0  -0.56167  0  2.336683  0  0  -0.588187  0  2.324545  0  -1.179921  0  -0.304947  -0.543167  0  2.34445  0
O  O114  1  0.58872978  0.81775879  0.67838158  1  0  -0.625035  0  2.070276  0  0  -0.56171  0  2.336709  0  0  -0.588226  0  2.324569  0  -1.17988  0  -0.304958  -0.543208  0  2.344478  0
O  O115  1  0.91127091  0.68224164  0.17838158  1  0  -0.625052  0  2.070288  0  0  -0.561739  0  2.336714  0  0  -0.588254  0  2.324575  0  -1.179948  0  -0.304991  -0.543236  0  2.344482  0
O  O116  1  0.92657087  0.39975843  0.26470379  1  0  -0.664093  0  2.105978  0  0  -0.591276  0  2.358357  0  0  -0.620608  0  2.346971  0  -1.182394  0  -0.311952  -0.570908  0  2.365648  0
O  O117  1  0.57342888  0.10024082  0.76470337  1  0  -0.664077  0  2.105931  0  0  -0.591265  0  2.358324  0  0  -0.620601  0  2.346942  0  -1.18239  0  -0.311945  -0.570896  0  2.365616  0
O  O118  1  0.07343141  0.60024008  0.73529663  1  0  -0.66412  0  2.105888  0  0  -0.591318  0  2.358256  0  0  -0.620651  0  2.346871  0  -1.182409  0  -0.311981  -0.570948  0  2.365548  0
O  O119  1  0.42657064  0.89975902  0.23529580  1  0  -0.663883  0  2.105869  0  0  -0.591224  0  2.358309  0  0  -0.620525  0  2.346912  0  -1.18235  0  -0.311917  -0.570856  0  2.3656  0
O  O120  1  0.84546882  0.18428375  0.32508215  1  0  -0.615857  0  2.041705  0  0  -0.55229  0  2.301683  0  0  -0.578855  0  2.290175  0  -1.168274  0  -0.304703  -0.533788  0  2.309053  0
O  O121  1  0.65453369  0.31571418  0.82508257  1  0  -0.615839  0  2.041693  0  0  -0.552259  0  2.301672  0  0  -0.578824  0  2.290164  0  -1.16828  0  -0.304676  -0.533757  0  2.309043  0
O  O122  1  0.15453762  0.81571344  0.67491785  1  0  -0.615838  0  2.041612  0  0  -0.552271  0  2.301557  0  0  -0.578834  0  2.290045  0  -1.168293  0  -0.30467  -0.533769  0  2.308931  0
O  O123  1  0.34546169  0.68428832  0.17491743  1  0  -0.615645  0  2.041559  0  0  -0.552264  0  2.301585  0  0  -0.57883  0  2.290083  0  -1.168292  0  -0.304657  -0.533763  0  2.308957  0
O  O124  1  0.13388912  0.74844559  0.28536491  1  0  -0.819977  0  1.880053  0  0  -0.76331  0  2.068332  0  0  -0.784359  0  2.032944  0  -1.265141  0  -0.58522  -0.748387  0  2.092679  0
O  O125  1  0.36611022  0.75155750  0.78536533  1  0  -0.819967  0  1.88  0  0  -0.763289  0  2.068328  0  0  -0.78434  0  2.032931  0  -1.265215  0  -0.585221  -0.748368  0  2.092679  0
O  O126  1  0.86610909  0.25155824  0.71463426  1  0  -0.819919  0  1.880046  0  0  -0.763275  0  2.068284  0  0  -0.78433  0  2.032892  0  -1.265219  0  -0.585179  -0.748348  0  2.092635  0
O  O127  1  0.63389209  0.24844234  0.21463426  1  0  -0.819805  0  1.880117  0  0  -0.763157  0  2.068317  0  0  -0.78421  0  2.03293  0  -1.265226  0  -0.585138  -0.748229  0  2.09267  0
