# generated using pymatgen
data_CoH20(C13N5)2
_symmetry_space_group_name_H-M   'P 1'
_cell_length_a   9.72690452
_cell_length_b   16.01944075
_cell_length_c   16.01335783
_cell_angle_alpha   116.02294432
_cell_angle_beta   101.72759383
_cell_angle_gamma   101.62507199
_symmetry_Int_Tables_number   1
_chemical_formula_structural   CoH20(C13N5)2
_chemical_formula_sum   'Co3 H60 C78 N30'
_cell_volume   2072.14892399
_cell_formula_units_Z   3
loop_
 _symmetry_equiv_pos_site_id
 _symmetry_equiv_pos_as_xyz
  1  'x, y, z'
loop_
 _atom_site_type_symbol
 _atom_site_label
 _atom_site_symmetry_multiplicity
 _atom_site_fract_x
 _atom_site_fract_y
 _atom_site_fract_z
 _atom_site_occupancy
 _atom_site_pbe_bader_charge
 _atom_site_pbe_bader_spin_density
 _atom_site_pbe_cm5_charge
 _atom_site_pbe_ddec_charge
 _atom_site_pbe_ddec_spin_density
 _atom_site_pbe_ddec_sum_bond_order
 _atom_site_pbe_magmom
Co  Co0  1  0.00000222  0.50000582  0.49999844  1  1.066452  0.91324  0.697131  0.390889  1.007524  3.268798  0.905
Co  Co1  1  0.49999805  0.99999936  0.50000364  1  1.06922  0.914249  0.695947  0.387966  1.008696  3.269147  0.906
Co  Co2  1  0.50000435  0.49999856  0.99999659  1  1.060624  0.914085  0.697925  0.392171  1.008083  3.265644  0.906
H  H3  1  0.05953317  0.57092046  0.71992771  1  0.177107  0.000276  0.115066  0.078813  -7.6e-05  1.094901  0.0
H  H4  1  0.28908415  0.65918538  0.86946408  1  0.076309  0.000106  0.100663  0.10362  4.6e-05  1.046974  0.0
H  H5  1  0.53592456  0.71488537  0.85179230  1  0.05689  -0.000208  0.105804  0.10778  -0.000227  0.986262  0.0
H  H6  1  0.16458186  0.39590114  0.17930228  1  0.106921  0.001074  0.106487  0.11049  0.000446  1.028071  0.0
H  H7  1  0.26010158  0.37726480  0.04074584  1  0.081002  0.001937  0.113714  0.08173  0.000633  1.019428  0.001
H  H8  1  0.65274338  0.60656030  0.23179401  1  0.092864  0.001814  0.113888  0.083016  0.00056  1.021967  0.001
H  H9  1  0.57612615  0.63106426  0.37848508  1  0.102343  0.00096  0.104812  0.113415  0.000373  1.036321  0.001
H  H10  1  0.58748089  0.65165735  0.60827059  1  0.134045  5e-06  0.094648  0.140672  -1e-06  1.049809  0.0
H  H11  1  0.67793131  0.68207064  0.73217546  1  0.040022  0.000115  0.088769  0.12499  5.2e-05  1.021873  0.0
H  H12  1  0.62117019  0.77015970  0.70835986  1  0.010492  0.000142  0.091221  0.126622  5.9e-05  0.991892  0.0
H  H13  1  0.48783510  0.14868297  0.42871900  1  0.167818  0.00028  0.115192  0.078326  -7.1e-05  1.09378  0.0
H  H14  1  0.62935937  0.21015483  0.34082721  1  0.071787  0.000112  0.100989  0.104036  4.9e-05  1.046191  0.0
H  H15  1  0.82067232  0.13676755  0.28513482  1  0.047169  -0.000223  0.105785  0.107201  -0.000229  0.986768  0.0
H  H16  1  0.76804092  0.78312202  0.60373605  1  0.1132  0.001073  0.106557  0.110386  0.000446  1.029344  0.0
H  H17  1  0.88289026  0.66352334  0.62265619  1  0.074206  0.00193  0.113849  0.081545  0.000634  1.019347  0.001
H  H18  1  0.04748251  0.62569405  0.39390054  1  0.105113  0.001801  0.113828  0.08268  0.000562  1.020588  0.001
H  H19  1  0.94590952  0.74769456  0.36924100  1  0.095316  0.000966  0.104917  0.113225  0.00037  1.036412  0.001
H  H20  1  0.93626225  0.95681974  0.34855026  1  0.110791  6e-06  0.094934  0.140749  0.0  1.051444  0.0
H  H21  1  0.99560458  0.04999675  0.31779914  1  0.035343  0.000114  0.088253  0.124349  5.2e-05  1.022146  0.0
H  H22  1  0.85114594  0.93790546  0.22984742  1  0.019913  0.000142  0.091415  0.126952  5.8e-05  0.992852  0.0
H  H23  1  0.33962368  0.28004590  0.85127950  1  0.186614  0.000288  0.115085  0.079054  -7.1e-05  1.094106  0.0
H  H24  1  0.41995099  0.13068716  0.79009446  1  0.084353  9.2e-05  0.100256  0.102985  3.6e-05  1.046855  0.0
H  H25  1  0.68466419  0.14846437  0.86372709  1  0.066582  -0.000205  0.105645  0.107601  -0.000226  0.986996  0.0
H  H26  1  0.98475231  0.82071625  0.21647595  1  0.094627  0.001077  0.106234  0.109975  0.000447  1.027422  0.0
H  H27  1  0.21891271  0.95923278  0.33638904  1  0.074278  0.00193  0.114195  0.08298  0.000632  1.017261  0.001
H  H28  1  0.42160178  0.76840549  0.37439406  1  0.091755  0.001813  0.113884  0.082679  0.000561  1.022303  0.001
H  H29  1  0.19825054  0.62174558  0.25212717  1  0.104775  0.000956  0.104747  0.113564  0.000369  1.036557  0.001
H  H30  1  0.97955353  0.39198170  0.04418033  1  0.110359  6e-06  0.094811  0.140688  -0.0  1.051401  0.0
H  H31  1  0.94641244  0.26823445  0.95067604  1  0.030333  0.00012  0.088617  0.125413  5.4e-05  1.020816  0.0
H  H32  1  0.91344226  0.29187968  0.06254197  1  0.007263  0.000142  0.091693  0.127205  5.9e-05  0.991416  0.0
H  H33  1  0.94046823  0.42910600  0.28008043  1  0.177888  0.000276  0.115007  0.078672  -7.6e-05  1.095025  0.0
H  H34  1  0.71091525  0.34084549  0.13054573  1  0.075951  0.000106  0.100693  0.10361  4.6e-05  1.047061  0.0
H  H35  1  0.46407939  0.28512931  0.14820852  1  0.056204  -0.000208  0.105825  0.107781  -0.000227  0.986269  0.0
H  H36  1  0.83542706  0.60410029  0.82068966  1  0.107224  0.001075  0.106513  0.110522  0.000446  1.027792  0.0
H  H37  1  0.73989981  0.62273221  0.95924883  1  0.081012  0.001937  0.1137  0.081725  0.000633  1.019354  0.001
H  H38  1  0.34722753  0.39344260  0.76818682  1  0.092856  0.001814  0.113798  0.08296  0.00056  1.02168  0.001
H  H39  1  0.42386680  0.36893642  0.62149449  1  0.102154  0.000961  0.104802  0.11346  0.000373  1.036302  0.001
H  H40  1  0.41250252  0.34834776  0.39172343  1  0.133864  5e-06  0.094601  0.140563  -1e-06  1.049886  0.0
H  H41  1  0.32206441  0.31793152  0.26781011  1  0.040261  0.000115  0.088745  0.124914  5.2e-05  1.021965  0.0
H  H42  1  0.37879991  0.22983364  0.29163356  1  0.010488  0.000141  0.091262  0.126638  5.9e-05  0.991666  0.0
H  H43  1  0.51216937  0.85132067  0.57129519  1  0.167876  0.00028  0.115156  0.078273  -7.1e-05  1.093924  0.0
H  H44  1  0.37063236  0.78983998  0.65917650  1  0.071935  0.000112  0.101077  0.104157  4.9e-05  1.046102  0.0
H  H45  1  0.17931401  0.86322064  0.71486530  1  0.047142  -0.000222  0.105775  0.107107  -0.000229  0.986755  0.0
H  H46  1  0.23197885  0.21688310  0.39629074  1  0.11313  0.001073  0.106649  0.110481  0.000445  1.029392  0.0
H  H47  1  0.11715674  0.33648987  0.37737076  1  0.074839  0.001929  0.113926  0.081704  0.000633  1.019111  0.001
H  H48  1  0.95251971  0.37431327  0.60610747  1  0.104978  0.001801  0.113816  0.082651  0.000562  1.020447  0.001
H  H49  1  0.05407684  0.25231276  0.63077309  1  0.095061  0.000966  0.104942  0.113273  0.00037  1.036306  0.001
H  H50  1  0.06371730  0.04316109  0.65144204  1  0.110825  6e-06  0.094921  0.140732  0.0  1.051568  0.0
H  H51  1  0.00438662  0.94999070  0.68220129  1  0.03506  0.000114  0.088218  0.1243  5.2e-05  1.022187  0.0
H  H52  1  0.14883635  0.06208493  0.77014503  1  0.020064  0.000142  0.091426  0.127002  5.8e-05  0.992862  0.0
H  H53  1  0.66038819  0.71994890  0.14871305  1  0.186685  0.000288  0.115065  0.07906  -7.1e-05  1.094113  0.0
H  H54  1  0.58004986  0.86930470  0.20990288  1  0.084443  9.2e-05  0.100292  0.102997  3.6e-05  1.046841  0.0
H  H55  1  0.31533747  0.85152307  0.13627780  1  0.066348  -0.000205  0.105633  0.107546  -0.000226  0.987062  0.0
H  H56  1  0.01525192  0.17928886  0.78353448  1  0.094793  0.001077  0.106235  0.109965  0.000447  1.027365  0.0
H  H57  1  0.78108754  0.04077087  0.66362711  1  0.074238  0.00193  0.11416  0.082901  0.000633  1.017402  0.001
H  H58  1  0.57839643  0.23159594  0.62561275  1  0.091803  0.001815  0.113851  0.08273  0.000562  1.022202  0.001
H  H59  1  0.80175335  0.37825438  0.74787035  1  0.104727  0.000956  0.104712  0.113555  0.000369  1.036585  0.001
H  H60  1  0.02044083  0.60801826  0.95582221  1  0.110494  6e-06  0.094816  0.140709  -0.0  1.051382  0.0
H  H61  1  0.05360508  0.73176772  0.04932982  1  0.03065  0.000121  0.088563  0.125347  5.4e-05  1.020867  0.0
H  H62  1  0.08656151  0.70811807  0.93745957  1  0.007275  0.000142  0.091674  0.127177  5.9e-05  0.991468  0.0
C  C63  1  0.16954829  0.59574339  0.71559016  1  0.434409  -0.006623  0.038198  0.07153  -0.007018  3.932698  -0.004
C  C64  1  0.29747086  0.64572623  0.79825472  1  -0.027238  0.000883  -0.094607  -0.130433  0.000151  4.017121  0.001
C  C65  1  0.43425328  0.67633534  0.78808551  1  -0.073888  -0.008547  -0.077793  -0.10591  -0.008998  3.973846  -0.005
C  C66  1  0.44319587  0.65661217  0.69554713  1  0.038265  0.001223  -0.000289  0.107644  0.000422  3.942266  0.001
C  C67  1  0.30940447  0.60472344  0.61526993  1  0.437062  -0.006448  0.119681  0.088304  -0.006967  3.936338  -0.004
C  C68  1  0.29474581  0.57275204  0.51340344  1  0.950268  -0.00368  0.201688  0.218462  -0.004272  4.069896  -0.003
C  C69  1  0.30844568  0.52980601  0.37208810  1  0.938249  -0.001503  0.195291  0.232968  -0.001949  4.09598  -0.001
C  C70  1  0.36257399  0.51595994  0.29046121  1  -0.032272  -0.001219  0.012714  0.070108  -0.001389  4.015744  -0.001
C  C71  1  0.27405995  0.44315413  0.19353370  1  -0.063656  0.002541  -0.086934  -0.177806  0.001223  3.976236  0.002
C  C72  1  0.32677382  0.43316738  0.11666171  1  0.523722  0.000816  0.037517  0.079849  -0.000532  3.975065  0.0
C  C73  1  0.54570125  0.56033133  0.22294464  1  0.484021  0.000402  0.040718  0.086366  -0.000907  3.949977  0.0
C  C74  1  0.50303286  0.57445675  0.30455627  1  -0.041199  0.003186  -0.082666  -0.15886  0.001549  3.925409  0.002
C  C75  1  0.59052465  0.69113006  0.68470533  1  -0.082638  3.2e-05  -0.242759  -0.416247  2.4e-05  3.953079  0.0
C  C76  1  0.57322890  0.11957981  0.40396416  1  0.42213  -0.006634  0.038324  0.072307  -0.007011  3.928884  -0.004
C  C77  1  0.65121168  0.15231693  0.35412598  1  0.000849  0.000898  -0.094193  -0.129852  0.000152  4.015834  0.001
C  C78  1  0.75753750  0.11158000  0.32358912  1  -0.048716  -0.008536  -0.078443  -0.106981  -0.009008  3.97438  -0.005
C  C79  1  0.78643760  0.03881836  0.34331014  1  0.040581  0.001221  0.000813  0.110475  0.000427  3.939591  0.001
C  C80  1  0.70458814  0.01047416  0.39518862  1  0.439286  -0.006443  0.118536  0.085523  -0.006968  3.937994  -0.004
C  C81  1  0.72216245  0.94068885  0.42722314  1  0.962063  -0.003685  0.202164  0.220136  -0.00427  4.0694  -0.003
C  C82  1  0.77884946  0.84234887  0.47015327  1  0.942185  -0.001505  0.195634  0.233587  -0.001956  4.09779  -0.001
C  C83  1  0.84684754  0.77457594  0.48405435  1  -0.049758  -0.001093  0.011175  0.06888  -0.001271  4.018055  -0.001
C  C84  1  0.83078494  0.75031749  0.55668901  1  -0.048822  0.00246  -0.087085  -0.17956  0.001192  3.976801  0.002
C  C85  1  0.89378368  0.68356396  0.56680210  1  0.489675  0.000969  0.037576  0.081894  -0.000469  3.971058  0.0
C  C86  1  0.98626460  0.66292294  0.43997630  1  0.426346  0.000592  0.041469  0.086768  -0.000833  3.949229  0.0
C  C87  1  0.92925977  0.73032465  0.42577876  1  0.037466  0.003141  -0.082315  -0.157319  0.001546  3.924024  0.002
C  C88  1  0.89944076  0.99349844  0.30888160  1  -0.073999  3.6e-05  -0.242927  -0.416625  2.6e-05  3.955932  0.0
C  C89  1  0.45411666  0.28443165  0.88051024  1  0.42116  -0.006629  0.037641  0.069657  -0.007013  3.931816  -0.004
C  C90  1  0.49953933  0.20185354  0.84789515  1  -0.06935  0.000814  -0.093594  -0.128227  0.000116  4.015982  0.001
C  C91  1  0.64658627  0.21209004  0.88879118  1  -0.003585  -0.008565  -0.078332  -0.106998  -0.00903  3.975169  -0.005
C  C92  1  0.74804142  0.30461515  0.96158229  1  0.051115  0.001196  0.001392  0.110141  0.000409  3.938359  0.001
C  C93  1  0.69439261  0.38482494  0.98977840  1  0.392419  -0.006497  0.119087  0.086707  -0.006997  3.934892  -0.004
C  C94  1  0.78159842  0.48667938  0.05949957  1  0.947849  -0.003725  0.200255  0.216455  -0.004318  4.069792  -0.003
C  C95  1  0.93649252  0.62798830  0.15752379  1  0.966762  -0.001498  0.19563  0.232723  -0.001951  4.097503  -0.001
C  C96  1  0.07222295  0.70966144  0.22522142  1  -0.041764  -0.00122  0.011784  0.068751  -0.001389  4.017856  -0.001
C  C97  1  0.08026716  0.80649648  0.24942287  1  -0.016754  0.002446  -0.086353  -0.176421  0.001227  3.974588  0.002
C  C98  1  0.20987948  0.88336223  0.31633099  1  0.480576  0.000923  0.037221  0.07916  -0.000538  3.972973  0.0
C  C99  1  0.32315527  0.77721200  0.33705977  1  0.474505  0.000508  0.041792  0.088211  -0.000875  3.95021  0.0
C  C100  1  0.19888744  0.69563204  0.26954064  1  -0.033954  0.003158  -0.083206  -0.159749  0.001567  3.927022  0.002
C  C101  1  0.90632183  0.31556204  0.00714203  1  -0.056113  3.4e-05  -0.243789  -0.418382  2.7e-05  3.953022  0.0
C  C102  1  0.83044403  0.40426908  0.28441008  1  0.434445  -0.006621  0.038223  0.07167  -0.007016  3.932817  -0.004
C  C103  1  0.70252255  0.35428845  0.20174725  1  -0.026982  0.000882  -0.094559  -0.130335  0.00015  4.017524  0.001
C  C104  1  0.56575011  0.32366977  0.21190920  1  -0.07351  -0.008542  -0.077844  -0.105985  -0.008992  3.974102  -0.005
C  C105  1  0.55680866  0.34338263  0.30444385  1  0.038135  0.001223  -0.000332  0.107559  0.000422  3.942371  0.001
C  C106  1  0.69059605  0.39526769  0.38472393  1  0.437214  -0.006446  0.11963  0.08827  -0.006964  3.936288  -0.004
C  C107  1  0.70523949  0.42723614  0.48659467  1  0.950053  -0.003679  0.201858  0.218574  -0.004271  4.069838  -0.003
C  C108  1  0.69156433  0.47019321  0.62789677  1  0.938986  -0.001502  0.195388  0.232876  -0.001948  4.096367  -0.001
C  C109  1  0.63743082  0.48404148  0.70952458  1  -0.032855  -0.001216  0.012837  0.07034  -0.001386  4.016104  -0.001
C  C110  1  0.72592959  0.55683994  0.80645004  1  -0.063676  0.002541  -0.086962  -0.17783  0.001223  3.976173  0.002
C  C111  1  0.67322100  0.56682890  0.88332492  1  0.523277  0.000817  0.037468  0.079781  -0.000532  3.975107  0.0
C  C112  1  0.45429315  0.43967451  0.77704236  1  0.480227  0.000406  0.040745  0.086395  -0.000904  3.94933  0.0
C  C113  1  0.49697851  0.42555350  0.69543047  1  -0.036883  0.003186  -0.082669  -0.159008  0.001549  3.925447  0.002
C  C114  1  0.40946886  0.30887211  0.31528745  1  -0.082614  3.2e-05  -0.242735  -0.416065  2.4e-05  3.952809  0.0
C  C115  1  0.42676391  0.88041721  0.59604252  1  0.422399  -0.006632  0.038344  0.07229  -0.007008  3.929201  -0.004
C  C116  1  0.34878282  0.84767493  0.64587430  1  0.000825  0.000897  -0.094267  -0.129873  0.000152  4.015699  0.001
C  C117  1  0.24244689  0.88841260  0.67640831  1  -0.049392  -0.008537  -0.078455  -0.106954  -0.009009  3.974259  -0.005
C  C118  1  0.21354106  0.96117130  0.65668964  1  0.040962  0.001221  0.000766  0.110436  0.000427  3.939464  0.001
C  C119  1  0.29539788  0.98951550  0.60481086  1  0.439626  -0.006447  0.118777  0.085693  -0.006972  3.937698  -0.004
C  C120  1  0.27782527  0.05930008  0.57277873  1  0.961568  -0.003686  0.202109  0.220195  -0.004271  4.069274  -0.003
C  C121  1  0.22114245  0.15765477  0.52985681  1  0.942324  -0.001506  0.195624  0.233774  -0.001956  4.097395  -0.001
C  C122  1  0.15315016  0.22542697  0.51596615  1  -0.05096  -0.001097  0.011071  0.068699  -0.001274  4.018261  -0.001
C  C123  1  0.16923315  0.24968836  0.44333414  1  -0.048205  0.002459  -0.087189  -0.179858  0.001192  3.976743  0.002
C  C124  1  0.10624515  0.31644851  0.43321970  1  0.488554  0.000969  0.037539  0.081988  -0.000472  3.970444  0.0
C  C125  1  0.01374314  0.33708291  0.56003490  1  0.42604  0.000592  0.041533  0.086809  -0.000834  3.949186  0.0
C  C126  1  0.07073741  0.26968120  0.57423546  1  0.038245  0.003141  -0.082411  -0.157322  0.001547  3.923937  0.002
C  C127  1  0.10054251  0.00649195  0.69111597  1  -0.073971  3.7e-05  -0.242915  -0.416639  2.6e-05  3.956066  0.0
C  C128  1  0.54589212  0.71556757  0.11948758  1  0.421287  -0.006629  0.037595  0.069432  -0.007014  3.931808  -0.004
C  C129  1  0.50046681  0.79814053  0.15210509  1  -0.069748  0.000814  -0.093646  -0.128133  0.000116  4.016326  0.001
C  C130  1  0.35341872  0.78790183  0.11121107  1  -0.003225  -0.008568  -0.078398  -0.107122  -0.009033  3.97565  -0.005
C  C131  1  0.25196170  0.69538334  0.03841762  1  0.051208  0.001197  0.001449  0.11024  0.000409  3.937958  0.001
C  C132  1  0.30561536  0.61516839  0.01021425  1  0.392866  -0.006503  0.119113  0.086926  -0.007003  3.934376  -0.004
C  C133  1  0.21841267  0.51332425  0.94049299  1  0.947273  -0.003725  0.200233  0.216471  -0.004317  4.069659  -0.003
C  C134  1  0.06351651  0.37200061  0.84245833  1  0.966868  -0.001498  0.195398  0.232384  -0.001951  4.097729  -0.001
C  C135  1  0.92778853  0.29034514  0.77477497  1  -0.043074  -0.001221  0.011746  0.068977  -0.00139  4.017802  -0.001
C  C136  1  0.91973673  0.19350569  0.75057937  1  -0.016092  0.002445  -0.086258  -0.176439  0.001227  3.974219  0.002
C  C137  1  0.79012261  0.11664067  0.68367633  1  0.480576  0.000921  0.037166  0.079201  -0.000539  3.972861  0.0
C  C138  1  0.67684278  0.22278059  0.66293878  1  0.474976  0.000506  0.041848  0.088223  -0.000877  3.950428  0.0
C  C139  1  0.80111790  0.30436865  0.73045552  1  -0.033927  0.003159  -0.083068  -0.159764  0.001567  3.926827  0.002
C  C140  1  0.09368436  0.68443424  0.99285917  1  -0.056806  3.4e-05  -0.243694  -0.418306  2.7e-05  3.953001  0.0
N  N141  1  0.17407707  0.57536290  0.62553418  1  -1.161491  0.002144  -0.314875  -0.190866  0.001237  3.575289  0.004
N  N142  1  0.15498140  0.51657399  0.44758662  1  -0.682719  -0.008764  -0.260614  -0.163924  -0.007987  3.693862  -0.005
N  N143  1  0.16302644  0.48801576  0.35694732  1  -0.666898  -0.006779  -0.223244  -0.260316  -0.007086  3.229306  -0.005
N  N144  1  0.39416003  0.58378612  0.46853309  1  -1.179958  -0.00143  -0.331301  -0.394294  -0.001293  3.17715  -0.001
N  N145  1  0.45958420  0.49149839  0.12982552  1  -1.20597  0.070422  -0.314431  -0.223108  0.037825  3.512205  0.061
N  N146  1  0.59838894  0.05000729  0.42443679  1  -1.163017  0.002438  -0.31449  -0.190174  0.001396  3.571625  0.005
N  N147  1  0.63842401  0.93102582  0.48328213  1  -0.692615  -0.008894  -0.259644  -0.162097  -0.008106  3.691109  -0.005
N  N148  1  0.67505005  0.86896360  0.51183148  1  -0.667327  -0.006791  -0.222933  -0.260168  -0.007096  3.226551  -0.005
N  N149  1  0.81068685  0.88482596  0.41627358  1  -1.191086  -0.001442  -0.332783  -0.396558  -0.001304  3.178489  -0.001
N  N150  1  0.96874098  0.63856962  0.50869796  1  -1.196553  0.070518  -0.314753  -0.223966  0.037845  3.51262  0.061
N  N151  1  0.54867379  0.37448935  0.95011640  1  -1.164819  0.002422  -0.314868  -0.190373  0.001381  3.572823  0.004
N  N152  1  0.70734873  0.55233871  0.06912035  1  -0.701172  -0.00885  -0.259462  -0.162375  -0.008078  3.692288  -0.005
N  N153  1  0.80595286  0.64296319  0.13098289  1  -0.669319  -0.006784  -0.223648  -0.260071  -0.007094  3.229237  -0.005
N  N154  1  0.92604695  0.53165064  0.11518579  1  -1.160808  -0.001473  -0.330846  -0.393034  -0.001342  3.177302  -0.001
N  N155  1  0.32983248  0.87027220  0.36147535  1  -1.201179  0.070411  -0.314562  -0.224066  0.037831  3.515162  0.061
N  N156  1  0.82591424  0.42463706  0.37446048  1  -1.16178  0.002137  -0.314821  -0.190765  0.001232  3.575129  0.004
N  N157  1  0.84501454  0.48343112  0.55241401  1  -0.682557  -0.008764  -0.260617  -0.164103  -0.007988  3.693322  -0.005
N  N158  1  0.83697290  0.51199818  0.64305509  1  -0.666897  -0.006772  -0.223199  -0.260097  -0.007078  3.22926  -0.005
N  N159  1  0.60584282  0.41620132  0.53146196  1  -1.180376  -0.00143  -0.331417  -0.394209  -0.001294  3.177672  -0.001
N  N160  1  0.54041070  0.50850451  0.87016963  1  -1.205943  0.070424  -0.314487  -0.223275  0.037825  3.512324  0.061
N  N161  1  0.40160423  0.94998826  0.57556618  1  -1.163574  0.002438  -0.314553  -0.19019  0.001395  3.571691  0.005
N  N162  1  0.36157657  0.06897415  0.51672683  1  -0.692069  -0.008893  -0.259795  -0.162338  -0.008106  3.69147  -0.005
N  N163  1  0.32495338  0.13104225  0.48818729  1  -0.666839  -0.006795  -0.222776  -0.26007  -0.0071  3.226571  -0.005
N  N164  1  0.18929491  0.11516370  0.58372972  1  -1.190698  -0.001443  -0.332775  -0.396647  -0.001306  3.178005  -0.001
N  N165  1  0.03127726  0.36143844  0.49131930  1  -1.196562  0.070515  -0.314752  -0.224102  0.037848  3.512395  0.061
N  N166  1  0.45133728  0.62550177  0.04987506  1  -1.165087  0.002424  -0.314896  -0.190401  0.001383  3.572307  0.005
N  N167  1  0.29266037  0.44765462  0.93086621  1  -0.700638  -0.008848  -0.259443  -0.162413  -0.008078  3.691936  -0.005
N  N168  1  0.19405176  0.35703161  0.86900124  1  -0.669476  -0.006785  -0.22353  -0.259887  -0.007094  3.229696  -0.005
N  N169  1  0.07396258  0.46835814  0.88480382  1  -1.160659  -0.001476  -0.330734  -0.393055  -0.001344  3.176736  -0.001
N  N170  1  0.67017110  0.12973364  0.63853219  1  -1.201338  0.07041  -0.314636  -0.224142  0.037829  3.515539  0.061
