# generated using pymatgen
data_CuH5C5IBrN2
_symmetry_space_group_name_H-M   'P 1'
_cell_length_a   4.11477549
_cell_length_b   8.65373397
_cell_length_c   21.76116316
_cell_angle_alpha   97.86536353
_cell_angle_beta   89.99831032
_cell_angle_gamma   90.00006614
_symmetry_Int_Tables_number   1
_chemical_formula_structural   CuH5C5IBrN2
_chemical_formula_sum   'Cu4 H20 C20 I4 Br4 N8'
_cell_volume   767.58551066
_cell_formula_units_Z   4
loop_
 _symmetry_equiv_pos_site_id
 _symmetry_equiv_pos_as_xyz
  1  'x, y, z'
loop_
 _atom_site_type_symbol
 _atom_site_label
 _atom_site_symmetry_multiplicity
 _atom_site_fract_x
 _atom_site_fract_y
 _atom_site_fract_z
 _atom_site_occupancy
 _atom_site_hle17_bader_spin_density
 _atom_site_hle17_ddec_charge
 _atom_site_hle17_ddec_spin_density
 _atom_site_hle17_ddec_sum_bond_order
 _atom_site_hle17_magmom
 _atom_site_hse06_10hf_bader_spin_density
 _atom_site_hse06_10hf_ddec_charge
 _atom_site_hse06_10hf_ddec_spin_density
 _atom_site_hse06_10hf_ddec_sum_bond_order
 _atom_site_hse06_10hf_magmom
 _atom_site_hse06_bader_spin_density
 _atom_site_hse06_ddec_charge
 _atom_site_hse06_ddec_spin_density
 _atom_site_hse06_ddec_sum_bond_order
 _atom_site_hse06_magmom
 _atom_site_pbe_bader_spin_density
 _atom_site_pbe_cm5_charge
 _atom_site_pbe_ddec_charge
 _atom_site_pbe_ddec_spin_density
 _atom_site_pbe_ddec_sum_bond_order
 _atom_site_pbe_magmom
Cu  Cu0  1  0.16112914  0.03810673  0.70762211  1  0  0.234864  0  2.14764  0  0  0.156361  0  2.615217  0  0  0.169624  0  2.559984  0  0  0.240571  0.148832  0  2.653016  0
Cu  Cu1  1  0.66122915  0.96189252  0.79238090  1  0  0.234777  0  2.147667  0  0  0.156302  0  2.615197  0  0  0.169585  0  2.559967  0  0  0.240573  0.148772  0  2.65299  0
Cu  Cu2  1  0.83883920  0.96189610  0.29237792  1  0  0.234747  0  2.14768  0  0  0.156254  0  2.615247  0  0  0.16955  0  2.560014  0  0  0.240542  0.148725  0  2.653025  0
Cu  Cu3  1  0.33877807  0.03810799  0.20761854  1  0  0.234815  0  2.147658  0  0  0.15632  0  2.615226  0  0  0.16957  0  2.559993  0  0  0.240587  0.14879  0  2.653025  0
H  H4  1  0.52191520  0.29077298  0.73300587  1  0  0.306756  0  0.918362  0  0  0.287858  0  0.993295  0  0  0.296216  0  0.984272  0  0  0.280382  0.281573  0  1.000174  0
H  H5  1  0.02192728  0.70922899  0.76699259  1  0  0.306652  0  0.91833  0  0  0.287724  0  0.993286  0  0  0.296082  0  0.984265  0  0  0.280349  0.28144  0  1.000158  0
H  H6  1  0.47808230  0.70922516  0.26699481  1  0  0.306737  0  0.918414  0  0  0.287849  0  0.993299  0  0  0.296205  0  0.98428  0  0  0.280399  0.28157  0  1.000171  0
H  H7  1  0.97806292  0.29077272  0.23300600  1  0  0.306685  0  0.918392  0  0  0.287822  0  0.993219  0  0  0.29618  0  0.984195  0  0  0.280373  0.281539  0  1.000099  0
H  H8  1  0.57927331  0.47925890  0.71817201  1  0  0.317032  0  0.91468  0  0  0.299803  0  0.980258  0  0  0.306242  0  0.976325  0  0  0.291782  0.295297  0  0.982897  0
H  H9  1  0.07928260  0.52074070  0.78182368  1  0  0.317049  0  0.914799  0  0  0.299828  0  0.980355  0  0  0.306268  0  0.976422  0  0  0.291823  0.295322  0  0.98299  0
H  H10  1  0.42072661  0.52074038  0.28182965  1  0  0.31705  0  0.914735  0  0  0.299821  0  0.980311  0  0  0.306259  0  0.976379  0  0  0.291797  0.295314  0  0.982953  0
H  H11  1  0.92072219  0.47925984  0.21817438  1  0  0.317054  0  0.91493  0  0  0.299822  0  0.980492  0  0  0.306261  0  0.976561  0  0  0.29182  0.295314  0  0.983135  0
H  H12  1  0.88161367  0.52591597  0.54967870  1  0  0.100611  0  0.965672  0  0  0.107243  0  1.037001  0  0  0.110736  0  1.033055  0  0  0.095077  0.104698  0  1.03982  0
H  H13  1  0.38159492  0.47407243  0.95032240  1  0  0.100525  0  0.965506  0  0  0.107139  0  1.03693  0  0  0.110632  0  1.032984  0  0  0.095022  0.104593  0  1.039745  0
H  H14  1  0.11839598  0.47408684  0.45032179  1  0  0.100666  0  0.965636  0  0  0.107309  0  1.036972  0  0  0.110804  0  1.03302  0  0  0.095098  0.104759  0  1.039792  0
H  H15  1  0.61840987  0.52591985  0.04967884  1  0  0.100573  0  0.96559  0  0  0.107235  0  1.036935  0  0  0.110732  0  1.032978  0  0  0.095027  0.104683  0  1.039757  0
H  H16  1  0.22859902  0.58941103  0.64312540  1  0  0.108555  0  0.9955  0  0  0.11881  0  1.057483  0  0  0.122176  0  1.057291  0  0  0.083152  0.116199  0  1.058212  0
H  H17  1  0.72860745  0.41058354  0.85687373  1  0  0.108574  0  0.995444  0  0  0.118807  0  1.057458  0  0  0.122175  0  1.057253  0  0  0.083165  0.116196  0  1.058187  0
H  H18  1  0.77139605  0.41059058  0.35687640  1  0  0.108583  0  0.995412  0  0  0.118832  0  1.057414  0  0  0.122203  0  1.057208  0  0  0.083165  0.11622  0  1.05815  0
H  H19  1  0.27140462  0.58941464  0.14312556  1  0  0.108607  0  0.995456  0  0  0.11883  0  1.05747  0  0  0.122195  0  1.05728  0  0  0.083182  0.116217  0  1.05821  0
H  H20  1  0.87230234  0.04696957  0.58534624  1  0  0.078209  0  0.98278  0  0  0.082195  0  1.059534  0  0  0.085671  0  1.055475  0  0  0.090982  0.079685  0  1.062436  0
H  H21  1  0.37228554  0.95302121  0.91465414  1  0  0.078155  0  0.982991  0  0  0.082198  0  1.059712  0  0  0.085649  0  1.055671  0  0  0.090911  0.079689  0  1.062616  0
H  H22  1  0.12771946  0.95302982  0.41465129  1  0  0.078254  0  0.982744  0  0  0.082178  0  1.059557  0  0  0.085652  0  1.055498  0  0  0.09096  0.079664  0  1.062452  0
H  H23  1  0.62770223  0.04697464  0.08534502  1  0  0.078137  0  0.982855  0  0  0.082153  0  1.059609  0  0  0.085623  0  1.055548  0  0  0.09094  0.07964  0  1.062514  0
C  C24  1  0.95570303  0.43448905  0.57652136  1  0  -0.050129  0  3.783999  0  0  -0.078671  0  4.039677  0  0  -0.071957  0  4.055977  0  0  -0.088628  -0.082818  0  4.028571  0
C  C25  1  0.45570319  0.56550519  0.92347552  1  0  -0.049835  0  3.784123  0  0  -0.078353  0  4.039695  0  0  -0.071647  0  4.05601  0  0  -0.088524  -0.082497  0  4.028581  0
C  C26  1  0.04429933  0.56550449  0.42347674  1  0  -0.050183  0  3.783902  0  0  -0.078728  0  4.039533  0  0  -0.072015  0  4.055835  0  0  -0.088629  -0.082872  0  4.028419  0
C  C27  1  0.54430645  0.43449773  0.07652129  1  0  -0.049938  0  3.783859  0  0  -0.078464  0  4.0394  0  0  -0.071752  0  4.055701  0  0  -0.088507  -0.082606  0  4.028277  0
C  C28  1  0.86461287  0.27879146  0.55909193  1  0  0.003854  0  3.74476  0  0  0.02091  0  4.01464  0  0  0.016426  0  4.038007  0  0  -0.040238  0.023459  0  3.998992  0
C  C29  1  0.36459142  0.72119930  0.94090941  1  0  0.003817  0  3.744501  0  0  0.020857  0  4.01446  0  0  0.016365  0  4.037826  0  0  -0.040214  0.023415  0  3.9988  0
C  C30  1  0.13539920  0.72121603  0.44090837  1  0  0.003766  0  3.744592  0  0  0.020812  0  4.014502  0  0  0.016326  0  4.037866  0  0  -0.040281  0.023371  0  3.998828  0
C  C31  1  0.63540364  0.27878831  0.05909156  1  0  0.003734  0  3.744608  0  0  0.020756  0  4.014583  0  0  0.016264  0  4.037946  0  0  -0.040269  0.023326  0  3.998899  0
C  C32  1  0.14558202  0.47022334  0.62887238  1  0  -0.21602  0  3.70545  0  0  -0.22576  0  3.951448  0  0  -0.236776  0  3.971198  0  0  -0.107683  -0.218916  0  3.9386  0
C  C33  1  0.64557407  0.52977474  0.87113158  1  0  -0.216303  0  3.705602  0  0  -0.225874  0  3.95157  0  0  -0.236889  0  3.971332  0  0  -0.107801  -0.219027  0  3.938722  0
C  C34  1  0.85442033  0.52977941  0.37113041  1  0  -0.216041  0  3.705569  0  0  -0.225768  0  3.951534  0  0  -0.236784  0  3.971288  0  0  -0.10771  -0.218925  0  3.938697  0
C  C35  1  0.35442342  0.47022690  0.12886930  1  0  -0.216234  0  3.705537  0  0  -0.225911  0  3.951632  0  0  -0.236928  0  3.971383  0  0  -0.107791  -0.219065  0  3.938791  0
C  C36  1  0.94776386  0.16822788  0.59665921  1  0  0.087519  0  3.715858  0  0  0.045712  0  3.974049  0  0  0.055981  0  3.988426  0  0  0.018418  0.038921  0  3.964457  0
C  C37  1  0.44776057  0.83176987  0.90333793  1  0  0.087355  0  3.716376  0  0  0.045496  0  3.974563  0  0  0.055752  0  3.989022  0  0  0.018394  0.038703  0  3.964957  0
C  C38  1  0.05223120  0.83176804  0.40333720  1  0  0.087488  0  3.716371  0  0  0.04576  0  3.974556  0  0  0.056001  0  3.988985  0  0  0.018492  0.038975  0  3.964929  0
C  C39  1  0.55222478  0.16823650  0.09666093  1  0  0.087591  0  3.716501  0  0  0.045808  0  3.974596  0  0  0.056035  0  3.989078  0  0  0.018504  0.039016  0  3.964983  0
C  C40  1  0.23668017  0.35142562  0.66382348  1  0  0.465047  0  3.792562  0  0  0.438551  0  4.046974  0  0  0.457423  0  4.061804  0  0  0.214266  0.425971  0  4.036687  0
C  C41  1  0.73669243  0.64857140  0.83617116  1  0  0.465226  0  3.792328  0  0  0.438465  0  4.04714  0  0  0.457335  0  4.061974  0  0  0.214393  0.425875  0  4.036863  0
C  C42  1  0.76331733  0.64857136  0.33617667  1  0  0.465021  0  3.79232  0  0  0.438532  0  4.046751  0  0  0.457401  0  4.061574  0  0  0.214302  0.425937  0  4.036493  0
C  C43  1  0.26331235  0.35143038  0.16382468  1  0  0.465185  0  3.792182  0  0  0.438537  0  4.046855  0  0  0.457412  0  4.061676  0  0  0.21433  0.425945  0  4.036587  0
I  I44  1  0.65135157  0.84944777  0.67450764  1  0  -0.340587  0  1.899879  0  0  -0.28741  0  2.388676  0  0  -0.300867  0  2.338985  0  0  -0.158125  -0.277747  0  2.424377  0
I  I45  1  0.15141634  0.15054919  0.82549437  1  0  -0.340445  0  1.899836  0  0  -0.287325  0  2.388738  0  0  -0.300762  0  2.338993  0  0  -0.158056  -0.277669  0  2.424451  0
I  I46  1  0.34863135  0.15055273  0.32549225  1  0  -0.340522  0  1.899828  0  0  -0.287367  0  2.388669  0  0  -0.300815  0  2.338942  0  0  -0.158092  -0.277702  0  2.424356  0
I  I47  1  0.84859330  0.84944899  0.17450493  1  0  -0.340467  0  1.899815  0  0  -0.287327  0  2.388682  0  0  -0.300764  0  2.338958  0  0  -0.158069  -0.277669  0  2.424389  0
Br  Br48  1  0.64532836  0.21749061  0.48249275  1  0  -0.058761  0  1.389186  0  0  -0.048597  0  1.677594  0  0  -0.054102  0  1.67323  0  0  0.037675  -0.045026  0  1.68105  0
Br  Br49  1  0.14528115  0.78250435  0.01750795  1  0  -0.058786  0  1.389212  0  0  -0.048617  0  1.677631  0  0  -0.054111  0  1.673266  0  0  0.037652  -0.04504  0  1.681089  0
Br  Br50  1  0.35468372  0.78250986  0.51750806  1  0  -0.058753  0  1.389222  0  0  -0.048592  0  1.677632  0  0  -0.054089  0  1.673271  0  0  0.037663  -0.045024  0  1.68108  0
Br  Br51  1  0.85472120  0.21749498  0.98249188  1  0  -0.058799  0  1.389174  0  0  -0.048631  0  1.677594  0  0  -0.054125  0  1.673229  0  0  0.037631  -0.045064  0  1.681046  0
N  N52  1  0.42935756  0.38445032  0.71521646  1  0  -0.673095  0  3.122329  0  0  -0.629992  0  3.349521  0  0  -0.650293  0  3.347012  0  0  -0.591272  -0.615722  0  3.351088  0
N  N53  1  0.92935563  0.61554503  0.78478387  1  0  -0.672985  0  3.122618  0  0  -0.62976  0  3.34994  0  0  -0.650061  0  3.34744  0  0  -0.591244  -0.615484  0  3.351497  0
N  N54  1  0.57063750  0.61554899  0.28478383  1  0  -0.673034  0  3.122342  0  0  -0.629911  0  3.349556  0  0  -0.650212  0  3.34705  0  0  -0.59126  -0.615645  0  3.351135  0
N  N55  1  0.07063215  0.38445431  0.21521550  1  0  -0.67309  0  3.122599  0  0  -0.629909  0  3.34989  0  0  -0.65021  0  3.347385  0  0  -0.591274  -0.615632  0  3.351464  0
N  N56  1  0.12388753  0.20331888  0.64931427  1  0  -0.363886  0  3.269823  0  0  -0.287064  0  3.552153  0  0  -0.306562  0  3.561805  0  0  -0.366389  -0.274453  0  3.545501  0
N  N57  1  0.62389075  0.79667811  0.85068836  1  0  -0.363737  0  3.270051  0  0  -0.286837  0  3.55246  0  0  -0.306308  0  3.562049  0  0  -0.366399  -0.274236  0  3.545845  0
N  N58  1  0.87612212  0.79668389  0.35068759  1  0  -0.363803  0  3.270018  0  0  -0.287025  0  3.552398  0  0  -0.306518  0  3.562056  0  0  -0.366484  -0.274409  0  3.545732  0
N  N59  1  0.37611161  0.20331774  0.14931080  1  0  -0.363833  0  3.270019  0  0  -0.286996  0  3.552444  0  0  -0.306462  0  3.562018  0  0  -0.366459  -0.274397  0  3.54584  0
