# generated using pymatgen
data_CaH16C16(NO5)2
_symmetry_space_group_name_H-M   'P 1'
_cell_length_a   7.69637789
_cell_length_b   10.81662697
_cell_length_c   12.07035336
_cell_angle_alpha   107.75092537
_cell_angle_beta   104.95576779
_cell_angle_gamma   89.75487807
_symmetry_Int_Tables_number   1
_chemical_formula_structural   CaH16C16(NO5)2
_chemical_formula_sum   'Ca2 H32 C32 N4 O20'
_cell_volume   921.55746318
_cell_formula_units_Z   2
loop_
 _symmetry_equiv_pos_site_id
 _symmetry_equiv_pos_as_xyz
  1  'x, y, z'
loop_
 _atom_site_type_symbol
 _atom_site_label
 _atom_site_symmetry_multiplicity
 _atom_site_fract_x
 _atom_site_fract_y
 _atom_site_fract_z
 _atom_site_occupancy
 _atom_site_hle17_bader_spin_density
 _atom_site_hle17_ddec_charge
 _atom_site_hle17_ddec_spin_density
 _atom_site_hle17_ddec_sum_bond_order
 _atom_site_hle17_magmom
 _atom_site_hse06_10hf_bader_spin_density
 _atom_site_hse06_10hf_ddec_charge
 _atom_site_hse06_10hf_ddec_spin_density
 _atom_site_hse06_10hf_ddec_sum_bond_order
 _atom_site_hse06_10hf_magmom
 _atom_site_hse06_bader_spin_density
 _atom_site_hse06_ddec_charge
 _atom_site_hse06_ddec_spin_density
 _atom_site_hse06_ddec_sum_bond_order
 _atom_site_hse06_magmom
 _atom_site_pbe_bader_spin_density
 _atom_site_pbe_cm5_charge
 _atom_site_pbe_ddec_charge
 _atom_site_pbe_ddec_spin_density
 _atom_site_pbe_ddec_sum_bond_order
 _atom_site_pbe_magmom
Ca  Ca0  1  0.76361487  0.46576895  0.52853784  1  0  1.549418  0  1.101748  0  0  1.415738  0  1.452145  0  0  1.461381  0  1.404604  0  0  0.87663  1.381766  0  1.485186  0
Ca  Ca1  1  0.23638867  0.53422968  0.47146063  1  0  1.549415  0  1.101722  0  0  1.415725  0  1.452135  0  0  1.461386  0  1.404564  0  0  0.876626  1.381757  0  1.485173  0
H  H2  1  0.58544956  0.24498315  0.16386998  1  0  0.117354  0  0.959748  0  0  0.125411  0  1.01907  0  0  0.129453  0  1.016586  0  0  0.110294  0.12244  0  1.021033  0
H  H3  1  0.41454592  0.75501554  0.83612718  1  0  0.117368  0  0.959693  0  0  0.125415  0  1.019026  0  0  0.129459  0  1.016537  0  0  0.110299  0.122431  0  1.021005  0
H  H4  1  0.39474440  0.07262216  0.98597611  1  0  0.106278  0  0.958858  0  0  0.113829  0  1.026294  0  0  0.116702  0  1.024507  0  0  0.108958  0.111581  0  1.027958  0
H  H5  1  0.60525011  0.92737948  0.01402005  1  0  0.106287  0  0.958885  0  0  0.113836  0  1.026326  0  0  0.116709  0  1.024539  0  0  0.108944  0.111592  0  1.027987  0
H  H6  1  0.49304216  0.27786441  0.75023511  1  0  0.1241  0  0.927491  0  0  0.134337  0  0.98271  0  0  0.137789  0  0.980453  0  0  0.121109  0.131706  0  0.984524  0
H  H7  1  0.50695650  0.72213815  0.24976366  1  0  0.124047  0  0.927538  0  0  0.13427  0  0.98278  0  0  0.137721  0  0.980525  0  0  0.121066  0.131648  0  0.984579  0
H  H8  1  0.68523851  0.44837536  0.92663230  1  0  0.116816  0  0.955466  0  0  0.121639  0  1.023432  0  0  0.12567  0  1.020988  0  0  0.106449  0.118745  0  1.025275  0
H  H9  1  0.31476271  0.55162619  0.07336910  1  0  0.116796  0  0.955503  0  0  0.121638  0  1.023437  0  0  0.125672  0  1.020992  0  0  0.106458  0.118739  0  1.025279  0
H  H10  1  0.91015463  0.45929969  0.15130041  1  0  0.130985  0  0.92863  0  0  0.142054  0  0.991108  0  0  0.144238  0  0.989646  0  0  0.112923  0.140573  0  0.992092  0
H  H11  1  0.08984391  0.54070192  0.84869642  1  0  0.131022  0  0.92855  0  0  0.142086  0  0.991032  0  0  0.144272  0  0.989566  0  0  0.112943  0.140605  0  0.992019  0
H  H12  1  0.73257768  0.55911206  0.15298534  1  0  0.121806  0  0.94698  0  0  0.135502  0  1.010329  0  0  0.136995  0  1.010271  0  0  0.10777  0.134451  0  1.010494  0
H  H13  1  0.26741779  0.44088662  0.84701347  1  0  0.121772  0  0.946996  0  0  0.13547  0  1.010342  0  0  0.136964  0  1.01028  0  0  0.107758  0.134421  0  1.010504  0
H  H14  1  0.80920930  0.08220956  0.57047401  1  0  0.112802  0  0.95805  0  0  0.117676  0  1.025504  0  0  0.121652  0  1.02286  0  0  0.108257  0.114771  0  1.027543  0
H  H15  1  0.19078250  0.91779204  0.42952832  1  0  0.112777  0  0.958003  0  0  0.117664  0  1.02545  0  0  0.12164  0  1.022804  0  0  0.108237  0.11476  0  1.027489  0
H  H16  1  0.99245955  0.25349132  0.75010342  1  0  0.124411  0  0.929838  0  0  0.133796  0  0.98809  0  0  0.137602  0  0.985105  0  0  0.122408  0.131044  0  0.990243  0
H  H17  1  0.00753483  0.74650930  0.24989741  1  0  0.124418  0  0.929818  0  0  0.133804  0  0.988073  0  0  0.137608  0  0.985093  0  0  0.122394  0.13105  0  0.990227  0
H  H18  1  0.86616741  0.05387584  0.98240885  1  0  0.111392  0  0.953589  0  0  0.11748  0  1.020515  0  0  0.12091  0  1.017941  0  0  0.11056  0.115023  0  1.022359  0
H  H19  1  0.13383368  0.94612473  0.01759308  1  0  0.111405  0  0.953553  0  0  0.117491  0  1.020476  0  0  0.120925  0  1.017892  0  0  0.110567  0.11503  0  1.022339  0
H  H20  1  0.67817624  0.88181271  0.80153990  1  0  0.107334  0  0.933796  0  0  0.119084  0  0.991555  0  0  0.121905  0  0.990892  0  0  0.108679  0.117105  0  0.992087  0
H  H21  1  0.32182839  0.11818391  0.19846317  1  0  0.10735  0  0.933727  0  0  0.119099  0  0.991501  0  0  0.121928  0  0.990829  0  0  0.108683  0.117119  0  0.992032  0
H  H22  1  0.60770453  0.89009639  0.48298231  1  0  0.126923  0  0.954725  0  0  0.140065  0  1.016369  0  0  0.142409  0  1.015016  0  0  0.107931  0.138407  0  1.017449  0
H  H23  1  0.39230572  0.10990216  0.51701974  1  0  0.12693  0  0.954658  0  0  0.140041  0  1.016337  0  0  0.142385  0  1.014982  0  0  0.107909  0.138383  0  1.01741  0
H  H24  1  0.46339895  0.87887911  0.57232556  1  0  0.116888  0  0.942705  0  0  0.127086  0  1.011008  0  0  0.128812  0  1.010397  0  0  0.107202  0.12589  0  1.011457  0
H  H25  1  0.53660569  0.12111757  0.42767172  1  0  0.11687  0  0.942617  0  0  0.127079  0  1.010885  0  0  0.128798  0  1.010284  0  0  0.107207  0.125886  0  1.011331  0
H  H26  1  0.58789490  0.53434299  0.72293675  1  0  0.43274  0  0.868696  0  0  0.401128  0  0.933778  0  0  0.412489  0  0.917225  0  0  0.298119  0.393055  0  0.945531  0
H  H27  1  0.41210340  0.46565666  0.27706032  1  0  0.432741  0  0.86869  0  0  0.401128  0  0.933772  0  0  0.41249  0  0.917218  0  0  0.298127  0.393054  0  0.945527  0
H  H28  1  0.78647081  0.59634801  0.79151795  1  0  0.408025  0  0.890009  0  0  0.372731  0  0.962557  0  0  0.38367  0  0.946157  0  0  0.2956  0.364941  0  0.974215  0
H  H29  1  0.21352870  0.40365066  0.20847904  1  0  0.407987  0  0.890019  0  0  0.37269  0  0.962602  0  0  0.383626  0  0.946207  0  0  0.295573  0.364899  0  0.974262  0
H  H30  1  0.99344183  0.25900678  0.44683294  1  0  0.434772  0  0.865647  0  0  0.403122  0  0.929959  0  0  0.414676  0  0.913137  0  0  0.298489  0.394924  0  0.941887  0
H  H31  1  0.00656292  0.74099085  0.55316711  1  0  0.434794  0  0.865623  0  0  0.403149  0  0.929925  0  0  0.414703  0  0.913102  0  0  0.298494  0.394949  0  0.941857  0
H  H32  1  0.80743584  0.18031930  0.38251781  1  0  0.406147  0  0.893083  0  0  0.372755  0  0.961923  0  0  0.383552  0  0.945699  0  0  0.293069  0.365058  0  0.973488  0
H  H33  1  0.19256648  0.81968032  0.61747991  1  0  0.406185  0  0.893037  0  0  0.372784  0  0.961889  0  0  0.383582  0  0.945664  0  0  0.293078  0.365089  0  0.973451  0
C  C34  1  0.64842961  0.35933902  0.05828756  1  0  0.179242  0  3.650852  0  0  0.188317  0  3.894751  0  0  0.191879  0  3.91798  0  0  0.016557  0.185763  0  3.879157  0
C  C35  1  0.35157002  0.64066061  0.94171137  1  0  0.179148  0  3.651056  0  0  0.188226  0  3.894924  0  0  0.191787  0  3.918151  0  0  0.016531  0.185669  0  3.879329  0
C  C36  1  0.56547944  0.25251243  0.07373336  1  0  -0.108223  0  3.679549  0  0  -0.129671  0  3.934798  0  0  -0.134413  0  3.954276  0  0  -0.084386  -0.126456  0  3.921711  0
C  C37  1  0.43451750  0.74748723  0.92626431  1  0  -0.10819  0  3.679562  0  0  -0.129624  0  3.934797  0  0  -0.134363  0  3.954273  0  0  -0.084374  -0.126397  0  3.921718  0
C  C38  1  0.45835752  0.15612076  0.97505468  1  0  -0.092023  0  3.749388  0  0  -0.123149  0  4.019166  0  0  -0.122031  0  4.039226  0  0  -0.084701  -0.123677  0  4.005732  0
C  C39  1  0.54163832  0.84388085  0.02494419  1  0  -0.092157  0  3.749473  0  0  -0.123298  0  4.019273  0  0  -0.122183  0  4.03934  0  0  -0.084751  -0.123828  0  4.005839  0
C  C40  1  0.43252901  0.16697088  0.85967792  1  0  0.043586  0  3.757137  0  0  0.032105  0  4.023922  0  0  0.026324  0  4.049606  0  0  0.068825  0.03575  0  4.006597  0
C  C41  1  0.56746819  0.83303074  0.14031869  1  0  0.043727  0  3.75708  0  0  0.032247  0  4.023858  0  0  0.026467  0  4.049543  0  0  0.068897  0.035889  0  4.006538  0
C  C42  1  0.51185577  0.27236555  0.84109042  1  0  -0.083517  0  3.727993  0  0  -0.108551  0  3.985461  0  0  -0.10687  0  4.004551  0  0  -0.073863  -0.109272  0  3.972413  0
C  C43  1  0.48814142  0.72763604  0.15890949  1  0  -0.083532  0  3.727989  0  0  -0.108563  0  3.985472  0  0  -0.106887  0  4.004566  0  0  -0.073854  -0.109291  0  3.972412  0
C  C44  1  0.61978127  0.36735373  0.94067483  1  0  -0.113458  0  3.669112  0  0  -0.132425  0  3.922668  0  0  -0.138706  0  3.945068  0  0  -0.082742  -0.128088  0  3.907624  0
C  C45  1  0.38021701  0.63264591  0.05932388  1  0  -0.113364  0  3.669134  0  0  -0.132354  0  3.92269  0  0  -0.138635  0  3.945089  0  0  -0.082728  -0.128014  0  3.907642  0
C  C46  1  0.77213249  0.46360260  0.16124923  1  0  -0.33017  0  3.676055  0  0  -0.369206  0  3.914024  0  0  -0.374641  0  3.919981  0  0  -0.156847  -0.365263  0  3.909698  0
C  C47  1  0.22786849  0.53639702  0.83874909  1  0  -0.330103  0  3.67603  0  0  -0.369097  0  3.913934  0  0  -0.374542  0  3.919914  0  0  -0.156794  -0.365156  0  3.909609  0
C  C48  1  0.77880141  0.46856828  0.28920264  1  0  0.737823  0  3.845579  0  0  0.691463  0  4.138415  0  0  0.72548  0  4.12993  0  0  0.226781  0.668223  0  4.143416  0
C  C49  1  0.22120092  0.53143133  0.71079590  1  0  0.737777  0  3.845562  0  0  0.691367  0  4.13847  0  0  0.725386  0  4.129981  0  0  0.226729  0.668128  0  4.143472  0
C  C50  1  0.72719179  0.97133520  0.67370238  1  0  0.173202  0  3.681488  0  0  0.181126  0  3.927926  0  0  0.184742  0  3.950995  0  0  0.013478  0.178775  0  3.912294  0
C  C51  1  0.27281039  0.02866338  0.32630165  1  0  0.173302  0  3.681335  0  0  0.181143  0  3.927875  0  0  0.184757  0  3.950943  0  0  0.013477  0.178793  0  3.912242  0
C  C52  1  0.81929086  0.07532711  0.66015438  1  0  -0.101306  0  3.6651  0  0  -0.118127  0  3.914725  0  0  -0.123737  0  3.935827  0  0  -0.076262  -0.114357  0  3.900383  0
C  C53  1  0.18070205  0.92467256  0.33984511  1  0  -0.101332  0  3.665081  0  0  -0.118123  0  3.914706  0  0  -0.123732  0  3.935808  0  0  -0.076249  -0.114357  0  3.900364  0
C  C54  1  0.92424685  0.17142037  0.76038992  1  0  -0.074877  0  3.712587  0  0  -0.105994  0  3.973819  0  0  -0.10422  0  3.992401  0  0  -0.073324  -0.106961  0  3.961044  0
C  C55  1  0.07575044  0.82858214  0.23961523  1  0  -0.074774  0  3.712576  0  0  -0.105909  0  3.97379  0  0  -0.104135  0  3.992377  0  0  -0.07327  -0.106879  0  3.961015  0
C  C56  1  0.93963858  0.16105046  0.87510436  1  0  0.044294  0  3.740782  0  0  0.036838  0  4.002059  0  0  0.031138  0  4.027578  0  0  0.069738  0.040457  0  3.984808  0
C  C57  1  0.06036129  0.83895110  0.12489681  1  0  0.044086  0  3.741029  0  0  0.03667  0  4.002267  0  0  0.030961  0  4.027798  0  0  0.069686  0.040301  0  3.985001  0
C  C58  1  0.85250858  0.05731028  0.89146733  1  0  -0.090883  0  3.74919  0  0  -0.118689  0  4.012319  0  0  -0.117291  0  4.031855  0  0  -0.080835  -0.119204  0  3.998893  0
C  C59  1  0.14749238  0.94268928  0.10853761  1  0  -0.090852  0  3.749403  0  0  -0.118643  0  4.012538  0  0  -0.117239  0  4.03208  0  0  -0.080821  -0.119161  0  3.999105  0
C  C60  1  0.74721173  0.96319088  0.79038848  1  0  -0.105864  0  3.694081  0  0  -0.129399  0  3.953798  0  0  -0.134507  0  3.974809  0  0  -0.085038  -0.126083  0  3.939543  0
C  C61  1  0.25279033  0.03680675  0.20961362  1  0  -0.105903  0  3.694007  0  0  -0.129453  0  3.953802  0  0  -0.13457  0  3.974816  0  0  -0.085059  -0.12614  0  3.939549  0
C  C62  1  0.60367896  0.87184083  0.56698991  1  0  -0.329787  0  3.676965  0  0  -0.371398  0  3.919329  0  0  -0.377074  0  3.925851  0  0  -0.159562  -0.367451  0  3.914786  0
C  C63  1  0.39632592  0.12815775  0.43301209  1  0  -0.329785  0  3.676723  0  0  -0.371315  0  3.91906  0  0  -0.376983  0  3.925572  0  0  -0.159542  -0.367371  0  3.914518  0
C  C64  1  0.64750271  0.73086964  0.55265546  1  0  0.73333  0  3.850357  0  0  0.689557  0  4.144107  0  0  0.723079  0  4.136134  0  0  0.22637  0.666769  0  4.148565  0
C  C65  1  0.35250205  0.26912797  0.44734624  1  0  0.733261  0  3.850404  0  0  0.689466  0  4.144173  0  0  0.722986  0  4.136201  0  0  0.226323  0.666674  0  4.148635  0
N  N66  1  0.32730562  0.06351836  0.75618999  1  0  0.495399  0  3.91349  0  0  0.518697  0  4.218599  0  0  0.539872  0  4.228409  0  0  0.050757  0.504604  0  4.211861  0
N  N67  1  0.67269414  0.93648225  0.24380842  1  0  0.495353  0  3.913497  0  0  0.518657  0  4.218607  0  0  0.539837  0  4.228416  0  0  0.050742  0.504571  0  4.211862  0
N  N68  1  0.04665605  0.26185569  0.98058951  1  0  0.494997  0  3.913128  0  0  0.517987  0  4.215605  0  0  0.539288  0  4.225067  0  0  0.050712  0.503839  0  4.209115  0
N  N69  1  0.95334371  0.73814491  0.01940972  1  0  0.495027  0  3.913157  0  0  0.518014  0  4.215627  0  0  0.539319  0  4.225086  0  0  0.050704  0.503868  0  4.209133  0
O  O70  1  0.63483710  0.44327009  0.31444213  1  0  -0.70501  0  2.01754  0  0  -0.640772  0  2.247157  0  0  -0.668522  0  2.237547  0  0  -0.342688  -0.621085  0  2.253113  0
O  O71  1  0.36516229  0.55672760  0.68555540  1  0  -0.704914  0  2.017589  0  0  -0.640663  0  2.247228  0  0  -0.668413  0  2.237618  0  0  -0.342658  -0.620973  0  2.253176  0
O  O72  1  0.92832474  0.50215869  0.36951201  1  0  -0.731152  0  1.987831  0  0  -0.668526  0  2.234171  0  0  -0.698112  0  2.224917  0  0  -0.375839  -0.647477  0  2.239733  0
O  O73  1  0.07167624  0.49784094  0.63048632  1  0  -0.731209  0  1.987753  0  0  -0.668561  0  2.234104  0  0  -0.698159  0  2.224876  0  0  -0.375866  -0.647507  0  2.239664  0
O  O74  1  0.27815537  0.08302222  0.65689762  1  0  -0.361294  0  1.778027  0  0  -0.335267  0  1.986724  0  0  -0.34681  0  1.983271  0  0  -0.115351  -0.327711  0  1.989404  0
O  O75  1  0.72184561  0.91697742  0.34309989  1  0  -0.36123  0  1.778014  0  0  -0.335207  0  1.986703  0  0  -0.346734  0  1.983218  0  0  -0.115316  -0.327656  0  1.989384  0
O  O76  1  0.29238011  0.95753563  0.77104078  1  0  -0.390392  0  1.767494  0  0  -0.355391  0  1.970911  0  0  -0.369254  0  1.967374  0  0  -0.125469  -0.346111  0  1.973437  0
O  O77  1  0.70761831  0.04246500  0.22895658  1  0  -0.390439  0  1.767496  0  0  -0.355456  0  1.970934  0  0  -0.369321  0  1.967388  0  0  -0.125512  -0.346183  0  1.97346  0
O  O78  1  0.51755718  0.64347951  0.51172145  1  0  -0.733997  0  2.003312  0  0  -0.671856  0  2.250854  0  0  -0.701681  0  2.242113  0  0  -0.378345  -0.650538  0  2.255804  0
O  O79  1  0.48245014  0.35651711  0.48827957  1  0  -0.733968  0  2.003291  0  0  -0.671822  0  2.250825  0  0  -0.701646  0  2.242089  0  0  -0.378357  -0.650507  0  2.255782  0
O  O80  1  0.81121336  0.70455893  0.57970611  1  0  -0.693964  0  1.983731  0  0  -0.631971  0  2.208074  0  0  -0.659388  0  2.198222  0  0  -0.341196  -0.612544  0  2.214125  0
O  O81  1  0.18879445  0.29544159  0.42029691  1  0  -0.693953  0  1.983816  0  0  -0.631948  0  2.208163  0  0  -0.659367  0  2.198312  0  0  -0.341148  -0.612515  0  2.214207  0
O  O82  1  0.11108977  0.35901955  0.96614137  1  0  -0.366587  0  1.795836  0  0  -0.342585  0  2.016143  0  0  -0.354336  0  2.013535  0  0  -0.118681  -0.334611  0  2.0178  0
O  O83  1  0.88890461  0.64098109  0.03385781  1  0  -0.366604  0  1.795761  0  0  -0.342576  0  2.016063  0  0  -0.354324  0  2.013447  0  0  -0.118698  -0.334603  0  2.017714  0
O  O84  1  0.06951942  0.24702873  0.08225287  1  0  -0.387113  0  1.778522  0  0  -0.349912  0  1.981846  0  0  -0.364061  0  1.97901  0  0  -0.12097  -0.340546  0  1.983895  0
O  O85  1  0.93048448  0.75297280  0.91774896  1  0  -0.387074  0  1.778598  0  0  -0.349913  0  1.981936  0  0  -0.364069  0  1.979104  0  0  -0.120948  -0.340552  0  1.983996  0
O  O86  1  0.71738657  0.51930613  0.72879899  1  0  -0.874007  0  1.790904  0  0  -0.82275  0  1.968055  0  0  -0.8423  0  1.934725  0  0  -0.622999  -0.808693  0  1.991026  0
O  O87  1  0.28261294  0.48069253  0.27119883  1  0  -0.873952  0  1.79088  0  0  -0.822683  0  1.968047  0  0  -0.842242  0  1.934734  0  0  -0.622986  -0.808626  0  1.991017  0
O  O88  1  0.86923470  0.25034358  0.45591319  1  0  -0.876441  0  1.787076  0  0  -0.82388  0  1.960398  0  0  -0.843751  0  1.927272  0  0  -0.618537  -0.809526  0  1.983416  0
O  O89  1  0.13076738  0.74965409  0.54408395  1  0  -0.876506  0  1.787017  0  0  -0.823951  0  1.960366  0  0  -0.843824  0  1.92723  0  0  -0.618549  -0.809595  0  1.983386  0
