# generated using pymatgen
data_ZnH20C29(NO2)2
_symmetry_space_group_name_H-M   'P 1'
_cell_length_a   9.61059261
_cell_length_b   10.40060039
_cell_length_c   13.33018068
_cell_angle_alpha   96.90777361
_cell_angle_beta   111.12419785
_cell_angle_gamma   90.01045945
_symmetry_Int_Tables_number   1
_chemical_formula_structural   ZnH20C29(NO2)2
_chemical_formula_sum   'Zn2 H40 C58 N4 O8'
_cell_volume   1232.50726559
_cell_formula_units_Z   2
loop_
 _symmetry_equiv_pos_site_id
 _symmetry_equiv_pos_as_xyz
  1  'x, y, z'
loop_
 _atom_site_type_symbol
 _atom_site_label
 _atom_site_symmetry_multiplicity
 _atom_site_fract_x
 _atom_site_fract_y
 _atom_site_fract_z
 _atom_site_occupancy
 _atom_site_hle17_bader_spin_density
 _atom_site_hle17_ddec_charge
 _atom_site_hle17_ddec_spin_density
 _atom_site_hle17_ddec_sum_bond_order
 _atom_site_hle17_magmom
 _atom_site_hse06_10hf_bader_spin_density
 _atom_site_hse06_10hf_ddec_charge
 _atom_site_hse06_10hf_ddec_spin_density
 _atom_site_hse06_10hf_ddec_sum_bond_order
 _atom_site_hse06_10hf_magmom
 _atom_site_hse06_bader_spin_density
 _atom_site_hse06_ddec_charge
 _atom_site_hse06_ddec_spin_density
 _atom_site_hse06_ddec_sum_bond_order
 _atom_site_hse06_magmom
 _atom_site_pbe_bader_spin_density
 _atom_site_pbe_cm5_charge
 _atom_site_pbe_ddec_charge
 _atom_site_pbe_ddec_spin_density
 _atom_site_pbe_ddec_sum_bond_order
 _atom_site_pbe_magmom
Zn  Zn0  1  0.49198860  0.22306418  0.66506765  1  0  0.993052  0  1.834891  0  0  0.802666  0  2.295199  0  0  0.854547  0  2.237781  0  0  0.691656  0.767296  0  2.33327  0
Zn  Zn1  1  0.17319509  0.72302320  0.66522543  1  0  0.992981  0  1.834767  0  0  0.803154  0  2.295278  0  0  0.854987  0  2.237812  0  0  0.691837  0.767765  0  2.333357  0
H  H2  1  0.15165289  0.38777511  0.33347810  1  0  0.102359  0  0.975537  0  0  0.110635  0  1.043392  0  0  0.11359  0  1.041808  0  0  0.102635  0.108527  0  1.044586  0
H  H3  1  0.18176221  0.88806780  0.33356076  1  0  0.102789  0  0.974817  0  0  0.111239  0  1.042472  0  0  0.114214  0  1.040893  0  0  0.102712  0.109072  0  1.043733  0
H  H4  1  0.36069335  0.77057498  0.42437777  1  0  0.105729  0  0.977949  0  0  0.111835  0  1.048822  0  0  0.115734  0  1.045207  0  0  0.10406  0.109097  0  1.051262  0
H  H5  1  0.06329696  0.27074786  0.42422905  1  0  0.10618  0  0.977369  0  0  0.111834  0  1.048797  0  0  0.115752  0  1.045136  0  0  0.104075  0.109131  0  1.05122  0
H  H6  1  0.45160464  0.74162691  0.26975646  1  0  0.094541  0  0.941618  0  0  0.107954  0  0.995766  0  0  0.111394  0  0.994109  0  0  0.101376  0.105458  0  0.997127  0
H  H7  1  0.81796915  0.24167898  0.26938239  1  0  0.09424  0  0.941529  0  0  0.107724  0  0.995597  0  0  0.11109  0  0.994044  0  0  0.1013  0.105278  0  0.996854  0
H  H8  1  0.51712620  0.66326923  0.09990800  1  0  0.092817  0  0.958714  0  0  0.103637  0  1.019398  0  0  0.106432  0  1.01899  0  0  0.099342  0.101516  0  1.020036  0
H  H9  1  0.58281786  0.16314465  0.09994617  1  0  0.092636  0  0.958901  0  0  0.103921  0  1.01907  0  0  0.10656  0  1.018816  0  0  0.099424  0.101867  0  1.019687  0
H  H10  1  0.54702443  0.54484692  0.93443343  1  0  0.098945  0  0.984771  0  0  0.103807  0  1.056959  0  0  0.107881  0  1.052999  0  0  0.099812  0.100689  0  1.060199  0
H  H11  1  0.38723410  0.04462652  0.93453323  1  0  0.098847  0  0.98586  0  0  0.103641  0  1.057972  0  0  0.107721  0  1.054  0  0  0.099699  0.10051  0  1.061249  0
H  H12  1  0.29142629  0.21513244  0.94936681  1  0  0.099259  0  0.96284  0  0  0.109935  0  1.027149  0  0  0.113072  0  1.025038  0  0  0.104107  0.107521  0  1.028993  0
H  H13  1  0.65805474  0.71520332  0.94905969  1  0  0.099221  0  0.962967  0  0  0.110126  0  1.02705  0  0  0.11326  0  1.024939  0  0  0.104028  0.107749  0  1.028837  0
H  H14  1  0.27061884  0.18068136  0.25556625  1  0  0.107628  0  0.962272  0  0  0.12768  0  1.023966  0  0  0.128264  0  1.025868  0  0  0.087485  0.126999  0  1.022989  0
H  H15  1  0.98483000  0.68074439  0.25556525  1  0  0.107855  0  0.962702  0  0  0.128251  0  1.023926  0  0  0.128843  0  1.025831  0  0  0.087747  0.127588  0  1.022908  0
H  H16  1  0.31546369  0.12836383  0.13907163  1  0  0.100938  0  0.948163  0  0  0.123701  0  1.005933  0  0  0.124761  0  1.006435  0  0  0.086704  0.122832  0  1.005782  0
H  H17  1  0.82355778  0.62837625  0.13904810  1  0  0.101128  0  0.94867  0  0  0.123939  0  1.006191  0  0  0.125007  0  1.006671  0  0  0.086802  0.123068  0  1.006058  0
H  H18  1  0.44209704  0.23542698  0.24828837  1  0  0.098605  0  0.949622  0  0  0.117152  0  1.013144  0  0  0.118607  0  1.013313  0  0  0.084128  0.116147  0  1.012998  0
H  H19  1  0.80606995  0.73545893  0.24821736  1  0  0.099027  0  0.948512  0  0  0.11717  0  1.012409  0  0  0.118568  0  1.012639  0  0  0.084279  0.116175  0  1.012279  0
H  H20  1  0.02655523  0.25586704  0.13716204  1  0  0.106678  0  0.959103  0  0  0.127527  0  1.020552  0  0  0.128221  0  1.022081  0  0  0.088072  0.127118  0  1.019159  0
H  H21  1  0.11056770  0.75582967  0.13718257  1  0  0.106642  0  0.958795  0  0  0.127739  0  1.020078  0  0  0.12847  0  1.021576  0  0  0.088183  0.127323  0  1.018681  0
H  H22  1  0.01739986  0.37539060  0.05059314  1  0  0.100124  0  0.952218  0  0  0.120609  0  1.012609  0  0  0.122208  0  1.012208  0  0  0.086097  0.119678  0  1.012531  0
H  H23  1  0.03333379  0.87527222  0.05053470  1  0  0.100302  0  0.951721  0  0  0.12108  0  1.011839  0  0  0.122666  0  1.011457  0  0  0.086265  0.120124  0  1.011778  0
H  H24  1  0.06392295  0.21398243  0.01643771  1  0  0.096213  0  0.962005  0  0  0.115808  0  1.026882  0  0  0.116886  0  1.027643  0  0  0.082344  0.11515  0  1.026182  0
H  H25  1  0.95255723  0.71387801  0.01646610  1  0  0.096812  0  0.961156  0  0  0.1163  0  1.026147  0  0  0.117379  0  1.026912  0  0  0.082677  0.115617  0  1.025489  0
H  H26  1  0.61949926  0.01394050  0.82404700  1  0  0.089904  0  0.947737  0  0  0.097387  0  1.011184  0  0  0.099021  0  1.010723  0  0  0.121388  0.095916  0  1.012179  0
H  H27  1  0.20394243  0.51390732  0.82414443  1  0  0.08996  0  0.946919  0  0  0.097488  0  1.010246  0  0  0.099109  0  1.009825  0  0  0.121228  0.096032  0  1.011265  0
H  H28  1  0.86696099  0.91382867  0.89740707  1  0  0.101112  0  0.974466  0  0  0.110354  0  1.037036  0  0  0.112593  0  1.038027  0  0  0.106431  0.108683  0  1.036573  0
H  H29  1  0.02933023  0.41372493  0.89708843  1  0  0.101716  0  0.974138  0  0  0.111155  0  1.03644  0  0  0.113427  0  1.037376  0  0  0.106323  0.109455  0  1.036032  0
H  H30  1  0.07647766  0.98020843  0.83866052  1  0  0.117299  0  0.933259  0  0  0.128166  0  0.991577  0  0  0.131781  0  0.988417  0  0  0.113561  0.125404  0  0.994315  0
H  H31  1  0.76115835  0.48025871  0.83797242  1  0  0.117273  0  0.933596  0  0  0.128678  0  0.991357  0  0  0.132276  0  0.988179  0  0  0.113471  0.125874  0  0.994171  0
H  H32  1  0.16556069  0.12495981  0.73125209  1  0  0.130969  0  0.958248  0  0  0.138966  0  1.018974  0  0  0.142676  0  1.017029  0  0  0.111039  0.13628  0  1.02036  0
H  H33  1  0.56509349  0.62512284  0.73042868  1  0  0.13022  0  0.957961  0  0  0.138704  0  1.018335  0  0  0.142412  0  1.01639  0  0  0.11081  0.135977  0  1.019801  0
H  H34  1  0.10847031  0.28339777  0.60115478  1  0  0.125315  0  0.958357  0  0  0.134891  0  1.016814  0  0  0.13825  0  1.015295  0  0  0.111824  0.132744  0  1.017462  0
H  H35  1  0.49265948  0.78365794  0.60047241  1  0  0.126145  0  0.957223  0  0  0.135352  0  1.016073  0  0  0.138788  0  1.014445  0  0  0.112077  0.133175  0  1.016779  0
H  H36  1  0.91920048  0.42838965  0.48332493  1  0  0.129058  0  0.970516  0  0  0.140107  0  1.028826  0  0  0.143736  0  1.025358  0  0  0.113646  0.137406  0  1.031529  0
H  H37  1  0.56449234  0.92855569  0.48273674  1  0  0.128532  0  0.969195  0  0  0.139487  0  1.027742  0  0  0.143073  0  1.024339  0  0  0.113654  0.136811  0  1.030404  0
H  H38  1  0.65417708  0.50001607  0.41512654  1  0  0.106459  0  0.941597  0  0  0.118468  0  0.995794  0  0  0.121071  0  0.996527  0  0  0.10892  0.116482  0  0.995647  0
H  H39  1  0.76193417  0.00064575  0.41520172  1  0  0.106753  0  0.941912  0  0  0.118619  0  0.996441  0  0  0.121243  0  0.997165  0  0  0.109056  0.116603  0  0.996354  0
H  H40  1  0.47065260  0.41337442  0.48735140  1  0  0.084008  0  0.940157  0  0  0.092572  0  1.002692  0  0  0.0941  0  1.002279  0  0  0.120268  0.091198  0  1.003562  0
H  H41  1  0.01766828  0.91422143  0.48797447  1  0  0.083698  0  0.940614  0  0  0.092536  0  1.002836  0  0  0.094077  0  1.002396  0  0  0.120299  0.091121  0  1.003808  0
C  C42  1  0.21719713  0.46307631  0.31785135  1  0  -0.109099  0  3.717486  0  0  -0.138231  0  3.962383  0  0  -0.137901  0  3.981541  0  0  -0.084312  -0.138477  0  3.949451  0
C  C43  1  0.10054670  0.96329841  0.31785407  1  0  -0.109873  0  3.718739  0  0  -0.139211  0  3.962888  0  0  -0.138935  0  3.982051  0  0  -0.084247  -0.139375  0  3.950075  0
C  C44  1  0.25295169  0.58046781  0.38792037  1  0  -0.070468  0  3.770744  0  0  -0.04736  0  4.006664  0  0  -0.055222  0  4.029416  0  0  -0.021252  -0.041883  0  3.991421  0
C  C45  1  0.13475485  0.08077037  0.38782802  1  0  -0.068496  0  3.770102  0  0  -0.046122  0  4.006791  0  0  -0.053911  0  4.029439  0  0  -0.021029  -0.040847  0  3.991749  0
C  C46  1  0.33710253  0.67981543  0.36995554  1  0  -0.084166  0  3.754442  0  0  -0.114357  0  4.016694  0  0  -0.113838  0  4.036623  0  0  -0.089247  -0.114708  0  4.003118  0
C  C47  1  0.03254070  0.17997986  0.36981738  1  0  -0.085228  0  3.755254  0  0  -0.114992  0  4.018063  0  0  -0.11452  0  4.03804  0  0  -0.089498  -0.115347  0  4.004383  0
C  C48  1  0.38691713  0.66367471  0.28330201  1  0  -0.120529  0  3.770124  0  0  -0.137454  0  4.024589  0  0  -0.140458  0  4.043434  0  0  -0.094987  -0.13538  0  4.011532  0
C  C49  1  0.89620873  0.16375276  0.28306085  1  0  -0.119254  0  3.770058  0  0  -0.136437  0  4.024022  0  0  -0.139405  0  4.042877  0  0  -0.094424  -0.134179  0  4.010783  0
C  C50  1  0.46957734  0.56482927  0.06893009  1  0  -0.110996  0  3.755938  0  0  -0.12794  0  4.006265  0  0  -0.13161  0  4.026918  0  0  -0.09269  -0.125329  0  3.992216  0
C  C51  1  0.59932385  0.06471808  0.06891174  1  0  -0.110762  0  3.757659  0  0  -0.127889  0  4.00835  0  0  -0.131437  0  4.029007  0  0  -0.092239  -0.125549  0  3.99449  0
C  C52  1  0.48840557  0.49902269  0.97777324  1  0  -0.068967  0  3.754755  0  0  -0.099504  0  4.013555  0  0  -0.098317  0  4.032349  0  0  -0.087733  -0.100254  0  4.00101  0
C  C53  1  0.48928528  0.99893436  0.97778468  1  0  -0.069283  0  3.757969  0  0  -0.099644  0  4.016591  0  0  -0.098438  0  4.035312  0  0  -0.087833  -0.10038  0  4.004094  0
C  C54  1  0.42599275  0.37318495  0.93546186  1  0  -0.068243  0  3.771765  0  0  -0.043727  0  4.005375  0  0  -0.051947  0  4.028412  0  0  -0.021574  -0.038302  0  3.98977  0
C  C55  1  0.50955579  0.87320725  0.93535973  1  0  -0.067018  0  3.771695  0  0  -0.042536  0  4.00511  0  0  -0.05073  0  4.028146  0  0  -0.021588  -0.037052  0  3.98946  0
C  C56  1  0.34156400  0.31176986  0.98475852  1  0  -0.111945  0  3.725486  0  0  -0.14329  0  3.976525  0  0  -0.143164  0  3.996456  0  0  -0.085234  -0.143033  0  3.963063  0
C  C57  1  0.64325788  0.81177416  0.98456598  1  0  -0.112898  0  3.723783  0  0  -0.144233  0  3.974889  0  0  -0.144118  0  3.994868  0  0  -0.085114  -0.143987  0  3.961234  0
C  C58  1  0.24484981  0.32791317  0.14710565  1  0  0.141749  0  3.624067  0  0  0.168393  0  3.844929  0  0  0.169207  0  3.863417  0  0  -0.005051  0.167816  0  3.832172  0
C  C59  1  0.90226976  0.82793456  0.14705313  1  0  0.141523  0  3.623097  0  0  0.166784  0  3.845965  0  0  0.167645  0  3.864419  0  0  -0.004875  0.166165  0  3.833253  0
C  C60  1  0.26694806  0.44614164  0.23175309  1  0  0.002017  0  3.672423  0  0  0.016872  0  3.902097  0  0  0.014677  0  3.925976  0  0  -0.004492  0.018495  0  3.885641  0
C  C61  1  0.96478533  0.94621270  0.23170592  1  0  0.001656  0  3.674964  0  0  0.017857  0  3.902611  0  0  0.015665  0  3.926488  0  0  -0.0044  0.0193  0  3.886368  0
C  C62  1  0.35172507  0.54628159  0.21419360  1  0  0.013971  0  3.811777  0  0  0.018521  0  4.051139  0  0  0.019386  0  4.073545  0  0  -0.011741  0.018263  0  4.035534  0
C  C63  1  0.86243678  0.04628662  0.21406095  1  0  0.013122  0  3.812578  0  0  0.018417  0  4.050595  0  0  0.019297  0  4.07291  0  0  -0.011595  0.018094  0  4.035126  0
C  C64  1  0.38781875  0.50246978  0.11863263  1  0  0.01728  0  3.808303  0  0  0.023173  0  4.043148  0  0  0.023919  0  4.066103  0  0  -0.010938  0.022738  0  4.027385  0
C  C65  1  0.73080770  0.00241991  0.11851630  1  0  0.017573  0  3.808479  0  0  0.022473  0  4.044679  0  0  0.02332  0  4.067493  0  0  -0.011762  0.021979  0  4.029044  0
C  C66  1  0.32385228  0.37576527  0.07662036  1  0  -0.008855  0  3.680715  0  0  0.006881  0  3.910844  0  0  0.004476  0  3.934887  0  0  -0.007294  0.00835  0  3.894674  0
C  C67  1  0.75276730  0.87572393  0.07652165  1  0  -0.007372  0  3.679374  0  0  0.008269  0  3.910616  0  0  0.005768  0  3.93473  0  0  -0.006611  0.010054  0  3.894115  0
C  C68  1  0.32331366  0.21095144  0.20094720  1  0  -0.327854  0  3.654758  0  0  -0.404558  0  3.884036  0  0  -0.407657  0  3.894751  0  0  -0.237153  -0.402118  0  3.876884  0
C  C69  1  0.87755520  0.71098608  0.20090682  1  0  -0.328844  0  3.654372  0  0  -0.405457  0  3.884496  0  0  -0.408507  0  3.895175  0  0  -0.237828  -0.40307  0  3.877382  0
C  C70  1  0.07814567  0.29136954  0.08372964  1  0  -0.32754  0  3.661539  0  0  -0.404501  0  3.891914  0  0  -0.407293  0  3.901569  0  0  -0.237708  -0.402222  0  3.884612  0
C  C71  1  0.00559753  0.79133221  0.08370974  1  0  -0.328094  0  3.660449  0  0  -0.405095  0  3.89131  0  0  -0.407917  0  3.900949  0  0  -0.238542  -0.402815  0  3.884068  0
C  C72  1  0.20165331  0.59832409  0.48226676  1  0  0.628334  0  3.939848  0  0  0.582841  0  4.226757  0  0  0.616768  0  4.220128  0  0  0.198222  0.559761  0  4.230379  0
C  C73  1  0.28043161  0.09878286  0.48215599  1  0  0.626629  0  3.940932  0  0  0.580994  0  4.228315  0  0  0.614929  0  4.221675  0  0  0.197418  0.557931  0  4.23195  0
C  C74  1  0.44885965  0.30672222  0.83732402  1  0  0.614769  0  3.924766  0  0  0.571365  0  4.203979  0  0  0.604943  0  4.199476  0  0  0.191756  0.548589  0  4.205722  0
C  C75  1  0.38849418  0.80685437  0.83725605  1  0  0.613338  0  3.927048  0  0  0.569816  0  4.206309  0  0  0.603374  0  4.201821  0  0  0.1912  0.547073  0  4.20798  0
C  C76  1  0.71211842  0.03967794  0.80023982  1  0  0.161264  0  3.662727  0  0  0.128239  0  3.91331  0  0  0.137565  0  3.929587  0  0  0.065186  0.121463  0  3.903187  0
C  C77  1  0.08753522  0.53970239  0.80017348  1  0  0.162106  0  3.663204  0  0  0.129217  0  3.913655  0  0  0.13854  0  3.929964  0  0  0.065929  0.122335  0  3.90364  0
C  C78  1  0.85234962  0.98557691  0.84187074  1  0  -0.12466  0  3.740654  0  0  -0.138564  0  3.998037  0  0  -0.145786  0  4.019459  0  0  -0.084181  -0.134582  0  3.985051  0
C  C79  1  0.98865630  0.48552124  0.84155140  1  0  -0.125565  0  3.743929  0  0  -0.13973  0  4.001128  0  0  -0.146966  0  4.022554  0  0  -0.084347  -0.135695  0  3.988177  0
C  C80  1  0.96710707  0.02253551  0.81016975  1  0  -0.042669  0  3.656407  0  0  -0.068587  0  3.907753  0  0  -0.065094  0  3.923264  0  0  -0.059414  -0.071266  0  3.898542  0
C  C81  1  0.84226038  0.52255757  0.80963048  1  0  -0.043151  0  3.658293  0  0  -0.069262  0  3.909796  0  0  -0.065739  0  3.925351  0  0  -0.059431  -0.071989  0  3.900647  0
C  C82  1  0.05326275  0.16092999  0.69989312  1  0  -0.103556  0  3.701327  0  0  -0.127431  0  3.959309  0  0  -0.131732  0  3.983124  0  0  -0.081587  -0.123983  0  3.942393  0
C  C83  1  0.64622453  0.66106648  0.69921120  1  0  -0.102272  0  3.699203  0  0  -0.126291  0  3.957275  0  0  -0.13059  0  3.98114  0  0  -0.081838  -0.122852  0  3.940394  0
C  C84  1  0.02149994  0.24998137  0.62781860  1  0  -0.092955  0  3.700567  0  0  -0.117421  0  3.958008  0  0  -0.121567  0  3.982561  0  0  -0.078784  -0.114083  0  3.94043  0
C  C85  1  0.60625108  0.75022197  0.62722783  1  0  -0.09452  0  3.700028  0  0  -0.119042  0  3.957528  0  0  -0.123296  0  3.982059  0  0  -0.079184  -0.115683  0  3.940034  0
C  C86  1  0.83422844  0.38930299  0.50946114  1  0  -0.043793  0  3.642139  0  0  -0.07093  0  3.890676  0  0  -0.068045  0  3.907564  0  0  -0.059065  -0.072815  0  3.880273  0
C  C87  1  0.67568254  0.88966456  0.50913732  1  0  -0.043587  0  3.640175  0  0  -0.070891  0  3.888751  0  0  -0.068023  0  3.905681  0  0  -0.059334  -0.072785  0  3.878339  0
C  C88  1  0.68912663  0.42980431  0.47287845  1  0  -0.122978  0  3.733911  0  0  -0.136369  0  3.99122  0  0  -0.14375  0  4.012353  0  0  -0.083199  -0.132238  0  3.97815  0
C  C89  1  0.78450147  0.93040734  0.47292329  1  0  -0.122963  0  3.732468  0  0  -0.136213  0  3.990046  0  0  -0.143601  0  4.0112  0  0  -0.08306  -0.13207  0  3.977044  0
C  C90  1  0.58527946  0.38239040  0.51316768  1  0  0.158704  0  3.683918  0  0  0.125329  0  3.938837  0  0  0.134528  0  3.95544  0  0  0.063498  0.118696  0  3.928195  0
C  C91  1  0.92864471  0.88311937  0.51354151  1  0  0.158674  0  3.682101  0  0  0.125367  0  3.937275  0  0  0.134531  0  3.95391  0  0  0.063111  0.118728  0  3.926647  0
C  C92  1  0.94156143  0.11529263  0.73666471  1  0  0.027256  0  3.792551  0  0  0.042962  0  4.02705  0  0  0.040442  0  4.052081  0  0  -0.000852  0.0444  0  4.010147  0
C  C93  1  0.79462936  0.61540177  0.73617082  1  0  0.028014  0  3.791343  0  0  0.042815  0  4.027218  0  0  0.040285  0  4.052238  0  0  -0.000193  0.044213  0  4.010338  0
C  C94  1  0.79613703  0.16330444  0.69754991  1  0  0.123093  0  3.759694  0  0  0.116323  0  3.993941  0  0  0.120309  0  4.017123  0  0  0.115336  0.114439  0  3.977935  0
C  C95  1  0.90120101  0.66347088  0.69730476  1  0  0.12461  0  3.758751  0  0  0.118152  0  3.992807  0  0  0.122163  0  4.015964  0  0  0.115767  0.116245  0  3.9768  0
C  C96  1  0.76236738  0.25538988  0.62045249  1  0  0.122399  0  3.777446  0  0  0.115933  0  4.012264  0  0  0.119655  0  4.035544  0  0  0.115593  0.113923  0  3.996307  0
C  C97  1  0.85825220  0.75572997  0.62032188  1  0  0.1213  0  3.777061  0  0  0.114841  0  4.012014  0  0  0.118534  0  4.035287  0  0  0.115309  0.112904  0  3.996014  0
C  C98  1  0.87476384  0.29832721  0.58504820  1  0  0.026368  0  3.786686  0  0  0.042111  0  4.021568  0  0  0.039358  0  4.047058  0  0  -0.000406  0.043307  0  4.004593  0
C  C99  1  0.71044824  0.79865001  0.58468089  1  0  0.027015  0  3.785333  0  0  0.043692  0  4.019018  0  0  0.040963  0  4.044504  0  0  0.000363  0.04484  0  4.002071  0
N  N100  1  0.68506191  0.12517470  0.72953031  1  0  -0.344427  0  3.303516  0  0  -0.266894  0  3.574996  0  0  -0.285996  0  3.58859  0  0  -0.318907  -0.253858  0  3.565537  0
N  N101  1  0.04421827  0.62525886  0.72948174  1  0  -0.346008  0  3.304376  0  0  -0.268582  0  3.57586  0  0  -0.287714  0  3.589452  0  0  -0.319541  -0.255479  0  3.566437  0
N  N102  1  0.62186644  0.29858857  0.58543185  1  0  -0.347021  0  3.292214  0  0  -0.273639  0  3.561737  0  0  -0.292486  0  3.576526  0  0  -0.321151  -0.260664  0  3.551393  0
N  N103  1  0.96401425  0.79909720  0.58562940  1  0  -0.346231  0  3.289976  0  0  -0.273668  0  3.560547  0  0  -0.292454  0  3.575311  0  0  -0.320975  -0.260705  0  3.550132  0
O  O104  1  0.11728866  0.51448234  0.49414974  1  0  -0.61552  0  1.925702  0  0  -0.573211  0  2.149743  0  0  -0.595402  0  2.139081  0  0  -0.325173  -0.557517  0  2.156481  0
O  O105  1  0.37680644  0.01508457  0.49400816  1  0  -0.614888  0  1.924371  0  0  -0.572606  0  2.148364  0  0  -0.594796  0  2.137734  0  0  -0.325252  -0.556943  0  2.155024  0
O  O106  1  0.25157184  0.70476254  0.54830657  1  0  -0.631431  0  2.063128  0  0  -0.552998  0  2.32648  0  0  -0.582735  0  2.311535  0  0  -0.327734  -0.532208  0  2.334876  0
O  O107  1  0.29653422  0.20516558  0.54825477  1  0  -0.631962  0  2.064623  0  0  -0.552557  0  2.326819  0  0  -0.58236  0  2.312035  0  0  -0.327388  -0.531688  0  2.335116  0
O  O108  1  0.51369389  0.37176307  0.78834590  1  0  -0.628128  0  1.963465  0  0  -0.562555  0  2.209714  0  0  -0.590927  0  2.197341  0  0  -0.331347  -0.54233  0  2.217347  0
O  O109  1  0.27464825  0.87189187  0.78845993  1  0  -0.627663  0  1.962582  0  0  -0.562151  0  2.208562  0  0  -0.590516  0  2.196254  0  0  -0.331373  -0.541925  0  2.216079  0
O  O110  1  0.40505192  0.18911896  0.80303884  1  0  -0.612513  0  1.957761  0  0  -0.554106  0  2.190536  0  0  -0.579919  0  2.181304  0  0  -0.311703  -0.535858  0  2.195664  0
O  O111  1  0.39802280  0.68930300  0.80278964  1  0  -0.612485  0  1.959841  0  0  -0.553396  0  2.191877  0  0  -0.579173  0  2.182521  0  0  -0.31112  -0.535039  0  2.197083  0
