# generated using pymatgen
data_HgH8C10S(IN)2
_symmetry_space_group_name_H-M   'P 1'
_cell_length_a   5.48533599
_cell_length_b   11.92967789
_cell_length_c   21.53150226
_cell_angle_alpha   89.99996798
_cell_angle_beta   92.20464850
_cell_angle_gamma   90.00004452
_symmetry_Int_Tables_number   1
_chemical_formula_structural   HgH8C10S(IN)2
_chemical_formula_sum   'Hg4 H32 C40 S4 I8 N8'
_cell_volume   1407.94178766
_cell_formula_units_Z   4
loop_
 _symmetry_equiv_pos_site_id
 _symmetry_equiv_pos_as_xyz
  1  'x, y, z'
loop_
 _atom_site_type_symbol
 _atom_site_label
 _atom_site_symmetry_multiplicity
 _atom_site_fract_x
 _atom_site_fract_y
 _atom_site_fract_z
 _atom_site_occupancy
 _atom_site_hle17_bader_spin_density
 _atom_site_hle17_ddec_charge
 _atom_site_hle17_ddec_spin_density
 _atom_site_hle17_ddec_sum_bond_order
 _atom_site_hle17_magmom
 _atom_site_hse06_10hf_bader_spin_density
 _atom_site_hse06_10hf_ddec_charge
 _atom_site_hse06_10hf_ddec_spin_density
 _atom_site_hse06_10hf_ddec_sum_bond_order
 _atom_site_hse06_10hf_magmom
 _atom_site_hse06_bader_spin_density
 _atom_site_hse06_ddec_charge
 _atom_site_hse06_ddec_spin_density
 _atom_site_hse06_ddec_sum_bond_order
 _atom_site_hse06_magmom
 _atom_site_pbe_bader_spin_density
 _atom_site_pbe_cm5_charge
 _atom_site_pbe_ddec_charge
 _atom_site_pbe_ddec_spin_density
 _atom_site_pbe_ddec_sum_bond_order
 _atom_site_pbe_magmom
Hg  Hg0  1  0.51528329  0.69820219  0.63900402  1  0  0.539393  0  2.214013  0  0  0.405799  0  2.707304  0  0  0.448001  0  2.683723  0  0  0.40638  0.377708  0  2.722625  0
Hg  Hg1  1  0.48471629  0.19820198  0.86099575  1  0  0.539323  0  2.214084  0  0  0.405727  0  2.707379  0  0  0.447931  0  2.683798  0  0  0.40636  0.377634  0  2.722701  0
Hg  Hg2  1  0.48471901  0.30179766  0.36099550  1  0  0.539369  0  2.214033  0  0  0.405759  0  2.707332  0  0  0.447962  0  2.683752  0  0  0.406365  0.377665  0  2.722654  0
Hg  Hg3  1  0.51528054  0.80179786  0.13900418  1  0  0.539384  0  2.214036  0  0  0.405763  0  2.707346  0  0  0.447967  0  2.683765  0  0  0.406369  0.377669  0  2.72267  0
H  H4  1  0.98417990  0.59935052  0.56408275  1  0  0.065909  0  0.970019  0  0  0.070444  0  1.044115  0  0  0.072909  0  1.041969  0  0  0.09649  0.068555  0  1.045965  0
H  H5  1  0.01581768  0.09934924  0.93591702  1  0  0.065957  0  0.970128  0  0  0.070496  0  1.044197  0  0  0.072963  0  1.04205  0  0  0.096514  0.068606  0  1.046047  0
H  H6  1  0.01582239  0.40065016  0.43591677  1  0  0.065887  0  0.970021  0  0  0.070428  0  1.044111  0  0  0.072893  0  1.041965  0  0  0.09648  0.068538  0  1.045961  0
H  H7  1  0.98417915  0.90064977  0.06408291  1  0  0.065943  0  0.970017  0  0  0.070473  0  1.044113  0  0  0.07294  0  1.041966  0  0  0.096497  0.068584  0  1.045963  0
H  H8  1  0.27744722  0.64756968  0.48235706  1  0  0.109558  0  0.989789  0  0  0.115044  0  1.059855  0  0  0.118929  0  1.057857  0  0  0.08792  0.112416  0  1.061204  0
H  H9  1  0.72255026  0.14756823  0.01764358  1  0  0.109535  0  0.989804  0  0  0.115039  0  1.059859  0  0  0.118923  0  1.05786  0  0  0.087908  0.112411  0  1.061206  0
H  H10  1  0.72255508  0.35243017  0.51764292  1  0  0.10959  0  0.989754  0  0  0.115082  0  1.059824  0  0  0.118966  0  1.057825  0  0  0.087936  0.112453  0  1.061174  0
H  H11  1  0.27744294  0.85243078  0.98235725  1  0  0.109583  0  0.989862  0  0  0.115071  0  1.059933  0  0  0.118955  0  1.057932  0  0  0.087929  0.112443  0  1.061281  0
H  H12  1  0.86364907  0.95225280  0.44863000  1  0  0.105739  0  0.978416  0  0  0.110905  0  1.050013  0  0  0.114771  0  1.048037  0  0  0.092126  0.10811  0  1.051601  0
H  H13  1  0.13635074  0.45225278  0.05136964  1  0  0.105733  0  0.978426  0  0  0.110901  0  1.050016  0  0  0.114761  0  1.048062  0  0  0.092127  0.108101  0  1.051618  0
H  H14  1  0.13635506  0.04774705  0.55136953  1  0  0.10572  0  0.978463  0  0  0.110907  0  1.050023  0  0  0.114768  0  1.048063  0  0  0.092117  0.108107  0  1.051629  0
H  H15  1  0.86364609  0.54774791  0.94862983  1  0  0.105722  0  0.978474  0  0  0.110912  0  1.050026  0  0  0.114771  0  1.048071  0  0  0.092121  0.10811  0  1.051632  0
H  H16  1  0.60087572  0.89561916  0.53668464  1  0  0.065682  0  0.959697  0  0  0.069571  0  1.035053  0  0  0.072451  0  1.032362  0  0  0.098829  0.067347  0  1.037322  0
H  H17  1  0.39912419  0.39561798  0.96331553  1  0  0.06573  0  0.959669  0  0  0.069584  0  1.035078  0  0  0.072465  0  1.032385  0  0  0.098831  0.06736  0  1.037344  0
H  H18  1  0.39912658  0.10438153  0.46331487  1  0  0.0657  0  0.959691  0  0  0.069563  0  1.035073  0  0  0.072443  0  1.032382  0  0  0.09882  0.067338  0  1.037343  0
H  H19  1  0.60087446  0.60438103  0.03668489  1  0  0.065703  0  0.95966  0  0  0.069558  0  1.035054  0  0  0.072437  0  1.032363  0  0  0.098826  0.067333  0  1.037321  0
H  H20  1  0.62616132  0.68592797  0.27100247  1  0  0.064807  0  0.976472  0  0  0.068042  0  1.053733  0  0  0.071038  0  1.050579  0  0  0.092367  0.065863  0  1.056072  0
H  H21  1  0.37383258  0.18592785  0.22899860  1  0  0.064855  0  0.976518  0  0  0.068087  0  1.053789  0  0  0.071083  0  1.050636  0  0  0.092396  0.065907  0  1.056128  0
H  H22  1  0.37383370  0.31407272  0.72899838  1  0  0.064827  0  0.976523  0  0  0.068065  0  1.05377  0  0  0.071061  0  1.050616  0  0  0.092387  0.065885  0  1.056111  0
H  H23  1  0.62616972  0.81407116  0.77100092  1  0  0.06484  0  0.976481  0  0  0.068071  0  1.053749  0  0  0.071067  0  1.050596  0  0  0.092388  0.065892  0  1.056089  0
H  H24  1  0.88357908  0.69623168  0.36775674  1  0  0.104724  0  0.992978  0  0  0.112606  0  1.059515  0  0  0.11594  0  1.058517  0  0  0.088804  0.110222  0  1.060396  0
H  H25  1  0.11641848  0.19623073  0.13224342  1  0  0.104678  0  0.993002  0  0  0.112564  0  1.059531  0  0  0.115894  0  1.05854  0  0  0.088784  0.110179  0  1.060411  0
H  H26  1  0.11641958  0.30376985  0.63224320  1  0  0.1047  0  0.992973  0  0  0.112584  0  1.05951  0  0  0.115908  0  1.058523  0  0  0.088782  0.110201  0  1.060393  0
H  H27  1  0.88358564  0.80376828  0.86775565  1  0  0.104705  0  0.99301  0  0  0.112592  0  1.059523  0  0  0.115923  0  1.058532  0  0  0.088804  0.110208  0  1.060405  0
H  H28  1  0.28583314  0.96595725  0.28335583  1  0  0.108731  0  0.971915  0  0  0.114792  0  1.040703  0  0  0.118798  0  1.03868  0  0  0.091982  0.111918  0  1.042373  0
H  H29  1  0.71416669  0.46595811  0.21664427  1  0  0.108742  0  0.971886  0  0  0.114793  0  1.040684  0  0  0.118799  0  1.03866  0  0  0.091982  0.11192  0  1.042354  0
H  H30  1  0.71416551  0.03404343  0.71664365  1  0  0.108705  0  0.971902  0  0  0.114776  0  1.040692  0  0  0.118782  0  1.038669  0  0  0.091978  0.111903  0  1.042363  0
H  H31  1  0.28583926  0.53404006  0.78335575  1  0  0.108659  0  0.971917  0  0  0.114773  0  1.04067  0  0  0.118778  0  1.038648  0  0  0.09197  0.111899  0  1.042341  0
H  H32  1  0.00483855  0.94596090  0.19014918  1  0  0.065194  0  0.967536  0  0  0.069778  0  1.042678  0  0  0.072182  0  1.040308  0  0  0.09612  0.068082  0  1.044349  0
H  H33  1  0.99516308  0.44596177  0.30985141  1  0  0.065239  0  0.967525  0  0  0.069795  0  1.042694  0  0  0.072197  0  1.040326  0  0  0.096147  0.0681  0  1.044364  0
H  H34  1  0.99516193  0.05403811  0.80985032  1  0  0.065237  0  0.96752  0  0  0.069775  0  1.04271  0  0  0.072178  0  1.040341  0  0  0.096143  0.068079  0  1.044381  0
H  H35  1  0.00483923  0.55403557  0.69014904  1  0  0.06513  0  0.967515  0  0  0.06971  0  1.042675  0  0  0.072111  0  1.040311  0  0  0.096112  0.068015  0  1.044346  0
C  C36  1  0.96662475  0.67812382  0.53843225  1  0  0.123201  0  3.730751  0  0  0.095785  0  3.980717  0  0  0.101765  0  3.999793  0  0  0.038027  0.091852  0  3.967993  0
C  C37  1  0.03337479  0.17812168  0.96156659  1  0  0.123094  0  3.730955  0  0  0.095683  0  3.980936  0  0  0.101663  0  4.000006  0  0  0.037976  0.091749  0  3.96821  0
C  C38  1  0.03337573  0.32187602  0.46156771  1  0  0.123238  0  3.73077  0  0  0.09582  0  3.980749  0  0  0.1018  0  3.999824  0  0  0.038026  0.091888  0  3.968024  0
C  C39  1  0.96662568  0.82187733  0.03843198  1  0  0.123196  0  3.730877  0  0  0.095771  0  3.980818  0  0  0.101751  0  3.99989  0  0  0.038019  0.091838  0  3.968093  0
C  C40  1  0.12953682  0.70493079  0.49251407  1  0  -0.154395  0  3.720605  0  0  -0.171704  0  3.963627  0  0  -0.178787  0  3.98461  0  0  -0.089884  -0.166962  0  3.949475  0
C  C41  1  0.87046623  0.20492940  0.00748613  1  0  -0.154315  0  3.720624  0  0  -0.171664  0  3.96368  0  0  -0.178753  0  3.984679  0  0  -0.089852  -0.166921  0  3.949526  0
C  C42  1  0.87046549  0.29506822  0.50748591  1  0  -0.154424  0  3.720644  0  0  -0.171742  0  3.963703  0  0  -0.178831  0  3.984699  0  0  -0.089897  -0.166999  0  3.949553  0
C  C43  1  0.12953608  0.79507212  0.99251431  1  0  -0.154424  0  3.72068  0  0  -0.171748  0  3.963734  0  0  -0.178839  0  3.984734  0  0  -0.089899  -0.167005  0  3.949582  0
C  C44  1  0.09329950  0.80444984  0.45923654  1  0  0.083397  0  3.751372  0  0  0.104882  0  3.994993  0  0  0.10884  0  4.017163  0  0  0.008028  0.1021  0  3.979955  0
C  C45  1  0.90670189  0.30444926  0.04076363  1  0  0.083413  0  3.751449  0  0  0.104909  0  3.995086  0  0  0.108867  0  4.017253  0  0  0.008026  0.102123  0  3.980052  0
C  C46  1  0.90670281  0.19555001  0.54076391  1  0  0.083422  0  3.751443  0  0  0.104855  0  3.995161  0  0  0.108813  0  4.01733  0  0  0.008  0.102071  0  3.98013  0
C  C47  1  0.09329675  0.69554975  0.95923492  1  0  0.083453  0  3.751367  0  0  0.104904  0  3.995063  0  0  0.108862  0  4.01723  0  0  0.008018  0.102117  0  3.98003  0
C  C48  1  0.89839551  0.87434876  0.47397213  1  0  -0.152019  0  3.723616  0  0  -0.168009  0  3.966792  0  0  -0.174746  0  3.987725  0  0  -0.086558  -0.163596  0  3.952936  0
C  C49  1  0.10160417  0.37434708  0.02602800  1  0  -0.15206  0  3.723593  0  0  -0.168025  0  3.966739  0  0  -0.174765  0  3.987667  0  0  -0.086577  -0.163612  0  3.952876  0
C  C50  1  0.10160497  0.12565193  0.52602784  1  0  -0.152055  0  3.723631  0  0  -0.168024  0  3.966788  0  0  -0.174764  0  3.987721  0  0  -0.086574  -0.163614  0  3.952932  0
C  C51  1  0.89839266  0.62565361  0.97397147  1  0  -0.152076  0  3.723651  0  0  -0.168045  0  3.966812  0  0  -0.174784  0  3.987737  0  0  -0.086574  -0.163632  0  3.95295  0
C  C52  1  0.75003404  0.84236545  0.52180816  1  0  0.123055  0  3.722121  0  0  0.093188  0  3.977147  0  0  0.0999  0  3.994698  0  0  0.03661  0.088888  0  3.965297  0
C  C53  1  0.24996759  0.34236504  0.97819111  1  0  0.123089  0  3.722027  0  0  0.093209  0  3.977072  0  0  0.099925  0  3.994616  0  0  0.036629  0.088911  0  3.965216  0
C  C54  1  0.24997190  0.15763356  0.47819139  1  0  0.123081  0  3.721968  0  0  0.093221  0  3.976994  0  0  0.099935  0  3.99454  0  0  0.036628  0.088924  0  3.965145  0
C  C55  1  0.75002923  0.65763397  0.02180835  1  0  0.123162  0  3.721897  0  0  0.093277  0  3.97694  0  0  0.099994  0  3.994484  0  0  0.036636  0.088979  0  3.965086  0
C  C56  1  0.77331259  0.74753904  0.27564670  1  0  0.129684  0  3.724855  0  0  0.101622  0  3.974019  0  0  0.109416  0  3.991586  0  0  0.034111  0.09673  0  3.96169  0
C  C57  1  0.22668505  0.24753804  0.22435391  1  0  0.12963  0  3.724863  0  0  0.101544  0  3.974043  0  0  0.109345  0  3.991588  0  0  0.034048  0.096652  0  3.961714  0
C  C58  1  0.22668789  0.25246248  0.72435373  1  0  0.129647  0  3.724871  0  0  0.101606  0  3.974054  0  0  0.109404  0  3.991609  0  0  0.034075  0.096715  0  3.96173  0
C  C59  1  0.77331359  0.75246097  0.77564557  1  0  0.129662  0  3.724632  0  0  0.101594  0  3.97379  0  0  0.109391  0  3.991347  0  0  0.03407  0.096702  0  3.961468  0
C  C60  1  0.91777647  0.75369176  0.32981377  1  0  -0.167256  0  3.740057  0  0  -0.185089  0  3.984788  0  0  -0.192871  0  4.005648  0  0  -0.097681  -0.179757  0  3.97039  0
C  C61  1  0.08222118  0.25369328  0.17018638  1  0  -0.167164  0  3.739973  0  0  -0.185008  0  3.984718  0  0  -0.192775  0  4.005588  0  0  -0.097607  -0.179676  0  3.970318  0
C  C62  1  0.08222218  0.24630809  0.67018572  1  0  -0.167201  0  3.739975  0  0  -0.185042  0  3.984692  0  0  -0.192817  0  4.005554  0  0  -0.097626  -0.179709  0  3.9703  0
C  C63  1  0.91778477  0.74630573  0.82981363  1  0  -0.167128  0  3.739922  0  0  -0.184981  0  3.984658  0  0  -0.19276  0  4.005516  0  0  -0.097581  -0.179648  0  3.970262  0
C  C64  1  0.10508063  0.83352697  0.33398258  1  0  0.098136  0  3.760032  0  0  0.115754  0  4.009702  0  0  0.122387  0  4.029354  0  0  0.008117  0.110968  0  3.996242  0
C  C65  1  0.89491716  0.33352710  0.16601754  1  0  0.098052  0  3.7601  0  0  0.115719  0  4.00971  0  0  0.12232  0  4.029408  0  0  0.008088  0.110934  0  3.996247  0
C  C66  1  0.89491985  0.16647456  0.66601692  1  0  0.098053  0  3.760181  0  0  0.115715  0  4.009795  0  0  0.122361  0  4.029426  0  0  0.008096  0.110928  0  3.996341  0
C  C67  1  0.10508332  0.66647359  0.83398195  1  0  0.098003  0  3.760214  0  0  0.115698  0  4.009798  0  0  0.122336  0  4.029443  0  0  0.008096  0.110913  0  3.996339  0
C  C68  1  0.14273223  0.90244168  0.28239782  1  0  -0.159911  0  3.712856  0  0  -0.172061  0  3.952251  0  0  -0.179775  0  3.971746  0  0  -0.096451  -0.166915  0  3.939341  0
C  C69  1  0.85726749  0.40244259  0.21760230  1  0  -0.159882  0  3.712826  0  0  -0.172034  0  3.952224  0  0  -0.17974  0  3.971728  0  0  -0.096443  -0.166891  0  3.939314  0
C  C70  1  0.85726641  0.09755984  0.71760167  1  0  -0.159875  0  3.712898  0  0  -0.172061  0  3.952276  0  0  -0.17978  0  3.971768  0  0  -0.096473  -0.166917  0  3.939371  0
C  C71  1  0.14273116  0.59755977  0.78239718  1  0  -0.159893  0  3.712968  0  0  -0.172141  0  3.952362  0  0  -0.179859  0  3.971857  0  0  -0.096515  -0.166996  0  3.939456  0
C  C72  1  0.98672748  0.89096711  0.23024187  1  0  0.12104  0  3.74494  0  0  0.092025  0  3.996921  0  0  0.099618  0  4.015027  0  0  0.032521  0.087324  0  3.984416  0
C  C73  1  0.01326676  0.39096767  0.26975913  1  0  0.120993  0  3.744895  0  0  0.091995  0  3.996894  0  0  0.099588  0  4.014998  0  0  0.032462  0.087293  0  3.984391  0
C  C74  1  0.01326571  0.10903357  0.76975895  1  0  0.120975  0  3.744853  0  0  0.092043  0  3.996817  0  0  0.099635  0  4.014922  0  0  0.032487  0.087344  0  3.984317  0
C  C75  1  0.98673191  0.60903218  0.73024268  1  0  0.121226  0  3.744916  0  0  0.092241  0  3.996858  0  0  0.099832  0  4.014968  0  0  0.032587  0.087538  0  3.984359  0
S  S76  1  0.29693743  0.84644014  0.40111981  1  0  0.006848  0  2.405321  0  0  0.004562  0  2.724718  0  0  -0.00043  0  2.728583  0  0  0.03807  0.0091  0  2.721519  0
S  S77  1  0.70306403  0.34643944  0.09888034  1  0  0.006884  0  2.405359  0  0  0.004578  0  2.724737  0  0  -0.000401  0  2.728612  0  0  0.038085  0.009118  0  2.721536  0
S  S78  1  0.70306487  0.15355971  0.59887970  1  0  0.006871  0  2.405338  0  0  0.00459  0  2.72474  0  0  -0.000405  0  2.7286  0  0  0.038094  0.009134  0  2.721544  0
S  S79  1  0.29693646  0.65355957  0.90112009  1  0  0.006883  0  2.405371  0  0  0.004585  0  2.724756  0  0  -0.000404  0  2.728617  0  0  0.038087  0.009128  0  2.721558  0
I  I80  1  0.48072077  0.47587851  0.61239383  1  0  -0.364458  0  1.135703  0  0  -0.321618  0  1.473235  0  0  -0.338215  0  1.455049  0  0  -0.170306  -0.311123  0  1.486163  0
I  I81  1  0.51927744  0.97587847  0.88760537  1  0  -0.364447  0  1.135706  0  0  -0.321609  0  1.473232  0  0  -0.338212  0  1.455061  0  0  -0.170308  -0.311114  0  1.48616  0
I  I82  1  0.51927788  0.52412134  0.38760612  1  0  -0.364466  0  1.135733  0  0  -0.321624  0  1.473243  0  0  -0.338222  0  1.45506  0  0  -0.170309  -0.31113  0  1.486169  0
I  I83  1  0.48072121  0.02412055  0.11239411  1  0  -0.364446  0  1.135726  0  0  -0.321604  0  1.473239  0  0  -0.338207  0  1.455066  0  0  -0.170297  -0.311109  0  1.486165  0
I  I84  1  0.28234086  0.89297018  0.65964842  1  0  -0.337264  0  1.146839  0  0  -0.298681  0  1.484972  0  0  -0.316408  0  1.471333  0  0  -0.168496  -0.287167  0  1.494338  0
I  I85  1  0.71766087  0.39296924  0.84035130  1  0  -0.33725  0  1.146861  0  0  -0.298665  0  1.484981  0  0  -0.31639  0  1.471343  0  0  -0.168496  -0.287152  0  1.494348  0
I  I86  1  0.71766145  0.10703051  0.34035156  1  0  -0.337252  0  1.146845  0  0  -0.29867  0  1.484984  0  0  -0.316398  0  1.471344  0  0  -0.168499  -0.287158  0  1.494348  0
I  I87  1  0.28233595  0.60703061  0.15964817  1  0  -0.337248  0  1.146837  0  0  -0.298671  0  1.484969  0  0  -0.316395  0  1.471331  0  0  -0.1685  -0.287157  0  1.494334  0
N  N88  1  0.78265795  0.74582050  0.55306102  1  0  -0.282823  0  3.268031  0  0  -0.20829  0  3.52776  0  0  -0.22654  0  3.548737  0  0  -0.314078  -0.195756  0  3.513016  0
N  N89  1  0.21734536  0.24582011  0.94693876  1  0  -0.282874  0  3.268126  0  0  -0.208302  0  3.527816  0  0  -0.22655  0  3.548788  0  0  -0.314081  -0.195768  0  3.51307  0
N  N90  1  0.21734618  0.25418103  0.44693851  1  0  -0.282887  0  3.26801  0  0  -0.208327  0  3.527718  0  0  -0.226575  0  3.548691  0  0  -0.314062  -0.195793  0  3.512972  0
N  N91  1  0.78265330  0.75418057  0.05306165  1  0  -0.282997  0  3.268029  0  0  -0.208377  0  3.527682  0  0  -0.226623  0  3.548649  0  0  -0.314098  -0.195843  0  3.512937  0
N  N92  1  0.80503286  0.81545792  0.22682599  1  0  -0.296974  0  3.285275  0  0  -0.219339  0  3.545923  0  0  -0.239162  0  3.56723  0  0  -0.323047  -0.205893  0  3.53087  0
N  N93  1  0.19496672  0.31545770  0.27317461  1  0  -0.296954  0  3.285217  0  0  -0.219298  0  3.54586  0  0  -0.239122  0  3.567169  0  0  -0.322992  -0.205852  0  3.530807  0
N  N94  1  0.19496579  0.18454360  0.77317395  1  0  -0.29686  0  3.285208  0  0  -0.219305  0  3.545914  0  0  -0.239128  0  3.567222  0  0  -0.322978  -0.205859  0  3.530864  0
N  N95  1  0.80503740  0.68453963  0.72682538  1  0  -0.297045  0  3.285174  0  0  -0.219443  0  3.545882  0  0  -0.23926  0  3.567172  0  0  -0.323069  -0.205998  0  3.530834  0
