# generated using pymatgen
data_MnH14C10(N3Cl)2
_symmetry_space_group_name_H-M   'P 1'
_cell_length_a   3.70697329
_cell_length_b   11.69119508
_cell_length_c   15.78013948
_cell_angle_alpha   80.50488703
_cell_angle_beta   83.21316910
_cell_angle_gamma   80.60498611
_symmetry_Int_Tables_number   1
_chemical_formula_structural   MnH14C10(N3Cl)2
_chemical_formula_sum   'Mn2 H28 C20 N12 Cl4'
_cell_volume   662.54491756
_cell_formula_units_Z   2
loop_
 _symmetry_equiv_pos_site_id
 _symmetry_equiv_pos_as_xyz
  1  'x, y, z'
loop_
 _atom_site_type_symbol
 _atom_site_label
 _atom_site_symmetry_multiplicity
 _atom_site_fract_x
 _atom_site_fract_y
 _atom_site_fract_z
 _atom_site_occupancy
 _atom_site_hle17_ddec_charge
 _atom_site_hle17_ddec_spin_density
 _atom_site_hle17_ddec_sum_bond_order
 _atom_site_hle17_magmom
 _atom_site_hse06_10hf_ddec_charge
 _atom_site_hse06_10hf_ddec_spin_density
 _atom_site_hse06_10hf_ddec_sum_bond_order
 _atom_site_hse06_10hf_magmom
 _atom_site_hse06_ddec_charge
 _atom_site_hse06_ddec_spin_density
 _atom_site_hse06_ddec_sum_bond_order
 _atom_site_hse06_magmom
 _atom_site_pbe_cm5_charge
 _atom_site_pbe_ddec_charge
 _atom_site_pbe_ddec_spin_density
 _atom_site_pbe_ddec_sum_bond_order
 _atom_site_pbe_magmom
Mn  Mn0  1  0.89808016  0.24972928  0.74985334  1  0.924073  4.780179  1.989311  4.647  0.77736  4.709085  2.46603  4.511  0.835369  4.754219  2.411079  4.578  0.418289  0.730716  4.665362  2.506838  4.448
Mn  Mn1  1  0.10191160  0.75026743  0.25014628  1  0.924054  4.780139  1.989433  4.647  0.777342  4.709035  2.466098  4.511  0.83535  4.754171  2.411144  4.578  0.418296  0.730698  4.66531  2.506917  4.448
H  H2  1  0.12028808  0.97466898  0.57202985  1  0.323767  2.5e-05  0.940444  0.0  0.294919  0.000115  1.021627  0.0  0.304483  8.3e-05  1.013272  0.0  0.289946  0.288212  0.000151  1.027404  0.0
H  H3  1  0.66686318  0.52476225  0.92785959  1  0.324053  2.3e-05  0.938951  0.0  0.295587  0.00011  1.019672  0.0  0.305153  7.9e-05  1.011259  0.0  0.289824  0.288869  0.000145  1.025483  0.0
H  H4  1  0.87974432  0.02532944  0.42796617  1  0.323698  2.8e-05  0.940548  0.0  0.294895  0.000115  1.021689  0.0  0.304458  8.3e-05  1.013337  0.0  0.289949  0.288186  0.000151  1.027465  0.0
H  H5  1  0.33310810  0.47523886  0.07213902  1  0.324166  2.7e-05  0.938832  0.0  0.295681  0.00011  1.019563  0.0  0.305245  7.9e-05  1.011151  0.0  0.289899  0.288966  0.000145  1.025374  0.0
H  H6  1  0.20782679  0.04091697  0.66067861  1  0.32084  -0.000173  0.932922  0.0  0.304028  0.000247  0.998025  0.0  0.311194  4.2e-05  0.992308  0.0  0.282922  0.298824  0.000462  1.002296  0.0
H  H7  1  0.90810962  0.45814678  0.83903059  1  0.323051  -0.00017  0.932474  0.0  0.305631  0.000252  0.99852  0.0  0.312868  4.6e-05  0.992684  0.0  0.283005  0.300383  0.000467  1.002848  0.0
H  H8  1  0.79220474  0.95908057  0.33931879  1  0.320841  -0.000168  0.933022  0.0  0.304026  0.000247  0.998125  0.0  0.311192  4.2e-05  0.992404  0.0  0.282909  0.29882  0.000462  1.002396  0.0
H  H9  1  0.09186522  0.54185344  0.16096495  1  0.323069  -0.000161  0.93247  0.0  0.305638  0.000252  0.998516  0.0  0.312875  4.5e-05  0.992679  0.0  0.283046  0.300391  0.000467  1.002845  0.0
H  H10  1  0.70489867  0.45331567  0.43547515  1  0.117191  -8.8e-05  0.994902  0.0  0.123891  6.5e-05  1.063289  0.0  0.127328  -4.6e-05  1.063332  0.0  0.096718  0.121383  0.000182  1.063527  0.0
H  H11  1  0.58583781  0.04692470  0.06371585  1  0.116766  -7.8e-05  0.995175  0.0  0.124251  5.5e-05  1.062631  0.0  0.127626  -5.2e-05  1.062684  0.0  0.096518  0.121795  0.000169  1.062859  0.0
H  H12  1  0.29510565  0.54668718  0.56452747  1  0.11718  -9.6e-05  0.994991  0.0  0.123887  6.5e-05  1.06336  0.0  0.127324  -4.6e-05  1.063403  0.0  0.096728  0.12138  0.000182  1.063605  0.0
H  H13  1  0.41417582  0.95307815  0.93628833  1  0.116789  -8.5e-05  0.995158  0.0  0.124283  5.6e-05  1.062598  0.0  0.127658  -5.1e-05  1.062653  0.0  0.096558  0.121832  0.000169  1.062816  0.0
H  H14  1  0.85655863  0.42858840  0.59003132  1  0.064056  0.000356  0.969503  0.0  0.074159  0.00091  1.037122  0.001  0.0763  0.00062  1.033736  0.0  0.10646  0.072477  0.001208  1.039673  0.001
H  H15  1  0.86850137  0.07105617  0.90931070  1  0.062836  0.000368  0.967565  0.0  0.072492  0.000922  1.035901  0.001  0.074673  0.000629  1.032401  0.0  0.105528  0.070789  0.001223  1.038511  0.001
H  H16  1  0.14345374  0.57140831  0.40997214  1  0.064061  0.000355  0.969522  0.0  0.074207  0.00091  1.037095  0.001  0.076351  0.00062  1.033699  0.0  0.106467  0.072502  0.001208  1.039661  0.001
H  H17  1  0.13148781  0.92894231  0.09069323  1  0.062889  0.000368  0.967496  0.0  0.07249  0.000922  1.035892  0.001  0.074667  0.000629  1.032391  0.0  0.105507  0.070792  0.001222  1.038498  0.001
H  H18  1  0.52043607  0.35632059  0.32393109  1  0.126034  6.2e-05  0.950426  0.0  0.144825  0.000481  1.0131  0.0  0.147254  0.000279  1.011647  0.0  0.089992  0.142886  0.000696  1.014427  0.0
H  H19  1  0.20041554  0.14479484  0.17613132  1  0.125086  7.1e-05  0.951542  0.0  0.143867  0.000483  1.014264  0.0  0.146335  0.00028  1.012769  0.0  0.089594  0.141902  0.000698  1.015615  0.0
H  H20  1  0.47956281  0.64368401  0.67607055  1  0.12603  6.6e-05  0.950504  0.0  0.144853  0.000481  1.013136  0.0  0.147282  0.000279  1.011682  0.0  0.090025  0.142918  0.000696  1.014462  0.0
H  H21  1  0.79956827  0.85520802  0.82387007  1  0.125083  5.8e-05  0.951587  0.0  0.143864  0.000483  1.014304  0.0  0.146335  0.00028  1.012804  0.0  0.089582  0.141898  0.000698  1.015653  0.0
H  H22  1  0.44018185  0.20699073  0.35509438  1  0.125048  3.2e-05  0.954124  0.0  0.146372  0.000122  1.012059  0.0  0.148418  9.2e-05  1.011534  0.0  0.099501  0.144901  0.00016  1.012436  0.0
H  H23  1  0.00177707  0.29465309  0.14509641  1  0.124478  5.3e-05  0.952445  0.0  0.146016  0.000132  1.010434  0.0  0.148053  9.9e-05  1.009882  0.0  0.09898  0.144547  0.000174  1.01084  0.0
H  H24  1  0.55982580  0.79301035  0.64490590  1  0.125031  3.5e-05  0.954198  0.0  0.146348  0.000122  1.012144  0.0  0.148396  9.2e-05  1.011617  0.0  0.099481  0.14488  0.00016  1.012519  0.0
H  H25  1  0.99821054  0.70534975  0.85490118  1  0.124482  3.9e-05  0.952467  0.0  0.146032  0.000132  1.010433  0.0  0.148068  9.9e-05  1.009882  0.0  0.099008  0.144562  0.000174  1.010836  0.0
H  H26  1  0.87463892  0.23768711  0.30675101  1  0.117884  8.2e-05  0.958495  0.0  0.142076  0.000192  1.017298  0.0  0.143503  0.000149  1.017116  0.0  0.097648  0.141003  0.000248  1.017487  0.0
H  H27  1  0.42021417  0.26247802  0.19309904  1  0.117932  8.7e-05  0.958126  0.0  0.142125  0.000182  1.017158  0.0  0.143521  0.000142  1.01701  0.0  0.097707  0.141071  0.000236  1.01731  0.0
H  H28  1  0.12536561  0.76231923  0.69324671  1  0.117884  8.7e-05  0.958528  0.0  0.142081  0.000192  1.017323  0.0  0.14351  0.00015  1.017138  0.0  0.09765  0.141013  0.000248  1.017508  0.0
H  H29  1  0.57976644  0.73752747  0.80690136  1  0.117924  7.8e-05  0.958091  0.0  0.142104  0.000182  1.017148  0.0  0.143499  0.000142  1.017001  0.0  0.097751  0.141049  0.000236  1.0173  0.0
C  C30  1  0.96792681  0.15252439  0.56367854  1  0.650272  0.001741  3.793154  0.002  0.603135  0.002831  4.069696  0.003  0.630741  0.002296  4.076313  0.003  0.349493  0.584559  0.003411  4.064648  0.003
C  C31  1  0.68379862  0.34711868  0.93622109  1  0.647846  0.001698  3.797671  0.002  0.60144  0.002803  4.072939  0.003  0.628819  0.002269  4.079899  0.002  0.348848  0.582999  0.003377  4.06767  0.003
C  C32  1  0.03210390  0.84747053  0.43631844  1  0.650508  0.001731  3.79287  0.002  0.603219  0.00283  4.069611  0.003  0.630824  0.002297  4.076223  0.003  0.349529  0.584638  0.00341  4.064572  0.003
C  C33  1  0.31617914  0.65287979  0.06377796  1  0.648099  0.001698  3.797461  0.002  0.601654  0.002803  4.072721  0.003  0.629041  0.002271  4.079674  0.002  0.348965  0.583207  0.003379  4.067469  0.003
C  C34  1  0.76136794  0.26473714  0.43872046  1  0.384921  0.001799  3.748613  0.002  0.382179  0.002884  4.001999  0.002  0.398506  0.002469  4.016965  0.002  0.135155  0.371457  0.003522  3.991522  0.003
C  C35  1  0.46363368  0.23559512  0.06112757  1  0.387577  0.001815  3.7452  0.002  0.385811  0.002842  3.996999  0.002  0.402221  0.002436  4.011761  0.002  0.137444  0.375041  0.003469  3.986631  0.003
C  C36  1  0.23865881  0.73525954  0.56127949  1  0.384774  0.001782  3.748735  0.002  0.382008  0.002884  4.002133  0.002  0.398331  0.002469  4.017098  0.002  0.135186  0.371281  0.003523  3.991667  0.003
C  C37  1  0.53635499  0.76440423  0.93887366  1  0.387716  0.00176  3.745027  0.002  0.385884  0.002844  3.996925  0.002  0.402297  0.002436  4.011686  0.002  0.137499  0.375118  0.00347  3.986551  0.003
C  C38  1  0.77273725  0.36718382  0.47286413  1  -0.297509  -0.000191  3.722282  0.0  -0.311591  0.000457  3.975592  0.001  -0.328555  -0.000214  3.997958  0.0  -0.119972  -0.300662  0.001055  3.960785  0.001
C  C39  1  0.60764378  0.13291846  0.02659128  1  -0.299496  -0.000267  3.7225  0.0  -0.314552  0.000463  3.975272  0.001  -0.331465  -0.000211  3.997659  0.0  -0.120174  -0.303655  0.001063  3.960426  0.001
C  C40  1  0.22726630  0.63281463  0.52713630  1  -0.297524  -0.000155  3.722581  0.0  -0.311629  0.000457  3.975925  0.001  -0.32859  -0.000216  3.998288  0.0  -0.120054  -0.300701  0.001054  3.961115  0.001
C  C41  1  0.39235708  0.86708176  0.97341086  1  -0.29953  -0.0002  3.722517  0.0  -0.314568  0.000462  3.975303  0.001  -0.331482  -0.000212  3.997684  0.0  -0.120178  -0.303671  0.001062  3.960449  0.001
C  C42  1  0.86039610  0.35314172  0.55732547  1  0.202372  0.00172  3.761248  0.002  0.164385  0.003878  4.018294  0.003  0.179712  0.00309  4.033953  0.003  0.052931  0.154332  0.004803  4.007357  0.004
C  C43  1  0.76615148  0.14661547  0.94217277  1  0.206266  0.001733  3.75802  0.002  0.168455  0.003891  4.015595  0.003  0.1838  0.003096  4.031189  0.003  0.054533  0.158401  0.004824  4.004652  0.004
C  C44  1  0.13962156  0.64685499  0.44267813  1  0.202432  0.0017  3.761401  0.002  0.164408  0.003877  4.018429  0.003  0.179736  0.003092  4.034087  0.003  0.052987  0.15438  0.004803  4.007486  0.004
C  C45  1  0.23384311  0.85338388  0.05782797  1  0.206169  0.001703  3.757997  0.002  0.168361  0.003892  4.015559  0.003  0.183711  0.003098  4.031149  0.003  0.054489  0.158303  0.004825  4.004623  0.004
C  C46  1  0.63990999  0.26775790  0.35109556  1  -0.384277  0.000183  3.687648  0.0  -0.464746  0.000698  3.920714  0.0  -0.468754  0.000492  3.925874  0.0  -0.239222  -0.461728  0.000925  3.917073  0.001
C  C47  1  0.25864319  0.23309612  0.14890566  1  -0.383031  0.000126  3.686458  0.0  -0.464369  0.000707  3.91998  0.0  -0.468356  0.000494  3.925079  0.0  -0.238826  -0.461337  0.000937  3.916348  0.001
C  C48  1  0.36009888  0.73224494  0.64890524  1  -0.384163  0.000162  3.687715  0.0  -0.464675  0.000699  3.920814  0.0  -0.46868  0.000489  3.925972  0.0  -0.239207  -0.461659  0.000925  3.91717  0.001
C  C49  1  0.74134639  0.76690849  0.85109442  1  -0.383026  0.000187  3.686428  0.0  -0.464347  0.000706  3.919964  0.0  -0.468335  0.000495  3.925064  0.0  -0.238896  -0.461311  0.000937  3.916323  0.001
N  N50  1  0.94536060  0.24796172  0.60516922  1  -0.488293  0.023958  3.138554  0.013  -0.416816  0.025098  3.410853  0.011  -0.445975  0.022059  3.424802  0.009  -0.337177  -0.396186  0.027971  3.400527  0.013
N  N51  1  0.79651060  0.25161580  0.89458726  1  -0.488298  0.023947  3.14024  0.013  -0.417046  0.025125  3.412103  0.011  -0.446164  0.02209  3.426208  0.009  -0.337893  -0.396437  0.028005  3.401699  0.013
N  N52  1  0.05464736  0.75203587  0.39483272  1  -0.488274  0.023982  3.13859  0.014  -0.416758  0.025095  3.410955  0.011  -0.44591  0.02206  3.424891  0.009  -0.337156  -0.396126  0.027971  3.400619  0.013
N  N53  1  0.20347551  0.74837917  0.10541628  1  -0.488498  0.023974  3.140424  0.013  -0.417112  0.025128  3.41217  0.011  -0.446236  0.022091  3.426273  0.009  -0.337954  -0.396506  0.028004  3.401787  0.013
N  N54  1  0.86230864  0.15898418  0.48320541  1  -0.503171  0.000203  2.97328  0.0  -0.447511  0.000607  3.218808  0.001  -0.468323  -7.5e-05  3.227152  0.0  -0.320212  -0.433683  0.001244  3.213  0.001
N  N55  1  0.50568480  0.34109008  0.01686807  1  -0.503817  0.000218  2.972464  0.0  -0.448294  0.000627  3.217141  0.001  -0.469079  -5.9e-05  3.225561  0.0  -0.321556  -0.43455  0.001278  3.211424  0.001
N  N56  1  0.13770722  0.84101601  0.51679258  1  -0.503277  0.000219  2.973341  0.0  -0.447455  0.000606  3.218767  0.001  -0.468282  -7.8e-05  3.22715  0.0  -0.320237  -0.433626  0.001244  3.212966  0.001
N  N57  1  0.49429847  0.65890927  0.98313040  1  -0.503913  0.000256  2.97241  0.001  -0.44838  0.000627  3.217148  0.001  -0.469173  -5.8e-05  3.225569  0.0  -0.321578  -0.434634  0.001278  3.211434  0.001
N  N58  1  0.09743604  0.04670747  0.60367632  1  -0.676218  0.001692  3.122241  0.002  -0.639088  0.00294  3.36293  0.003  -0.661999  0.002223  3.358034  0.002  -0.568154  -0.623135  0.003767  3.366016  0.004
N  N59  1  0.74730932  0.45266642  0.89618169  1  -0.678952  0.001688  3.122491  0.002  -0.642101  0.002935  3.362782  0.003  -0.665029  0.002215  3.357818  0.002  -0.56822  -0.626104  0.003767  3.365927  0.004
N  N60  1  0.90258219  0.95329446  0.39631831  1  -0.676291  0.001672  3.122118  0.002  -0.639158  0.00294  3.36281  0.003  -0.66207  0.002222  3.357913  0.002  -0.568178  -0.623194  0.003767  3.365897  0.004
N  N61  1  0.25266721  0.54733030  0.10381685  1  -0.679098  0.001651  3.12229  0.002  -0.642274  0.002936  3.362745  0.003  -0.665205  0.002217  3.357776  0.002  -0.568382  -0.626271  0.003768  3.365896  0.004
Cl  Cl62  1  0.31626193  0.40420911  0.72782199  1  -0.544321  0.078532  1.075547  0.049  -0.488046  0.10394  1.373789  0.058  -0.510635  0.08935  1.349838  0.047  -0.224421  -0.469147  0.117497  1.390536  0.067
Cl  Cl63  1  0.45172563  0.09517411  0.77174668  1  -0.544972  0.078575  1.074916  0.049  -0.488863  0.103942  1.372862  0.058  -0.511557  0.089342  1.349035  0.047  -0.225243  -0.469959  0.117527  1.389662  0.067
Cl  Cl64  1  0.68373168  0.59578935  0.27217751  1  -0.544314  0.078536  1.075544  0.049  -0.488027  0.103942  1.373772  0.058  -0.510619  0.08935  1.349816  0.047  -0.224419  -0.469124  0.117502  1.390512  0.067
Cl  Cl65  1  0.54827142  0.90482260  0.22825309  1  -0.544965  0.078578  1.074936  0.049  -0.488863  0.103944  1.372874  0.058  -0.511555  0.089343  1.349039  0.047  -0.225237  -0.469954  0.117526  1.389686  0.067
