# generated using pymatgen
data_MnH10C10(NO)4
_symmetry_space_group_name_H-M   'P 1'
_cell_length_a   5.08543386
_cell_length_b   8.32453122
_cell_length_c   12.23206859
_cell_angle_alpha   93.08131400
_cell_angle_beta   89.99999689
_cell_angle_gamma   90.00048822
_symmetry_Int_Tables_number   1
_chemical_formula_structural   MnH10C10(NO)4
_chemical_formula_sum   'Mn2 H20 C20 N8 O8'
_cell_volume   517.08194113
_cell_formula_units_Z   2
loop_
 _symmetry_equiv_pos_site_id
 _symmetry_equiv_pos_as_xyz
  1  'x, y, z'
loop_
 _atom_site_type_symbol
 _atom_site_label
 _atom_site_symmetry_multiplicity
 _atom_site_fract_x
 _atom_site_fract_y
 _atom_site_fract_z
 _atom_site_occupancy
 _atom_site_hle17_ddec_charge
 _atom_site_hle17_ddec_spin_density
 _atom_site_hle17_ddec_sum_bond_order
 _atom_site_hle17_magmom
 _atom_site_hse06_10hf_ddec_charge
 _atom_site_hse06_10hf_ddec_spin_density
 _atom_site_hse06_10hf_ddec_sum_bond_order
 _atom_site_hse06_10hf_magmom
 _atom_site_hse06_ddec_charge
 _atom_site_hse06_ddec_spin_density
 _atom_site_hse06_ddec_sum_bond_order
 _atom_site_hse06_magmom
 _atom_site_pbe_cm5_charge
 _atom_site_pbe_ddec_charge
 _atom_site_pbe_ddec_spin_density
 _atom_site_pbe_ddec_sum_bond_order
 _atom_site_pbe_magmom
Mn  Mn0  1  0.99999728  0.49999567  0.49999383  1  1.155198  4.80389  1.769058  4.686  0.984584  4.730768  2.261434  4.547  1.040726  4.772121  2.19542  4.607  0.604839  0.940241  4.689396  2.312058  4.489
Mn  Mn1  1  0.50000454  0.00000494  0.00000663  1  1.155194  4.803896  1.769032  4.686  0.984605  4.730767  2.261397  4.547  1.040745  4.772121  2.195386  4.607  0.604864  0.940247  4.689394  2.312054  4.489
H  H2  1  0.26669937  0.26201102  0.68637259  1  0.090242  -0.000557  0.983385  0.0  0.093175  -0.00024  1.058087  0.0  0.095271  -0.000299  1.056442  0.0  0.130821  0.091401  -0.000172  1.059598  0.0
H  H3  1  0.76670383  0.23799612  0.81363154  1  0.090336  -0.00054  0.983341  0.0  0.093256  -0.00024  1.058077  0.0  0.095349  -0.000299  1.056432  0.0  0.130871  0.091482  -0.000172  1.059587  0.0
H  H4  1  0.73328217  0.73799962  0.31363299  1  0.090378  -0.000546  0.983248  0.0  0.093272  -0.00024  1.058044  0.0  0.095361  -0.000299  1.056402  0.0  0.130861  0.091496  -0.000172  1.059551  0.0
H  H5  1  0.23329148  0.76200242  0.18636712  1  0.090372  -0.000557  0.983297  0.0  0.093308  -0.00024  1.057996  0.0  0.095403  -0.000299  1.056351  0.0  0.130883  0.091538  -0.000172  1.059503  0.0
H  H6  1  0.56679706  0.19544409  0.50667740  1  0.105434  -0.000335  1.003317  0.0  0.111678  -0.000133  1.068426  0.0  0.11499  -0.000227  1.066545  0.0  0.113996  0.109217  3e-05  1.070062  0.0
H  H7  1  0.06678382  0.30454150  0.99331711  1  0.105332  -0.000335  1.003531  0.0  0.11165  -0.000133  1.068534  0.0  0.114928  -0.000227  1.066698  0.0  0.114029  0.109216  3e-05  1.070141  0.0
H  H8  1  0.43321398  0.80452425  0.49330803  1  0.105373  -0.000338  1.003466  0.0  0.111632  -0.000133  1.068551  0.0  0.114937  -0.000227  1.066684  0.0  0.113969  0.109171  3e-05  1.070187  0.0
H  H9  1  0.93322919  0.69548847  0.00669645  1  0.105218  -0.000351  1.003581  0.0  0.111555  -0.000133  1.068594  0.0  0.114826  -0.000227  1.066769  0.0  0.113933  0.109131  2.9e-05  1.07019  0.0
H  H10  1  0.69603210  0.90706722  0.60735383  1  0.121555  -0.00025  0.977312  0.0  0.130995  -0.00019  1.037604  0.0  0.133744  -0.000259  1.036412  0.0  0.122399  0.128347  4.5e-05  1.039479  0.0
H  H11  1  0.19601372  0.59292060  0.89264024  1  0.1215  -0.000257  0.977336  0.0  0.13095  -0.00019  1.037628  0.0  0.133705  -0.00026  1.036422  0.0  0.122372  0.128302  4.5e-05  1.039504  0.0
H  H12  1  0.30399074  0.09291917  0.39263218  1  0.121559  -0.000261  0.977335  0.0  0.130981  -0.00019  1.037648  0.0  0.133728  -0.00026  1.036459  0.0  0.122366  0.12833  4.5e-05  1.039522  0.0
H  H13  1  0.80400715  0.40708530  0.10737173  1  0.121603  -0.000268  0.977185  0.0  0.13105  -0.00019  1.03747  0.0  0.1338  -0.00026  1.036277  0.0  0.1224  0.128399  4.5e-05  1.039346  0.0
H  H14  1  0.35243570  0.98246828  0.74819516  1  0.113017  8e-05  0.957283  0.0  0.117779  0.000423  1.033798  0.0  0.120348  0.000233  1.032322  0.0  0.118475  0.11599  0.000629  1.03479  0.001
H  H15  1  0.85243888  0.51752882  0.75180571  1  0.113028  8.5e-05  0.957261  0.0  0.117778  0.000423  1.033764  0.0  0.120346  0.000232  1.032289  0.0  0.118468  0.115987  0.000629  1.034758  0.001
H  H16  1  0.64755371  0.01752180  0.25179915  1  0.112987  8.3e-05  0.957363  0.0  0.117729  0.000424  1.033837  0.0  0.120297  0.000233  1.03236  0.0  0.118445  0.115938  0.000629  1.03483  0.001
H  H17  1  0.14755839  0.48247940  0.24819816  1  0.113015  7.3e-05  0.957334  0.0  0.117751  0.000423  1.033825  0.0  0.120316  0.000233  1.032352  0.0  0.118463  0.11596  0.000629  1.03482  0.001
H  H18  1  0.15425281  0.82334414  0.69135345  1  0.124779  -0.000292  0.930076  0.0  0.137874  -2e-06  0.989263  0.0  0.140254  -0.000177  0.987978  0.0  0.122316  0.136121  0.000176  0.990296  0.001
H  H19  1  0.65424458  0.67665435  0.80864670  1  0.124744  -0.000272  0.93013  0.0  0.137821  -3e-06  0.989333  0.0  0.1402  -0.000177  0.988048  0.0  0.122281  0.136069  0.000176  0.990363  0.001
H  H20  1  0.84574447  0.17665449  0.30865339  1  0.124763  -0.000295  0.930167  0.0  0.137844  -2e-06  0.98935  0.0  0.140223  -0.000178  0.988064  0.0  0.12229  0.136094  0.000176  0.990377  0.001
H  H21  1  0.34574876  0.32335134  0.19134564  1  0.124751  -0.000291  0.930213  0.0  0.13783  -3e-06  0.989398  0.0  0.140208  -0.000178  0.988111  0.0  0.122302  0.136078  0.000176  0.990426  0.001
C  C22  1  0.09133929  0.20764079  0.65068749  1  0.152584  0.004992  3.657593  0.005  0.09536  0.006667  3.926779  0.006  0.108686  0.005762  3.940627  0.006  0.139925  0.086859  0.007701  3.916619  0.007
C  C23  1  0.59133081  0.29235578  0.84931063  1  0.152382  0.004967  3.657684  0.005  0.095183  0.006668  3.926831  0.006  0.108509  0.005762  3.94068  0.006  0.139851  0.086683  0.007701  3.916667  0.007
C  C24  1  0.90866585  0.79235291  0.34930856  1  0.152286  0.004967  3.65783  0.005  0.09507  0.006669  3.927023  0.006  0.108396  0.00576  3.940872  0.006  0.139815  0.086576  0.007701  3.916859  0.007
C  C25  1  0.40868023  0.70765123  0.15069320  1  0.152109  0.004993  3.658109  0.005  0.094924  0.00667  3.927254  0.006  0.108249  0.005763  3.941106  0.006  0.139752  0.086422  0.007703  3.917092  0.007
C  C26  1  0.73056461  0.16429832  0.55809491  1  -0.015567  0.002116  3.742942  0.003  -0.048631  0.003786  4.015829  0.004  -0.047449  0.003101  4.035254  0.003  -0.008265  -0.049447  0.004501  4.002658  0.004
C  C27  1  0.23056157  0.33569538  0.94190635  1  -0.015549  0.002147  3.743065  0.003  -0.04867  0.003786  4.015992  0.004  -0.047464  0.0031  4.035442  0.003  -0.008257  -0.049505  0.004501  4.002796  0.004
C  C28  1  0.26943856  0.83569420  0.44190274  1  -0.015597  0.002145  3.742848  0.003  -0.048673  0.003786  4.015756  0.004  -0.047489  0.003102  4.035184  0.003  -0.008238  -0.049484  0.004501  4.002578  0.004
C  C29  1  0.76944553  0.66430569  0.05810465  1  -0.015431  0.002165  3.743174  0.003  -0.048562  0.003784  4.016077  0.004  -0.047351  0.0031  4.035528  0.003  -0.008202  -0.049404  0.0045  4.002869  0.004
C  C30  1  0.78684597  0.02469481  0.60857680  1  -0.059077  -0.001014  3.66257  0.0  -0.101186  -3.6e-05  3.926668  0.0  -0.099411  -0.000693  3.945149  0.0  0.000116  -0.102213  0.000782  3.914622  0.001
C  C31  1  0.28684682  0.47529920  0.89142609  1  -0.059046  -0.00104  3.662589  0.0  -0.101183  -3.5e-05  3.92673  0.0  -0.099404  -0.000693  3.945204  0.0  9.8e-05  -0.10221  0.000782  3.914689  0.001
C  C32  1  0.21314541  0.97530857  0.39142365  1  -0.058951  -0.001024  3.662282  0.0  -0.101045  -3.5e-05  3.926379  0.0  -0.099267  -0.000695  3.944855  0.0  0.000195  -0.102068  0.000782  3.914332  0.001
C  C33  1  0.71315046  0.52470542  0.10857930  1  -0.0591  -0.000982  3.662455  0.0  -0.101221  -3.5e-05  3.926581  0.0  -0.099445  -0.000691  3.945048  0.0  0.000143  -0.102245  0.000783  3.914544  0.001
C  C34  1  0.14904470  0.94256955  0.73500089  1  -0.179311  0.001147  3.618908  0.001  -0.237979  0.00218  3.865046  0.002  -0.238932  0.001436  3.871195  0.001  -0.056181  -0.237167  0.002924  3.860917  0.002
C  C35  1  0.64905043  0.55743010  0.76499766  1  -0.179276  0.001121  3.618966  0.001  -0.237883  0.002179  3.864997  0.002  -0.238838  0.001441  3.87115  0.001  -0.056119  -0.237072  0.002924  3.86087  0.002
C  C36  1  0.85093685  0.05743382  0.26499956  1  -0.179183  0.001147  3.618862  0.001  -0.237769  0.002178  3.864925  0.002  -0.23872  0.001438  3.871075  0.001  -0.056045  -0.236956  0.002924  3.860797  0.002
C  C37  1  0.35094094  0.44256964  0.23500022  1  -0.179246  0.001173  3.619018  0.001  -0.237839  0.002179  3.86503  0.002  -0.238789  0.001441  3.87118  0.001  -0.056118  -0.237026  0.002924  3.860905  0.002
C  C38  1  0.01857197  0.92010215  0.84640631  1  0.701718  0.010146  3.825505  0.01  0.646615  0.017005  4.134763  0.016  0.681618  0.012603  4.126164  0.012  0.224467  0.622039  0.021339  4.140631  0.019
C  C39  1  0.51855624  0.57989324  0.65359377  1  0.701771  0.010145  3.825526  0.01  0.646689  0.017006  4.134716  0.016  0.68169  0.012602  4.126123  0.012  0.224518  0.622113  0.02134  4.140586  0.019
C  C40  1  0.98143120  0.07990726  0.15359678  1  0.701982  0.010165  3.825491  0.01  0.646874  0.017006  4.1347  0.016  0.681873  0.012604  4.126103  0.012  0.224518  0.622296  0.021341  4.140572  0.019
C  C41  1  0.48144103  0.42009444  0.34640127  1  0.701846  0.010141  3.825496  0.01  0.646823  0.017006  4.134589  0.016  0.681823  0.012602  4.125996  0.012  0.224519  0.622244  0.021341  4.140463  0.019
N  N42  1  0.92277126  0.27760226  0.58454410  1  -0.394784  0.024631  3.234686  0.01  -0.327812  0.0274  3.528985  0.009  -0.348138  0.024662  3.542841  0.007  -0.3527  -0.31269  0.02966  3.518984  0.01
N  N43  1  0.42276067  0.22239237  0.91545224  1  -0.394629  0.024626  3.234676  0.01  -0.327686  0.027398  3.529005  0.009  -0.348009  0.02466  3.542854  0.007  -0.352697  -0.312564  0.029657  3.519007  0.01
N  N44  1  0.07723388  0.72239382  0.41544876  1  -0.394615  0.024621  3.234832  0.01  -0.327658  0.027396  3.529147  0.009  -0.347979  0.024658  3.542998  0.007  -0.352707  -0.312537  0.029655  3.519146  0.01
N  N45  1  0.57725037  0.77761103  0.08455148  1  -0.394478  0.024595  3.234737  0.01  -0.327535  0.027396  3.529088  0.009  -0.347856  0.024656  3.542925  0.007  -0.352626  -0.312412  0.029654  3.519096  0.01
N  N46  1  0.01564948  0.05423196  0.66681105  1  -0.040588  0.001356  3.617417  0.002  0.054005  0.002792  3.828399  0.003  0.039511  0.002147  3.855703  0.002  -0.245267  0.063756  0.003117  3.80941  0.003
N  N47  1  0.51564710  0.44576786  0.83318965  1  -0.040485  0.001356  3.617306  0.002  0.054101  0.002792  3.828277  0.003  0.039607  0.002147  3.855585  0.002  -0.245238  0.063851  0.003117  3.809287  0.003
N  N48  1  0.98434583  0.94576414  0.33318426  1  -0.040621  0.00138  3.617241  0.002  0.053947  0.002791  3.828226  0.003  0.039453  0.002148  3.85553  0.002  -0.245264  0.063698  0.003117  3.80924  0.003
N  N49  1  0.48435214  0.55424279  0.16681757  1  -0.04044  0.001362  3.617376  0.002  0.054125  0.002792  3.828358  0.003  0.039631  0.002147  3.855667  0.002  -0.245255  0.063875  0.003117  3.809369  0.003
O  O50  1  0.17127842  0.87176855  0.92029973  1  -0.656916  0.02689  2.042347  0.015  -0.589411  0.035259  2.310662  0.02  -0.618616  0.030961  2.297439  0.017  -0.31185  -0.567966  0.039971  2.320249  0.024
O  O51  1  0.67128293  0.62823361  0.57969808  1  -0.65704  0.026897  2.042055  0.015  -0.589518  0.035264  2.310328  0.02  -0.618733  0.030966  2.297113  0.017  -0.311911  -0.568076  0.039977  2.319915  0.024
O  O52  1  0.82871886  0.12825526  0.07969973  1  -0.657157  0.026898  2.042113  0.015  -0.589659  0.035268  2.31046  0.02  -0.618871  0.03097  2.29724  0.017  -0.311889  -0.568207  0.039982  2.320041  0.024
O  O53  1  0.32872024  0.37174568  0.42029997  1  -0.657152  0.026895  2.041953  0.015  -0.58966  0.035268  2.310235  0.02  -0.618871  0.030969  2.297008  0.017  -0.311914  -0.568203  0.039981  2.319806  0.024
O  O54  1  0.77268871  0.94126546  0.85546273  1  -0.640671  0.029137  2.014181  0.02  -0.574788  0.039703  2.277037  0.028  -0.602267  0.03469  2.2639  0.023  -0.300727  -0.554409  0.044598  2.285781  0.032
O  O55  1  0.27269505  0.55872759  0.64453476  1  -0.64067  0.029132  2.014521  0.02  -0.574773  0.0397  2.277315  0.028  -0.602244  0.034683  2.264176  0.023  -0.300701  -0.554385  0.044593  2.286031  0.032
O  O56  1  0.22729283  0.05874999  0.14454300  1  -0.640811  0.029114  2.014558  0.02  -0.574884  0.0397  2.277372  0.028  -0.602352  0.034685  2.264224  0.023  -0.300711  -0.554506  0.044592  2.286114  0.032
O  O57  1  0.72729829  0.44124923  0.35545585  1  -0.640666  0.029127  2.014617  0.02  -0.574789  0.039696  2.277404  0.028  -0.602255  0.034679  2.264258  0.023  -0.300678  -0.554414  0.044588  2.286142  0.032
