# generated using pymatgen
data_NaH6C4N5O4
_symmetry_space_group_name_H-M   'P 1'
_cell_length_a   6.25774317
_cell_length_b   8.30253140
_cell_length_c   15.24607115
_cell_angle_alpha   89.99897020
_cell_angle_beta   90.00591276
_cell_angle_gamma   105.47399717
_symmetry_Int_Tables_number   1
_chemical_formula_structural   NaH6C4N5O4
_chemical_formula_sum   'Na4 H24 C16 N20 O16'
_cell_volume   763.39854845
_cell_formula_units_Z   4
loop_
 _symmetry_equiv_pos_site_id
 _symmetry_equiv_pos_as_xyz
  1  'x, y, z'
loop_
 _atom_site_type_symbol
 _atom_site_label
 _atom_site_symmetry_multiplicity
 _atom_site_fract_x
 _atom_site_fract_y
 _atom_site_fract_z
 _atom_site_occupancy
 _atom_site_hle17_bader_spin_density
 _atom_site_hle17_ddec_charge
 _atom_site_hle17_ddec_spin_density
 _atom_site_hle17_ddec_sum_bond_order
 _atom_site_hle17_magmom
 _atom_site_hse06_10hf_bader_spin_density
 _atom_site_hse06_10hf_ddec_charge
 _atom_site_hse06_10hf_ddec_spin_density
 _atom_site_hse06_10hf_ddec_sum_bond_order
 _atom_site_hse06_10hf_magmom
 _atom_site_hse06_bader_spin_density
 _atom_site_hse06_ddec_charge
 _atom_site_hse06_ddec_spin_density
 _atom_site_hse06_ddec_sum_bond_order
 _atom_site_hse06_magmom
 _atom_site_pbe_bader_spin_density
 _atom_site_pbe_cm5_charge
 _atom_site_pbe_ddec_charge
 _atom_site_pbe_ddec_spin_density
 _atom_site_pbe_ddec_sum_bond_order
 _atom_site_pbe_magmom
Na  Na0  1  0.21711702  0.95227378  0.05073831  1  0  0.901171  0  0.359814  0  0  0.853726  0  0.514435  0  0  0.864297  0  0.492243  0  0  0.638925  0.845926  0  0.530286  0
Na  Na1  1  0.28289471  0.04771817  0.55073014  1  0  0.90117  0  0.359781  0  0  0.853682  0  0.514503  0  0  0.86428  0  0.492267  0  0  0.638888  0.845885  0  0.530362  0
Na  Na2  1  0.78289766  0.04771944  0.94927065  1  0  0.90113  0  0.359809  0  0  0.853681  0  0.514451  0  0  0.864268  0  0.49223  0  0  0.638871  0.845878  0  0.530306  0
Na  Na3  1  0.71709423  0.95228858  0.44926242  1  0  0.901158  0  0.359792  0  0  0.853692  0  0.514464  0  0  0.864284  0  0.492244  0  0  0.638878  0.845898  0  0.530317  0
H  H4  1  0.82776586  0.78963575  0.23361273  1  0  0.346808  0  0.903524  0  0  0.326294  0  0.96192  0  0  0.336845  0  0.952853  0  0  0.312062  0.318881  0  0.968293  0
H  H5  1  0.67226244  0.21035160  0.73362235  1  0  0.346854  0  0.90345  0  0  0.326353  0  0.961825  0  0  0.336898  0  0.952769  0  0  0.312066  0.318941  0  0.968197  0
H  H6  1  0.17225233  0.21035375  0.76637590  1  0  0.34682  0  0.903463  0  0  0.326318  0  0.961857  0  0  0.336867  0  0.952798  0  0  0.312014  0.318905  0  0.968228  0
H  H7  1  0.32771583  0.78966131  0.26637546  1  0  0.346743  0  0.903524  0  0  0.326255  0  0.961887  0  0  0.3368  0  0.952831  0  0  0.312025  0.318843  0  0.968255  0
H  H8  1  0.82182453  0.99653903  0.14609065  1  0  0.414165  0  0.87891  0  0  0.388115  0  0.940452  0  0  0.397677  0  0.926511  0  0  0.298077  0.381347  0  0.950315  0
H  H9  1  0.67819755  0.00342692  0.64610654  1  0  0.414438  0  0.878672  0  0  0.388245  0  0.940308  0  0  0.397806  0  0.926368  0  0  0.298168  0.381477  0  0.950172  0
H  H10  1  0.17820873  0.00346180  0.85389994  1  0  0.414381  0  0.878751  0  0  0.388333  0  0.940163  0  0  0.397896  0  0.926219  0  0  0.298212  0.381568  0  0.950019  0
H  H11  1  0.32179695  0.99657737  0.35389389  1  0  0.414447  0  0.878622  0  0  0.388235  0  0.940309  0  0  0.397796  0  0.926369  0  0  0.29818  0.38147  0  0.950166  0
H  H12  1  0.01569705  0.05874444  0.21535192  1  0  0.393853  0  0.921462  0  0  0.351631  0  1.004494  0  0  0.363139  0  0.987837  0  0  0.282271  0.34357  0  1.016134  0
H  H13  1  0.48433111  0.94124404  0.71535807  1  0  0.393791  0  0.921569  0  0  0.351596  0  1.00455  0  0  0.363102  0  0.987899  0  0  0.282239  0.343536  0  1.01619  0
H  H14  1  0.98430952  0.94126244  0.78466163  1  0  0.393846  0  0.921463  0  0  0.351655  0  1.004446  0  0  0.363166  0  0.987787  0  0  0.2823  0.343588  0  1.016098  0
H  H15  1  0.51566253  0.05875776  0.28465221  1  0  0.393785  0  0.921551  0  0  0.351605  0  1.004527  0  0  0.363117  0  0.987861  0  0  0.28229  0.343542  0  1.016174  0
H  H16  1  0.19437967  0.29098918  0.96827127  1  0  0.391113  0  0.919911  0  0  0.354178  0  0.994906  0  0  0.364624  0  0.979486  0  0  0.2839  0.346803  0  1.005763  0
H  H17  1  0.30560117  0.70901301  0.46826739  1  0  0.39121  0  0.91978  0  0  0.354266  0  0.994804  0  0  0.364712  0  0.979386  0  0  0.283888  0.346895  0  1.005654  0
H  H18  1  0.80563917  0.70901154  0.03173113  1  0  0.391124  0  0.919886  0  0  0.354171  0  0.994919  0  0  0.364618  0  0.979501  0  0  0.283852  0.346798  0  1.005775  0
H  H19  1  0.69438189  0.29098123  0.53173304  1  0  0.391214  0  0.919772  0  0  0.354298  0  0.994755  0  0  0.364746  0  0.979332  0  0  0.283953  0.346925  0  1.005611  0
H  H20  1  0.14573077  0.28446480  0.06857550  1  0  0.399767  0  0.911918  0  0  0.361058  0  0.990496  0  0  0.372136  0  0.974319  0  0  0.275765  0.353276  0  1.001831  0
H  H21  1  0.35429395  0.71553376  0.56857361  1  0  0.39965  0  0.912079  0  0  0.360953  0  0.990637  0  0  0.37203  0  0.974461  0  0  0.275697  0.353167  0  1.00198  0
H  H22  1  0.85425998  0.71553324  0.93142296  1  0  0.399765  0  0.911907  0  0  0.36104  0  0.990506  0  0  0.372117  0  0.974331  0  0  0.275747  0.35326  0  1.001838  0
H  H23  1  0.64571881  0.28446319  0.43142223  1  0  0.399722  0  0.911965  0  0  0.360987  0  0.990587  0  0  0.372065  0  0.974409  0  0  0.275751  0.353206  0  1.001921  0
H  H24  1  0.69503022  0.36068851  0.01253665  1  0  0.310884  0  0.925001  0  0  0.28712  0  0.992324  0  0  0.296985  0  0.984031  0  0  0.324371  0.280139  0  0.998256  0
H  H25  1  0.80500818  0.63930782  0.51254189  1  0  0.31079  0  0.925114  0  0  0.287059  0  0.992405  0  0  0.296922  0  0.98412  0  0  0.324423  0.28008  0  0.998331  0
H  H26  1  0.30496255  0.63929208  0.98746182  1  0  0.310845  0  0.925276  0  0  0.28706  0  0.992609  0  0  0.296925  0  0.984319  0  0  0.324347  0.280085  0  0.998537  0
H  H27  1  0.19498986  0.36071146  0.48746445  1  0  0.310779  0  0.925287  0  0  0.287069  0  0.992524  0  0  0.296938  0  0.98423  0  0  0.324409  0.280089  0  0.998454  0
C  C28  1  0.72347616  0.53172423  0.19797173  1  0  0.24913  0  3.863094  0  0  0.216658  0  4.144577  0  0  0.225693  0  4.15939  0  0  0.233208  0.210268  0  4.134979  0
C  C29  1  0.77650258  0.46826968  0.69797613  1  0  0.249261  0  3.86307  0  0  0.216886  0  4.144505  0  0  0.22591  0  4.159327  0  0  0.233352  0.210434  0  4.134997  0
C  C30  1  0.27658433  0.46827679  0.80202542  1  0  0.249312  0  3.86341  0  0  0.216925  0  4.144646  0  0  0.225948  0  4.159463  0  0  0.233279  0.210535  0  4.13505  0
C  C31  1  0.22335650  0.53173118  0.30202562  1  0  0.249587  0  3.862687  0  0  0.216941  0  4.144507  0  0  0.225966  0  4.159308  0  0  0.233292  0.210554  0  4.134914  0
C  C32  1  0.67508416  0.38361366  0.25331682  1  0  0.358325  0  3.895863  0  0  0.323541  0  4.177738  0  0  0.343914  0  4.187365  0  0  0.238062  0.310181  0  4.170969  0
C  C33  1  0.82484269  0.61638079  0.75332447  1  0  0.358577  0  3.895873  0  0  0.323716  0  4.177806  0  0  0.344103  0  4.187448  0  0  0.238256  0.310383  0  4.171037  0
C  C34  1  0.32497687  0.61639360  0.74667706  1  0  0.358182  0  3.896113  0  0  0.323566  0  4.177674  0  0  0.343949  0  4.1873  0  0  0.23818  0.310207  0  4.170916  0
C  C35  1  0.17502012  0.38360763  0.24668055  1  0  0.358333  0  3.895788  0  0  0.323389  0  4.177984  0  0  0.343774  0  4.187605  0  0  0.238101  0.310013  0  4.171228  0
C  C36  1  0.64004155  0.22419567  0.12898055  1  0  0.668649  0  3.897623  0  0  0.60463  0  4.205822  0  0  0.636397  0  4.204539  0  0  0.326388  0.583397  0  4.2061  0
C  C37  1  0.85995782  0.77580476  0.62898815  1  0  0.668046  0  3.897923  0  0  0.604011  0  4.206173  0  0  0.63578  0  4.204902  0  0  0.32615  0.582771  0  4.206468  0
C  C38  1  0.35997334  0.77580752  0.87102250  1  0  0.668382  0  3.898123  0  0  0.604388  0  4.206296  0  0  0.63614  0  4.205029  0  0  0.326339  0.583148  0  4.206593  0
C  C39  1  0.14002247  0.22419072  0.37101819  1  0  0.668305  0  3.897925  0  0  0.604254  0  4.206122  0  0  0.636019  0  4.20483  0  0  0.326218  0.58302  0  4.206414  0
C  C40  1  0.74297474  0.60133978  0.33918327  1  0  0.710841  0  3.851169  0  0  0.645697  0  4.168999  0  0  0.679091  0  4.166164  0  0  0.320875  0.62317  0  4.170343  0
C  C41  1  0.75699656  0.39864887  0.83919341  1  0  0.710996  0  3.85107  0  0  0.645836  0  4.168875  0  0  0.67923  0  4.166059  0  0  0.320819  0.623298  0  4.170228  0
C  C42  1  0.25701804  0.39865952  0.66081454  1  0  0.710892  0  3.850728  0  0  0.645671  0  4.168691  0  0  0.679076  0  4.165861  0  0  0.320836  0.623133  0  4.170055  0
C  C43  1  0.24304578  0.60134578  0.16080833  1  0  0.710917  0  3.850758  0  0  0.6457  0  4.168616  0  0  0.679102  0  4.165786  0  0  0.320904  0.62315  0  4.169985  0
N  N44  1  0.76195255  0.66493942  0.25359673  1  0  -0.503794  0  3.278316  0  0  -0.444239  0  3.519371  0  0  -0.468612  0  3.526594  0  0  -0.390527  -0.427657  0  3.514457  0
N  N45  1  0.73803610  0.33505795  0.75360143  1  0  -0.503969  0  3.278141  0  0  -0.444422  0  3.519186  0  0  -0.468802  0  3.526413  0  0  -0.390499  -0.427816  0  3.514291  0
N  N46  1  0.23804398  0.33506614  0.74639846  1  0  -0.503795  0  3.278089  0  0  -0.444301  0  3.519189  0  0  -0.468681  0  3.526399  0  0  -0.390437  -0.427712  0  3.514279  0
N  N47  1  0.26201596  0.66494176  0.24639442  1  0  -0.503824  0  3.277792  0  0  -0.444296  0  3.51911  0  0  -0.46867  0  3.526334  0  0  -0.390414  -0.427701  0  3.514188  0
N  N48  1  0.72491015  0.52700718  0.11263964  1  0  -0.173492  0  3.003775  0  0  -0.14837  0  3.265691  0  0  -0.150625  0  3.276376  0  0  -0.181929  -0.146789  0  3.258871  0
N  N49  1  0.77512050  0.47299819  0.61264786  1  0  -0.173448  0  3.003665  0  0  -0.148406  0  3.265697  0  0  -0.150656  0  3.276377  0  0  -0.18202  -0.146807  0  3.258898  0
N  N50  1  0.27496847  0.47299008  0.88735227  1  0  -0.173437  0  3.004137  0  0  -0.148355  0  3.266067  0  0  -0.150611  0  3.276753  0  0  -0.181948  -0.14676  0  3.25924  0
N  N51  1  0.22500973  0.52700581  0.38735192  1  0  -0.173462  0  3.004192  0  0  -0.148253  0  3.266205  0  0  -0.150493  0  3.276871  0  0  -0.181881  -0.146665  0  3.259384  0
N  N52  1  0.68213430  0.36941746  0.08042988  1  0  -0.297994  0  3.355176  0  0  -0.240003  0  3.605049  0  0  -0.261322  0  3.617267  0  0  -0.268558  -0.226014  0  3.596938  0
N  N53  1  0.81789944  0.63058243  0.58043446  1  0  -0.297762  0  3.355138  0  0  -0.239828  0  3.605157  0  0  -0.261144  0  3.617367  0  0  -0.268532  -0.225834  0  3.597035  0
N  N54  1  0.31795620  0.63058252  0.91957449  1  0  -0.298047  0  3.355413  0  0  -0.240134  0  3.60538  0  0  -0.261456  0  3.617597  0  0  -0.268542  -0.226152  0  3.597269  0
N  N55  1  0.18206943  0.36942169  0.41957253  1  0  -0.298095  0  3.355622  0  0  -0.240157  0  3.605486  0  0  -0.261476  0  3.617684  0  0  -0.268654  -0.226175  0  3.597388  0
N  N56  1  0.63018304  0.23164184  0.21856535  1  0  -0.515416  0  3.037532  0  0  -0.459038  0  3.299021  0  0  -0.481129  0  3.30481  0  0  -0.315921  -0.444449  0  3.295115  0
N  N57  1  0.86979079  0.76835112  0.71857279  1  0  -0.515197  0  3.03779  0  0  -0.458835  0  3.299405  0  0  -0.480911  0  3.30514  0  0  -0.315904  -0.44425  0  3.295501  0
N  N58  1  0.36976243  0.76835464  0.78143771  1  0  -0.515301  0  3.03769  0  0  -0.458985  0  3.299112  0  0  -0.481054  0  3.304876  0  0  -0.315951  -0.444402  0  3.295219  0
N  N59  1  0.13024813  0.23165224  0.28143158  1  0  -0.51537  0  3.037796  0  0  -0.458872  0  3.299331  0  0  -0.480943  0  3.305093  0  0  -0.315911  -0.444279  0  3.295426  0
N  N60  1  0.68546580  0.42723843  0.33830659  1  0  -0.572449  0  2.917049  0  0  -0.526675  0  3.187492  0  0  -0.550463  0  3.193584  0  0  -0.342952  -0.510391  0  3.182996  0
N  N61  1  0.81447292  0.57275372  0.83831751  1  0  -0.572831  0  2.91679  0  0  -0.527081  0  3.187389  0  0  -0.55081  0  3.193305  0  0  -0.343211  -0.510806  0  3.182907  0
N  N62  1  0.31450092  0.57275944  0.66168597  1  0  -0.572382  0  2.916909  0  0  -0.526788  0  3.187555  0  0  -0.550522  0  3.19348  0  0  -0.343038  -0.510492  0  3.183041  0
N  N63  1  0.18556707  0.42724341  0.16168686  1  0  -0.572585  0  2.916706  0  0  -0.526873  0  3.187476  0  0  -0.550603  0  3.193393  0  0  -0.343133  -0.510596  0  3.183047  0
O  O64  1  0.94613483  0.96356773  0.17453890  1  0  -0.829455  0  1.821296  0  0  -0.773629  0  1.989389  0  0  -0.791845  0  1.9586  0  0  -0.602115  -0.760753  0  2.010825  0
O  O65  1  0.55390107  0.03641374  0.67454573  1  0  -0.829678  0  1.821213  0  0  -0.773679  0  1.989337  0  0  -0.791907  0  1.958564  0  0  -0.60216  -0.760794  0  2.010772  0
O  O66  1  0.05389887  0.03645305  0.82545891  1  0  -0.829649  0  1.821173  0  0  -0.773808  0  1.989225  0  0  -0.792035  0  1.958432  0  0  -0.602261  -0.760924  0  2.010658  0
O  O67  1  0.44608637  0.96357929  0.32545535  1  0  -0.829641  0  1.821203  0  0  -0.773671  0  1.989408  0  0  -0.791894  0  1.958644  0  0  -0.602253  -0.760794  0  2.010839  0
O  O68  1  0.13533338  0.21071304  0.01597914  1  0  -0.914073  0  1.827446  0  0  -0.868928  0  2.021804  0  0  -0.885033  0  1.988184  0  0  -0.692223  -0.857436  0  2.045301  0
O  O69  1  0.36467750  0.78928706  0.51597697  1  0  -0.914074  0  1.827477  0  0  -0.868928  0  2.021796  0  0  -0.885042  0  1.988178  0  0  -0.69213  -0.857441  0  2.045296  0
O  O70  1  0.86468184  0.78928641  0.98402195  1  0  -0.914006  0  1.827362  0  0  -0.86887  0  2.021803  0  0  -0.884947  0  1.988125  0  0  -0.692142  -0.85738  0  2.045299  0
O  O71  1  0.63533728  0.21071114  0.48402018  1  0  -0.914091  0  1.827358  0  0  -0.868961  0  2.021691  0  0  -0.885061  0  1.988069  0  0  -0.692249  -0.857473  0  2.04519  0
O  O72  1  0.61298294  0.08572529  0.08945637  1  0  -0.718908  0  1.942565  0  0  -0.67397  0  2.183619  0  0  -0.693698  0  2.169305  0  0  -0.397862  -0.660044  0  2.192993  0
O  O73  1  0.88704386  0.91427594  0.58946180  1  0  -0.718788  0  1.942452  0  0  -0.673801  0  2.183542  0  0  -0.693532  0  2.169229  0  0  -0.397814  -0.659876  0  2.192924  0
O  O74  1  0.38697289  0.91426877  0.91054406  1  0  -0.718769  0  1.942839  0  0  -0.673903  0  2.183984  0  0  -0.693641  0  2.169693  0  0  -0.397856  -0.65997  0  2.193355  0
O  O75  1  0.11296943  0.08572724  0.41054126  1  0  -0.718731  0  1.942608  0  0  -0.673744  0  2.18366  0  0  -0.693474  0  2.169347  0  0  -0.397776  -0.659823  0  2.193042  0
O  O76  1  0.77409541  0.69218128  0.40554945  1  0  -0.619134  0  1.977063  0  0  -0.57772  0  2.220155  0  0  -0.598054  0  2.208383  0  0  -0.341787  -0.563349  0  2.227761  0
O  O77  1  0.72586358  0.30780835  0.90555126  1  0  -0.619093  0  1.977294  0  0  -0.57764  0  2.220311  0  0  -0.597976  0  2.208535  0  0  -0.341671  -0.563274  0  2.227959  0
O  O78  1  0.22591157  0.30780814  0.59444705  1  0  -0.619162  0  1.976763  0  0  -0.5777  0  2.219861  0  0  -0.598051  0  2.208084  0  0  -0.341782  -0.563324  0  2.227482  0
O  O79  1  0.27411479  0.69219085  0.09444523  1  0  -0.619258  0  1.977117  0  0  -0.577625  0  2.220057  0  0  -0.597973  0  2.208283  0  0  -0.341787  -0.563233  0  2.227659  0
