# generated using pymatgen
data_ZnH13C18N2O5
_symmetry_space_group_name_H-M   'P 1'
_cell_length_a   11.12817976
_cell_length_b   16.44206464
_cell_length_c   17.80616048
_cell_angle_alpha   88.77008161
_cell_angle_beta   91.18236663
_cell_angle_gamma   75.79071086
_symmetry_Int_Tables_number   1
_chemical_formula_structural   ZnH13C18N2O5
_chemical_formula_sum   'Zn2 H26 C36 N4 O10'
_cell_volume   3156.46541704
_cell_formula_units_Z   2
loop_
 _symmetry_equiv_pos_site_id
 _symmetry_equiv_pos_as_xyz
  1  'x, y, z'
loop_
 _atom_site_type_symbol
 _atom_site_label
 _atom_site_symmetry_multiplicity
 _atom_site_fract_x
 _atom_site_fract_y
 _atom_site_fract_z
 _atom_site_occupancy
 _atom_site_pbe_bader_charge
 _atom_site_pbe_bader_spin_density
 _atom_site_pbe_cm5_charge
 _atom_site_pbe_ddec_charge
 _atom_site_pbe_ddec_spin_density
 _atom_site_pbe_ddec_sum_bond_order
 _atom_site_pbe_magmom
Zn  Zn0  1  0.47984936  0.58392236  0.49366648  1  1.276004  0  0.658672  0.806822  0  2.439589  0
Zn  Zn1  1  0.50900721  0.41490249  0.50123130  1  1.278802  0  0.65938  0.807011  0  2.454093  0
H  H2  1  0.37823392  0.87824879  0.60210972  1  0.120074  0  0.120034  0.129487  0  0.975029  0
H  H3  1  0.51622937  0.62801250  0.25995129  1  0.066168  0  0.097863  0.109627  0  1.02822  0
H  H4  1  0.59035858  0.85283665  0.39908674  1  0.069144  0  0.116421  0.12473  0  0.98199  0
H  H5  1  0.35269106  0.16048615  0.58696758  1  0.092189  0  0.119727  0.129581  0  0.975215  0
H  H6  1  0.57794068  0.70209134  0.39770587  1  0.11111  0  0.128169  0.099952  0  0.980321  0
H  H7  1  0.36904061  0.31061034  0.58321459  1  0.151554  0  0.134729  0.11262  0  0.961492  0
H  H8  1  0.37810669  0.72573176  0.59233753  1  0.143425  0  0.136206  0.11347  0  0.958197  0
H  H9  1  0.63849097  0.26211874  0.42270226  1  0.116666  0  0.133795  0.109971  0  0.964116  0
H  H10  1  0.22100085  0.40228946  0.43028417  1  0.492526  0  0.298621  0.260488  0  0.996487  0
H  H11  1  0.12172219  0.38541992  0.30431731  1  0.039453  0  0.094845  0.094433  0  0.985979  0
H  H12  1  0.98473422  0.38365776  0.35433710  1  0.050839  0  0.103574  0.111221  0  1.011916  0
H  H13  1  0.63545166  0.10952595  0.41892549  1  0.115338  0  0.118262  0.127094  0  0.978251  0
H  H14  1  0.11943647  0.29989868  0.36731335  1  0.048332  0  0.097346  0.098949  0  0.988144  0
H  H15  1  0.76969810  0.59251097  0.41654365  1  0.457775  0  0.293691  0.248966  0  1.016623  0
H  H16  1  0.87243794  0.60010728  0.29098825  1  0.042108  0  0.092224  0.091478  0  0.990867  0
H  H17  1  0.00738150  0.60620965  0.34449275  1  0.077209  0  0.105963  0.116221  0  1.005457  0
H  H18  1  0.87229893  0.69011643  0.34559063  1  0.006702  0  0.094808  0.095461  0  0.991675  0
H  H19  1  0.54727605  0.30767321  0.85898756  1  0.596104  0  0.336593  0.361915  0  0.876935  0
H  H20  1  0.54902275  0.68766282  0.14775307  1  0.595652  0  0.335353  0.360588  0  0.878144  0
H  H21  1  0.06112662  0.60262915  0.49710706  1  0.09197  0  0.098911  0.139698  0  1.015954  0
H  H22  1  0.92698305  0.39729741  0.50499046  1  0.098  0  0.098281  0.1377  0  1.017751  0
H  H23  1  0.58933809  0.62101385  0.86936478  1  0.072041  0  0.105782  0.109595  0  0.986912  0
H  H24  1  0.57771263  0.36374298  0.11943733  1  0.082792  0  0.105583  0.110311  0  0.987116  0
H  H25  1  0.55718033  0.62325559  0.72938177  1  0.089381  0  0.100072  0.107244  0  1.01165  0
H  H26  1  0.54236487  0.36345219  0.25832114  1  0.085381  0  0.098606  0.105613  0  1.012168  0
H  H27  1  0.52388871  0.36896089  0.74161336  1  0.084388  0  0.101553  0.116093  0  1.019773  0
C  C28  1  0.50269810  0.49705686  0.34941514  1  1.587376  0  0.206833  0.587451  0  4.173526  0
C  C29  1  0.42604958  0.26323941  0.54828670  1  0.471566  0  0.064506  0.104321  0  3.918615  0
C  C30  1  0.42290457  0.75732143  0.55085566  1  0.507695  0  0.068192  0.110051  0  3.905828  0
C  C31  1  0.57772968  0.23593647  0.45811577  1  0.494431  0  0.0654  0.106536  0  3.925013  0
C  C32  1  0.42361840  0.84136078  0.55598494  1  -0.03718  0  -0.067429  -0.167937  0  3.901565  0
C  C33  1  0.57527408  0.15202833  0.45617746  1  -0.024588  0  -0.070671  -0.171741  0  3.911502  0
C  C34  1  0.48418378  0.87810053  0.50082887  1  0.077094  0  0.022331  0.177282  0  4.105284  0
C  C35  1  0.49381645  0.12258972  0.50324325  1  0.069729  0  0.0197  0.173069  0  4.109668  0
C  C36  1  0.48677439  0.96362350  0.50294292  1  -0.020999  0  -0.028447  -0.091866  0  4.079779  0
C  C37  1  0.48935771  0.03733919  0.50321071  1  -0.2829  0  -0.027385  -0.088864  0  4.080402  0
C  C38  1  0.73596611  0.46889697  0.48802091  1  1.473297  0  0.19024  0.645419  0  4.186223  0
C  C39  1  0.51348731  0.49789264  0.64437376  1  1.565884  0  0.212305  0.593301  0  4.162329  0
C  C40  1  0.25282484  0.53105186  0.49000643  1  1.475401  0  0.190481  0.646975  0  4.186649  0
C  C41  1  0.86883419  0.45431153  0.47913721  1  0.010497  0  -0.148972  -0.433009  0  3.948034  0
C  C42  1  0.12002276  0.54421189  0.47808603  1  -0.026327  0  -0.150601  -0.436185  0  3.94412  0
C  C43  1  0.92570264  0.50816768  0.44172789  1  0.441025  0  0.11518  0.211833  0  4.043575  0
C  C44  1  0.06420499  0.48769508  0.44443705  1  0.387205  0  0.115233  0.208796  0  4.044883  0
C  C45  1  0.57536164  0.56594503  0.84079660  1  -0.025146  0  -0.085758  -0.113976  0  3.987286  0
C  C46  1  0.56595842  0.42106044  0.15109059  1  -0.007864  0  -0.085287  -0.112918  0  3.987357  0
C  C47  1  0.55689830  0.56752156  0.76341499  1  -0.066228  0  -0.099166  -0.126892  0  4.029177  0
C  C48  1  0.54562185  0.42086097  0.22768918  1  -0.08271  0  -0.102798  -0.132479  0  4.039584  0
C  C49  1  0.53678820  0.49656411  0.72767504  1  0.052975  0  -0.016486  0.005109  0  3.979612  0
C  C50  1  0.57496519  0.49372879  0.88508686  1  0.11812  0  -0.009739  0.036316  0  4.093476  0
C  C51  1  0.52682722  0.49585088  0.26687519  1  -0.010308  0  -0.019804  0.004685  0  3.987736  0
C  C52  1  0.53876164  0.42380453  0.77039251  1  -0.013842  0  -0.108544  -0.253988  0  4.01172  0
C  C53  1  0.53207418  0.57005344  0.22865066  1  -0.050733  0  -0.112309  -0.259724  0  4.024957  0
C  C54  1  0.55841287  0.42164149  0.84795226  1  0.403868  0  0.083805  0.270005  0  4.055259  0
C  C55  1  0.55548137  0.57024452  0.15211628  1  0.495686  0  0.082079  0.266428  0  4.063174  0
C  C56  1  0.08626978  0.36817248  0.35832854  1  0.297021  0  -0.134931  -0.211516  0  3.991379  0
C  C57  1  0.90578199  0.62144183  0.34416784  1  0.296756  0  -0.135863  -0.21209  0  3.992646  0
C  C58  1  0.57049723  0.49549404  0.11123838  1  0.157563  0  -0.011084  0.036707  0  4.093928  0
C  C59  1  0.58437522  0.49395409  0.96413709  1  -0.117787  0  -0.044091  -0.082685  0  4.124451  0
C  C60  1  0.58295943  0.49568895  0.03265584  1  -0.205834  0  -0.046747  -0.087273  0  4.127317  0
C  C61  1  0.54198859  0.82715170  0.44267102  1  -0.001237  0  -0.071454  -0.172636  0  3.916358  0
C  C62  1  0.41753953  0.18038681  0.55007127  1  0.007617  0  -0.069715  -0.170416  0  3.908842  0
C  C63  1  0.53584412  0.74394816  0.44178911  1  0.527245  0  0.062441  0.102619  0  3.93739  0
N  N64  1  0.47757071  0.70969772  0.49467678  1  -1.220721  0  -0.30978  -0.180504  0  3.497984  0
N  N65  1  0.50489627  0.29026480  0.50340239  1  -1.230876  0  -0.312402  -0.186274  0  3.503243  0
N  N66  1  0.12721204  0.41126981  0.42052340  1  -1.234101  0  -0.434626  -0.265092  0  3.567402  0
N  N67  1  0.86344658  0.58282180  0.40926397  1  -1.199022  0  -0.436475  -0.266779  0  3.574737  0
O  O68  1  0.45984962  0.56857898  0.37800780  1  -1.17086  0  -0.328805  -0.558104  0  2.292545  0
O  O69  1  0.56287429  0.64151752  0.11305963  1  -1.11755  0  -0.356324  -0.445908  0  2.260342  0
O  O70  1  0.48937437  0.43288607  0.61600354  1  -1.173644  0  -0.324455  -0.554699  0  2.300621  0
O  O71  1  0.52841570  0.42634803  0.38455567  1  -1.174578  0  -0.32228  -0.556823  0  2.31344  0
O  O72  1  0.51999122  0.56413387  0.60774053  1  -1.169598  0  -0.318697  -0.553118  0  2.31943  0
O  O73  1  0.66649917  0.54262064  0.47020344  1  -1.179646  0  -0.327079  -0.576353  0  2.335012  0
O  O74  1  0.32225324  0.45636584  0.48019767  1  -1.180384  0  -0.327743  -0.579439  0  2.354143  0
O  O75  1  0.69314574  0.40818764  0.51321028  1  -1.168372  0  -0.340238  -0.561683  0  2.261977  0
O  O76  1  0.29634442  0.59314115  0.50929854  1  -1.161042  0  -0.341501  -0.56485  0  2.255056  0
O  O77  1  0.56075209  0.35155696  0.89162265  1  -1.115099  0  -0.356109  -0.447425  0  2.258985  0
