# generated using pymatgen
data_Zn2H45C56I3(N2O3)4
_symmetry_space_group_name_H-M   'P 1'
_cell_length_a   14.61530975
_cell_length_b   16.01021904
_cell_length_c   23.76072227
_cell_angle_alpha   89.82171420
_cell_angle_beta   90.14339584
_cell_angle_gamma   89.81850262
_symmetry_Int_Tables_number   1
_chemical_formula_structural   Zn2H45C56I3(N2O3)4
_chemical_formula_sum   'Zn2 H45 C56 I3 N8 O12'
_cell_volume   5559.80146006
_cell_formula_units_Z   1
loop_
 _symmetry_equiv_pos_site_id
 _symmetry_equiv_pos_as_xyz
  1  'x, y, z'
loop_
 _atom_site_type_symbol
 _atom_site_label
 _atom_site_symmetry_multiplicity
 _atom_site_fract_x
 _atom_site_fract_y
 _atom_site_fract_z
 _atom_site_occupancy
 _atom_site_pbe_bader_charge
 _atom_site_pbe_bader_spin_density
 _atom_site_pbe_cm5_charge
 _atom_site_pbe_ddec_charge
 _atom_site_pbe_ddec_spin_density
 _atom_site_pbe_ddec_sum_bond_order
 _atom_site_pbe_magmom
Zn  Zn0  1  0.40396540  0.50171429  0.49816594  1  1.316175  0  0.682445  0.890848  0  2.433483  0
Zn  Zn1  1  0.59486107  0.50115622  0.50024571  1  1.291323  0  0.680915  0.885845  0  2.438505  0
H  H2  1  0.35684364  0.48699642  0.31933363  1  0.13216  0  0.10656  0.123027  0  0.998012  0
H  H3  1  0.64795609  0.51781763  0.32154258  1  0.102646  0  0.108173  0.112885  0  0.996641  0
H  H4  1  0.64945118  0.52101576  0.21565559  1  0.081813  0  0.111634  0.119576  0  0.972492  0
H  H5  1  0.42412830  0.07608049  0.42666739  1  0.014242  0  0.092672  0.090817  0  0.97775  0
H  H6  1  0.59985483  0.07316339  0.43883149  1  0.028997  0  0.093935  0.094894  0  0.975794  0
H  H7  1  0.43330959  0.92993629  0.42543787  1  -0.002296  0  0.092229  0.091588  0  0.977567  0
H  H8  1  0.59750545  0.92728184  0.43943126  1  0.045094  0  0.095676  0.09697  0  0.974189  0
H  H9  1  0.64869712  0.92658155  0.50607148  1  0.033297  0  0.092298  0.085408  0  0.99737  0
H  H10  1  0.35616978  0.92713473  0.48286359  1  0.077044  0  0.091673  0.091247  0  1.00761  0
H  H11  1  0.64709294  0.07369742  0.50724980  1  0.024358  0  0.089943  0.086874  0  0.986386  0
H  H12  1  0.35470523  0.07282156  0.48742123  1  0.040702  0  0.092214  0.090555  0  0.97905  0
H  H13  1  0.42424845  0.07732230  0.58347642  1  0.026331  0  0.099261  0.110679  0  1.002318  0
H  H14  1  0.54376778  0.07192467  0.59228833  1  0.047986  0  0.096366  0.103978  0  0.991208  0
H  H15  1  0.07793837  0.62844173  0.51593503  1  0.047319  0  0.106375  0.109919  0  0.961563  0
H  H16  1  0.91850685  0.62830940  0.52015950  1  0.042417  0  0.106132  0.108946  0  0.962685  0
H  H17  1  0.46171870  0.71250216  0.94359912  1  0.135321  0  0.113309  0.127143  0  0.996612  0
H  H18  1  0.91757756  0.45130934  0.41556033  1  0.054263  0  0.102703  0.098523  0  0.979651  0
H  H19  1  0.07762960  0.44669118  0.41634092  1  0.052999  0  0.102751  0.098208  0  0.979699  0
H  H20  1  0.92021307  0.56079609  0.42191947  1  0.042844  0  0.106476  0.109618  0  0.960662  0
H  H21  1  0.08001057  0.55627955  0.42020796  1  0.051646  0  0.107586  0.11115  0  0.960023  0
H  H22  1  0.92227639  0.41240611  0.57339700  1  0.039984  0  0.116941  0.071216  0  0.957093  0
H  H23  1  0.07527847  0.41463815  0.57450425  1  0.068344  0  0.116322  0.072078  0  0.96112  0
H  H24  1  0.92184767  0.56346883  0.58037106  1  0.056187  0  0.105246  0.105834  0  0.965818  0
H  H25  1  0.08139142  0.56819839  0.57828607  1  0.047055  0  0.106451  0.108904  0  0.965244  0
H  H26  1  0.55207826  0.30089352  0.94787255  1  0.100102  0  0.120208  0.126138  0  0.976057  0
H  H27  1  0.54909104  0.30249023  0.05451810  1  0.125522  0  0.120092  0.126675  0  0.974152  0
H  H28  1  0.38231915  0.42731796  0.78773685  1  0.090315  0  0.106812  0.124117  0  0.991181  0
H  H29  1  0.61982373  0.57201288  0.67541907  1  0.098643  0  0.111689  0.116371  0  0.981147  0
H  H30  1  0.62485000  0.57873234  0.78060775  1  0.099356  0  0.111105  0.119247  0  0.979868  0
H  H31  1  0.39985879  0.85949699  0.59436096  1  0.442739  0  0.296147  0.244261  0  0.959797  0
H  H32  1  0.28850758  0.92173931  0.64449984  1  0.052429  0  0.10172  0.107336  0  0.981877  0
H  H33  1  0.30758012  0.02038483  0.61356539  1  0.035319  0  0.089177  0.08761  0  1.006632  0
H  H34  1  0.38119865  0.98410365  0.66820207  1  0.023893  0  0.082544  0.074092  0  1.029635  0
H  H35  1  0.61971591  0.92849145  0.58608668  1  0.380954  0  0.281761  0.224539  0  0.992529  0
H  H36  1  0.62107653  0.90991081  0.68169935  1  0.046173  0  0.099025  0.105857  0  0.982763  0
H  H37  1  0.50057722  0.90322543  0.68404419  1  0.036524  0  0.096904  0.103116  0  0.996078  0
H  H38  1  0.55369624  0.00216407  0.67301083  1  -0.001988  0  0.078441  0.06678  0  1.021267  0
H  H39  1  0.91526784  0.32770151  0.46418145  1  0.373756  0  0.295609  0.232986  0  0.977127  0
H  H40  1  0.81524701  0.23686124  0.51240249  1  0.035469  0  0.10197  0.110973  0  0.9788  0
H  H41  1  0.75955043  0.33496671  0.52023633  1  0.048436  0  0.086183  0.095393  0  1.029597  0
H  H42  1  0.83079191  0.29450126  0.57505582  1  -0.004799  0  0.099055  0.103456  0  0.985561  0
H  H43  1  0.10054433  0.33434315  0.46556650  1  0.383752  0  0.292869  0.228275  0  0.979944  0
H  H44  1  0.18988169  0.23931503  0.51854812  1  0.056608  0  0.103187  0.116108  0  0.974802  0
H  H45  1  0.15727596  0.29003313  0.58138984  1  0.027429  0  0.0929  0.102227  0  0.990199  0
H  H46  1  0.23815077  0.33799394  0.53516860  1  0.065817  0  0.081443  0.09131  0  1.042208  0
C  C47  1  0.49764970  0.66288771  0.49943651  1  1.650911  0  0.21585  0.681213  0  4.228136  0
C  C48  1  0.47597959  0.65872424  0.02744381  1  -0.238345  0  -0.028123  0.061057  0  3.855511  0
C  C49  1  0.47479925  0.65597772  0.96800730  1  0.060188  0  -0.071543  -0.106035  0  3.932273  0
C  C50  1  0.49024836  0.58213377  0.93955341  1  0.058074  0  -0.002403  -0.044524  0  3.984601  0
C  C51  1  0.50701657  0.50739979  0.96983387  1  0.041673  0  0.003488  0.030074  0  4.006132  0
C  C52  1  0.52367658  0.43165878  0.94111865  1  -0.05625  0  -0.00444  -0.06076  0  3.99188  0
C  C53  1  0.53928273  0.35829697  0.97111664  1  -0.020457  0  -0.062743  -0.071119  0  3.941176  0
C  C54  1  0.53792805  0.35929075  0.03002281  1  -0.011688  0  -0.061103  -0.064754  0  3.930127  0
C  C55  1  0.48789666  0.58259728  0.87702323  1  1.306603  0  0.246648  0.443659  0  4.085868  0
C  C56  1  0.52503367  0.42943318  0.87871487  1  1.344665  0  0.245238  0.439473  0  4.092955  0
C  C57  1  0.43330081  0.46040215  0.76298518  1  0.046471  0  -0.091342  -0.19103  0  3.966829  0
C  C58  1  0.49884474  0.50112707  0.60891992  1  1.617282  0  0.210791  0.600164  0  4.18179  0
C  C59  1  0.42998182  0.45885213  0.70426995  1  -0.267315  0  -0.036985  0.064003  0  3.870044  0
C  C60  1  0.49713647  0.49941764  0.67222949  1  0.019215  0  -0.011658  -0.044823  0  3.918931  0
C  C61  1  0.56741873  0.54151852  0.70066131  1  0.038505  0  -0.075146  -0.067485  0  3.963097  0
C  C62  1  0.57069270  0.54479655  0.75906935  1  -0.010625  0  -0.084843  -0.155556  0  3.988156  0
C  C63  1  0.50325383  0.50384723  0.78986802  1  0.296483  0  0.088486  0.20509  0  4.017713  0
C  C64  1  0.42125592  0.49693992  0.23745411  1  -0.15019  0  -0.040043  0.005713  0  3.875498  0
C  C65  1  0.42032722  0.49458800  0.29605617  1  -0.016058  0  -0.083097  -0.113006  0  3.942673  0
C  C66  1  0.50233119  0.50202774  0.32615221  1  0.072344  0  -0.00733  -0.006944  0  3.932616  0
C  C67  1  0.58500886  0.51185684  0.29731570  1  -0.061235  0  -0.077184  -0.076824  0  3.965639  0
C  C68  1  0.58565774  0.51379391  0.23882201  1  0.027654  0  -0.079844  -0.135383  0  3.971955  0
C  C69  1  0.49971766  0.33924146  0.50255419  1  1.601178  0  0.216881  0.676508  0  4.23494  0
C  C70  1  0.50409344  0.50637715  0.20865707  1  0.334736  0  0.085084  0.163688  0  4.016209  0
C  C71  1  0.42105796  0.95326361  0.46819599  1  -0.044986  0  -0.158318  -0.183286  0  3.870633  0
C  C72  1  0.59053186  0.95227632  0.48222238  1  -0.113962  0  -0.154663  -0.183009  0  3.869193  0
C  C73  1  0.59069773  0.04870642  0.48169530  1  0.030955  0  -0.156288  -0.192144  0  3.867038  0
C  C74  1  0.41901429  0.04961498  0.46924859  1  0.004827  0  -0.153747  -0.181791  0  3.850418  0
C  C75  1  0.49954697  0.24904116  0.50465492  1  0.113484  0  -0.064132  -0.218595  0  4.001364  0
C  C76  1  0.49894664  0.91923938  0.50629774  1  0.133923  0  0.006849  0.088362  0  3.843098  0
C  C77  1  0.49928507  0.08244602  0.50545256  1  0.166001  0  0.00014  0.184279  0  3.904024  0
C  C78  1  0.48673717  0.04943606  0.56621339  1  -0.004526  0  -0.152609  -0.288495  0  3.77668  0
C  C79  1  0.48392883  0.95204745  0.56854281  1  0.659964  0  0.176473  0.319654  0  3.762369  0
C  C80  1  0.49939094  0.17312878  0.50549998  1  -0.411049  0  -0.030733  -0.048828  0  4.042844  0
C  C81  1  0.49852869  0.82860630  0.50541140  1  -0.463083  0  -0.02639  -0.027317  0  4.074977  0
C  C82  1  0.50104309  0.49978636  0.38948837  1  1.546996  0  0.216677  0.594942  0  4.172723  0
C  C83  1  0.49722790  0.75293371  0.50193070  1  0.164093  0  -0.065126  -0.224266  0  3.993407  0
C  C84  1  0.94700496  0.56978299  0.53704784  1  0.035186  0  -0.144572  -0.183408  0  3.864212  0
C  C85  1  0.05257690  0.57081620  0.53558857  1  -0.060994  0  -0.144403  -0.185074  0  3.861756  0
C  C86  1  0.94622778  0.50252904  0.44060391  1  0.00514  0  -0.146334  -0.17966  0  3.860506  0
C  C87  1  0.05174087  0.50025307  0.44037962  1  -0.076461  0  -0.145462  -0.180951  0  3.85785  0
C  C88  1  0.91143100  0.49546053  0.50185287  1  0.125182  0  0.005839  0.043402  0  3.902861  0
C  C89  1  0.08746554  0.49482141  0.50168566  1  0.188622  0  0.008476  0.047593  0  3.90727  0
C  C90  1  0.05474823  0.41098273  0.53000876  1  0.316336  0  0.02551  0.052256  0  3.783777  0
C  C91  1  0.94464985  0.41021928  0.52921472  1  0.485976  0  0.026113  0.053132  0  3.798459  0
C  C92  1  0.18641649  0.49676039  0.50060927  1  0.803148  0  0.245184  0.30428  0  3.881201  0
C  C93  1  0.81258128  0.49812136  0.50141730  1  0.85571  0  0.245079  0.305494  0  3.881755  0
C  C94  1  0.52095273  0.43028102  0.12132670  1  1.358431  0  0.238787  0.436808  0  4.125323  0
C  C95  1  0.49377810  0.58551999  0.12155521  1  1.348946  0  0.236439  0.442812  0  4.088486  0
C  C96  1  0.49178009  0.58600445  0.05902766  1  0.051863  0  -0.010683  -0.096396  0  3.936635  0
C  C97  1  0.50687008  0.50930361  0.02984542  1  -0.144977  0  0.007946  0.044147  0  3.968901  0
C  C98  1  0.52216013  0.43317031  0.05915754  1  0.049557  0  -0.004102  -0.060173  0  3.97667  0
C  C99  1  0.34240960  0.96461600  0.63050848  1  0.254996  0  -0.147316  -0.206128  0  4.043099  0
C  C100  1  0.55777388  0.93459386  0.66294550  1  0.259307  0  -0.150081  -0.204797  0  4.040383  0
C  C101  1  0.82332213  0.30032711  0.52911324  1  0.341478  0  -0.144398  -0.215573  0  4.013409  0
C  C102  1  0.17487256  0.30067087  0.53694458  1  0.251495  0  -0.148299  -0.221064  0  4.00378  0
I  I103  1  0.45210295  0.77801975  0.06072145  1  0.196776  0  0.100413  0.016664  0  1.376647  0
I  I104  1  0.32430899  0.38760476  0.66752112  1  0.098561  0  0.045148  -0.061585  0  1.410228  0
I  I105  1  0.29723674  0.48623396  0.19291334  1  0.08783  0  0.04076  -0.0576  0  1.306854  0
N  N106  1  0.50684140  0.50735770  0.14809786  1  -1.221541  0  -0.239005  -0.231695  0  3.638007  0
N  N107  1  0.50544337  0.50542504  0.85058743  1  -1.182585  0  -0.228219  -0.222868  0  3.575235  0
N  N108  1  0.26546578  0.50037581  0.49895403  1  -1.158824  0  -0.288532  -0.302295  0  3.136444  0
N  N109  1  0.73344115  0.50198053  0.50089146  1  -1.146145  0  -0.289486  -0.305329  0  3.135819  0
N  N110  1  0.39494487  0.92207988  0.58709012  1  -1.125027  0  -0.481542  -0.385907  0  3.435514  0
N  N111  1  0.55761606  0.91482689  0.60315180  1  -1.058033  0  -0.494125  -0.415354  0  3.435065  0
N  N112  1  0.90692017  0.33595101  0.50611211  1  -1.134789  0  -0.49404  -0.351282  0  3.60728  0
N  N113  1  0.09551084  0.33641261  0.50813552  1  -1.097719  0  -0.493247  -0.348776  0  3.56194  0
O  O114  1  0.42175746  0.62745246  0.48820568  1  -1.139188  0  -0.321448  -0.55196  0  2.250931  0
O  O115  1  0.57413602  0.62679675  0.50883208  1  -1.141417  0  -0.320867  -0.553496  0  2.256884  0
O  O116  1  0.42397007  0.51703110  0.58391430  1  -1.164879  0  -0.316466  -0.55007  0  2.352975  0
O  O117  1  0.57625226  0.48804130  0.58628596  1  -1.153569  0  -0.316895  -0.54769  0  2.288201  0
O  O118  1  0.42298202  0.37560346  0.50996894  1  -1.145776  0  -0.31427  -0.555007  0  2.290257  0
O  O119  1  0.57652951  0.37419288  0.49330893  1  -1.144003  0  -0.314441  -0.550128  0  2.264409  0
O  O120  1  0.42439669  0.48584810  0.41292119  1  -1.162049  0  -0.318532  -0.549447  0  2.302465  0
O  O121  1  0.57699990  0.51222840  0.41431267  1  -1.160905  0  -0.317015  -0.55257  0  2.310205  0
O  O122  1  0.53154235  0.36574445  0.14870166  1  -1.100382  0  -0.277691  -0.432413  0  2.064143  0
O  O123  1  0.48478003  0.64831474  0.15057317  1  -1.091545  0  -0.267344  -0.414767  0  2.170844  0
O  O124  1  0.47146433  0.64583752  0.84941660  1  -1.100576  0  -0.27276  -0.424007  0  2.059789  0
O  O125  1  0.54199154  0.36558574  0.85217958  1  -1.084312  0  -0.272014  -0.424616  0  2.063209  0
