# generated using pymatgen
data_ZnPH5CNO3
_symmetry_space_group_name_H-M   'P 1'
_cell_length_a   7.87223641
_cell_length_b   8.26724179
_cell_length_c   15.77771061
_cell_angle_alpha   106.10327563
_cell_angle_beta   89.99970878
_cell_angle_gamma   90.00019107
_symmetry_Int_Tables_number   1
_chemical_formula_structural   ZnPH5CNO3
_chemical_formula_sum   'Zn8 P8 H40 C8 N8 O24'
_cell_volume   986.55012978
_cell_formula_units_Z   8
loop_
 _symmetry_equiv_pos_site_id
 _symmetry_equiv_pos_as_xyz
  1  'x, y, z'
loop_
 _atom_site_type_symbol
 _atom_site_label
 _atom_site_symmetry_multiplicity
 _atom_site_fract_x
 _atom_site_fract_y
 _atom_site_fract_z
 _atom_site_occupancy
 _atom_site_hle17_bader_spin_density
 _atom_site_hle17_ddec_charge
 _atom_site_hle17_ddec_spin_density
 _atom_site_hle17_ddec_sum_bond_order
 _atom_site_hle17_magmom
 _atom_site_hse06_10hf_bader_spin_density
 _atom_site_hse06_10hf_ddec_charge
 _atom_site_hse06_10hf_ddec_spin_density
 _atom_site_hse06_10hf_ddec_sum_bond_order
 _atom_site_hse06_10hf_magmom
 _atom_site_hse06_bader_spin_density
 _atom_site_hse06_ddec_charge
 _atom_site_hse06_ddec_spin_density
 _atom_site_hse06_ddec_sum_bond_order
 _atom_site_hse06_magmom
 _atom_site_pbe_bader_spin_density
 _atom_site_pbe_cm5_charge
 _atom_site_pbe_ddec_charge
 _atom_site_pbe_ddec_spin_density
 _atom_site_pbe_ddec_sum_bond_order
 _atom_site_pbe_magmom
Zn  Zn0  1  0.61043962  0.89118177  0.16842286  1  0  1.153767  0  1.776203  0  0  0.979326  0  2.248935  0  0  1.021696  0  2.190859  0  0  0.705889  0.949541  0  2.28895  0
Zn  Zn1  1  0.11043728  0.10881890  0.33157714  1  0  1.153731  0  1.776086  0  0  0.979295  0  2.248812  0  0  1.021672  0  2.190729  0  0  0.705884  0.949513  0  2.288825  0
Zn  Zn2  1  0.38956131  0.10881439  0.83158162  1  0  1.153673  0  1.776098  0  0  0.979258  0  2.248822  0  0  1.021631  0  2.190744  0  0  0.705847  0.949478  0  2.288839  0
Zn  Zn3  1  0.88956365  0.89118465  0.66842140  1  0  1.153654  0  1.776078  0  0  0.979207  0  2.248796  0  0  1.02158  0  2.190718  0  0  0.705825  0.949425  0  2.288814  0
Zn  Zn4  1  0.81108057  0.39535777  0.18319181  1  0  1.158339  0  1.792382  0  0  0.984238  0  2.26889  0  0  1.026608  0  2.210182  0  0  0.711015  0.954533  0  2.30934  0
Zn  Zn5  1  0.31107748  0.60463951  0.31680530  1  0  1.158323  0  1.792394  0  0  0.984236  0  2.268928  0  0  1.026595  0  2.210212  0  0  0.711003  0.95452  0  2.309382  0
Zn  Zn6  1  0.18891909  0.60464200  0.81680620  1  0  1.158348  0  1.792316  0  0  0.984268  0  2.268828  0  0  1.026627  0  2.21012  0  0  0.711022  0.954563  0  2.309282  0
Zn  Zn7  1  0.68892218  0.39536031  0.68319462  1  0  1.158274  0  1.792463  0  0  0.98418  0  2.268988  0  0  1.026538  0  2.210277  0  0  0.710993  0.954464  0  2.30944  0
P  P8  1  0.97414821  0.01755709  0.13331628  1  0  1.417021  0  4.986773  0  0  1.229503  0  5.488805  0  0  1.280419  0  5.451673  0  0  0.27411  1.194027  0  5.513895  0
P  P9  1  0.47413571  0.98244562  0.36668307  1  0  1.417133  0  4.986612  0  0  1.229514  0  5.488732  0  0  1.280433  0  5.45159  0  0  0.274138  1.194035  0  5.513813  0
P  P10  1  0.02585272  0.98244023  0.86668392  1  0  1.417103  0  4.986734  0  0  1.229575  0  5.488763  0  0  1.280491  0  5.451627  0  0  0.274137  1.194104  0  5.51385  0
P  P11  1  0.52586268  0.01755551  0.63331957  1  0  1.417019  0  4.986757  0  0  1.229408  0  5.488875  0  0  1.280333  0  5.451737  0  0  0.274084  1.193926  0  5.513958  0
P  P12  1  0.45099532  0.51581079  0.12647155  1  0  1.413138  0  4.971159  0  0  1.223529  0  5.475635  0  0  1.274058  0  5.43895  0  0  0.2752  1.188363  0  5.500408  0
P  P13  1  0.95098791  0.48417305  0.37352839  1  0  1.413169  0  4.970689  0  0  1.223672  0  5.475096  0  0  1.274155  0  5.438416  0  0  0.275282  1.188517  0  5.499863  0
P  P14  1  0.54900434  0.48418777  0.87352819  1  0  1.413121  0  4.971165  0  0  1.223504  0  5.475638  0  0  1.27403  0  5.438955  0  0  0.275233  1.188345  0  5.500403  0
P  P15  1  0.04901175  0.51582924  0.62646997  1  0  1.413143  0  4.970906  0  0  1.223644  0  5.475301  0  0  1.274131  0  5.438621  0  0  0.275291  1.188496  0  5.500064  0
H  H16  1  0.06123167  0.94281261  0.05407166  1  0  -0.153645  0  0.929896  0  0  -0.120159  0  1.019234  0  0  -0.12521  0  1.01626  0  0  0.087918  -0.116818  0  1.021463  0
H  H17  1  0.56122085  0.05718044  0.44592930  1  0  -0.153671  0  0.929932  0  0  -0.120156  0  1.01924  0  0  -0.125199  0  1.016255  0  0  0.087917  -0.116816  0  1.021468  0
H  H18  1  0.93876545  0.05718593  0.94592744  1  0  -0.153646  0  0.929902  0  0  -0.120155  0  1.019233  0  0  -0.12521  0  1.016267  0  0  0.087924  -0.116814  0  1.02146  0
H  H19  1  0.43877627  0.94282073  0.55407524  1  0  -0.153689  0  0.92994  0  0  -0.120162  0  1.019241  0  0  -0.125205  0  1.016254  0  0  0.087925  -0.116822  0  1.02147  0
H  H20  1  0.37709280  0.42161491  0.04685517  1  0  -0.140291  0  0.925454  0  0  -0.10317  0  1.004737  0  0  -0.108092  0  1.002307  0  0  0.09035  -0.099934  0  1.006597  0
H  H21  1  0.87708745  0.57838372  0.45314005  1  0  -0.14025  0  0.925415  0  0  -0.103221  0  1.004773  0  0  -0.108149  0  1.002359  0  0  0.090372  -0.099985  0  1.006629  0
H  H22  1  0.62290813  0.57838239  0.95314439  1  0  -0.140293  0  0.925493  0  0  -0.103166  0  1.004771  0  0  -0.108088  0  1.002342  0  0  0.090342  -0.099931  0  1.00663  0
H  H23  1  0.12291348  0.42161857  0.54685831  1  0  -0.140252  0  0.925434  0  0  -0.103218  0  1.004798  0  0  -0.10814  0  1.002368  0  0  0.090366  -0.099986  0  1.006663  0
H  H24  1  0.34436142  0.05271945  0.15660996  1  0  0.310946  0  0.924501  0  0  0.299447  0  0.979196  0  0  0.306046  0  0.974879  0  0  0.288467  0.294743  0  0.982297  0
H  H25  1  0.84435712  0.94727927  0.34339233  1  0  0.310926  0  0.924514  0  0  0.299418  0  0.979236  0  0  0.306018  0  0.974917  0  0  0.288419  0.294711  0  0.982338  0
H  H26  1  0.65563951  0.94727791  0.84339215  1  0  0.310964  0  0.92448  0  0  0.299493  0  0.97915  0  0  0.306093  0  0.97483  0  0  0.288454  0.294787  0  0.98226  0
H  H27  1  0.15564381  0.05272431  0.65660747  1  0  0.310924  0  0.924536  0  0  0.299435  0  0.979225  0  0  0.306035  0  0.974905  0  0  0.288427  0.294729  0  0.982331  0
H  H28  1  0.50595618  0.16737630  0.14101199  1  0  0.314099  0  0.928076  0  0  0.30254  0  0.980643  0  0  0.309311  0  0.976373  0  0  0.28924  0.297746  0  0.983672  0
H  H29  1  0.00594961  0.83262669  0.35898986  1  0  0.314087  0  0.928118  0  0  0.302541  0  0.980679  0  0  0.309305  0  0.976418  0  0  0.289253  0.297747  0  0.983708  0
H  H30  1  0.49404602  0.83262108  0.85899139  1  0  0.314064  0  0.928126  0  0  0.3025  0  0.980706  0  0  0.30927  0  0.976437  0  0  0.28922  0.297706  0  0.983734  0
H  H31  1  0.99405132  0.16737689  0.64100995  1  0  0.314102  0  0.928181  0  0  0.302535  0  0.980768  0  0  0.309298  0  0.97651  0  0  0.289241  0.297742  0  0.983795  0
H  H32  1  0.36471860  0.87130755  0.00816821  1  0  0.071294  0  0.92604  0  0  0.089025  0  0.986624  0  0  0.089236  0  0.98747  0  0  0.106951  0.088747  0  0.986216  0
H  H33  1  0.86471899  0.12869374  0.49183439  1  0  0.071408  0  0.92607  0  0  0.08912  0  0.986644  0  0  0.089332  0  0.987492  0  0  0.107003  0.088841  0  0.986235  0
H  H34  1  0.63528868  0.12868733  0.99183546  1  0  0.071326  0  0.926038  0  0  0.089059  0  0.986614  0  0  0.08927  0  0.987461  0  0  0.106959  0.088781  0  0.986205  0
H  H35  1  0.13527813  0.87130983  0.50816478  1  0  0.071353  0  0.926019  0  0  0.089083  0  0.986587  0  0  0.089296  0  0.987429  0  0  0.10696  0.088806  0  0.98618  0
H  H36  1  0.32470577  0.08441895  0.01344796  1  0  0.050744  0  0.926838  0  0  0.069689  0  0.990442  0  0  0.069671  0  0.990438  0  0  0.101293  0.069559  0  0.990666  0
H  H37  1  0.82469866  0.91558100  0.48655519  1  0  0.050847  0  0.926818  0  0  0.069793  0  0.990379  0  0  0.069777  0  0.990374  0  0  0.101354  0.069665  0  0.9906  0
H  H38  1  0.67530151  0.91557337  0.98655345  1  0  0.050801  0  0.926861  0  0  0.069855  0  0.99031  0  0  0.069839  0  0.990303  0  0  0.101376  0.069725  0  0.990534  0
H  H39  1  0.17530227  0.08442130  0.51344380  1  0  0.050857  0  0.926833  0  0  0.069828  0  0.990385  0  0  0.069812  0  0.990377  0  0  0.101351  0.0697  0  0.990608  0
H  H40  1  0.90740203  0.65243760  0.13315852  1  0  0.31584  0  0.929719  0  0  0.304496  0  0.982429  0  0  0.31125  0  0.978103  0  0  0.28849  0.299683  0  0.985528  0
H  H41  1  0.40739759  0.34756627  0.36684307  1  0  0.315825  0  0.929705  0  0  0.30448  0  0.98241  0  0  0.311231  0  0.97809  0  0  0.288489  0.29967  0  0.985505  0
H  H42  1  0.09259636  0.34756474  0.86684175  1  0  0.315775  0  0.929815  0  0  0.304463  0  0.982484  0  0  0.311217  0  0.978161  0  0  0.288505  0.299676  0  0.985546  0
H  H43  1  0.59260207  0.65243480  0.63315639  1  0  0.315828  0  0.929676  0  0  0.304482  0  0.982387  0  0  0.311234  0  0.978067  0  0  0.288498  0.299671  0  0.985483  0
H  H44  1  0.07537900  0.54374355  0.14719954  1  0  0.312591  0  0.928263  0  0  0.300901  0  0.982535  0  0  0.307421  0  0.978476  0  0  0.287148  0.296288  0  0.985361  0
H  H45  1  0.57537298  0.45625821  0.35279690  1  0  0.312578  0  0.928381  0  0  0.300912  0  0.982603  0  0  0.30743  0  0.978544  0  0  0.287172  0.296297  0  0.985439  0
H  H46  1  0.92462066  0.45625622  0.85279848  1  0  0.312586  0  0.928368  0  0  0.300906  0  0.98264  0  0  0.307425  0  0.978583  0  0  0.287179  0.296293  0  0.985468  0
H  H47  1  0.42462796  0.54374160  0.64720301  1  0  0.31256  0  0.92839  0  0  0.30089  0  0.982621  0  0  0.307409  0  0.978564  0  0  0.28717  0.296277  0  0.985453  0
H  H48  1  0.82562248  0.41839663  0.00284040  1  0  0.059123  0  0.926602  0  0  0.078226  0  0.988076  0  0  0.078325  0  0.988285  0  0  0.10463  0.07798  0  0.988212  0
H  H49  1  0.32563276  0.58162088  0.49716203  1  0  0.059183  0  0.926629  0  0  0.078258  0  0.988077  0  0  0.078358  0  0.988284  0  0  0.104645  0.078012  0  0.988213  0
H  H50  1  0.17437337  0.58161444  0.99715792  1  0  0.059128  0  0.926655  0  0  0.078203  0  0.988121  0  0  0.078302  0  0.988329  0  0  0.104579  0.077955  0  0.988257  0
H  H51  1  0.67436563  0.41837641  0.50283690  1  0  0.059187  0  0.92657  0  0  0.078268  0  0.988014  0  0  0.078367  0  0.988223  0  0  0.104648  0.078021  0  0.988149  0
H  H52  1  0.02261665  0.32567795  0.01570594  1  0  0.063485  0  0.939946  0  0  0.079769  0  1.003725  0  0  0.080041  0  1.004131  0  0  0.103991  0.079468  0  1.003538  0
H  H53  1  0.52263798  0.67432621  0.48429034  1  0  0.063489  0  0.939861  0  0  0.079753  0  1.00362  0  0  0.080025  0  1.004027  0  0  0.104026  0.079458  0  1.003436  0
H  H54  1  0.97737666  0.67432803  0.98428914  1  0  0.063491  0  0.939944  0  0  0.079765  0  1.003696  0  0  0.080036  0  1.004103  0  0  0.104028  0.079468  0  1.003511  0
H  H55  1  0.47736168  0.32567487  0.51570976  1  0  0.06352  0  0.939854  0  0  0.079789  0  1.003607  0  0  0.08006  0  1.004015  0  0  0.104058  0.079494  0  1.003421  0
C  C56  1  0.42062405  0.99788254  0.02724366  1  0  0.061084  0  3.620506  0  0  0.002332  0  3.889223  0  0  0.006087  0  3.902654  0  0  -0.072832  -0.000145  0  3.879989  0
C  C57  1  0.92062040  0.00212012  0.47275899  1  0  0.060822  0  3.620755  0  0  0.002124  0  3.889442  0  0  0.005879  0  3.90287  0  0  -0.072926  -0.000352  0  3.880206  0
C  C58  1  0.57938196  0.00211233  0.97275937  1  0  0.060914  0  3.620566  0  0  0.002108  0  3.889308  0  0  0.005863  0  3.90274  0  0  -0.072885  -0.000363  0  3.880062  0
C  C59  1  0.07937926  0.99788470  0.52724036  1  0  0.060907  0  3.620618  0  0  0.002125  0  3.889349  0  0  0.005881  0  3.902778  0  0  -0.072875  -0.000341  0  3.880097  0
C  C60  1  0.95691293  0.44666504  0.02612906  1  0  0.055088  0  3.631108  0  0  -0.002611  0  3.897619  0  0  0.001103  0  3.911074  0  0  -0.076215  -0.005046  0  3.888384  0
C  C61  1  0.45691699  0.55334011  0.47386877  1  0  0.054903  0  3.631232  0  0  -0.00267  0  3.897562  0  0  0.001044  0  3.911011  0  0  -0.076248  -0.005115  0  3.888342  0
C  C62  1  0.04308419  0.55334100  0.97386856  1  0  0.054852  0  3.631254  0  0  -0.002689  0  3.897643  0  0  0.001024  0  3.911099  0  0  -0.076248  -0.005132  0  3.888426  0
C  C63  1  0.54308267  0.44665844  0.52613033  1  0  0.054911  0  3.631125  0  0  -0.002684  0  3.897491  0  0  0.001032  0  3.910945  0  0  -0.076279  -0.00513  0  3.888271  0
N  N64  1  0.45874585  0.04556797  0.12323266  1  0  -0.665295  0  3.096599  0  0  -0.597516  0  3.360845  0  0  -0.618912  0  3.355252  0  0  -0.625804  -0.582573  0  3.364421  0
N  N65  1  0.95874250  0.95442848  0.37676903  1  0  -0.665228  0  3.096664  0  0  -0.597458  0  3.360857  0  0  -0.618856  0  3.35527  0  0  -0.625753  -0.582518  0  3.364435  0
N  N66  1  0.54125763  0.95442814  0.87676991  1  0  -0.665175  0  3.096519  0  0  -0.597431  0  3.360715  0  0  -0.618826  0  3.35512  0  0  -0.625732  -0.582493  0  3.364296  0
N  N67  1  0.04125589  0.04557510  0.62323078  1  0  -0.665213  0  3.096627  0  0  -0.597425  0  3.360843  0  0  -0.618827  0  3.355257  0  0  -0.625716  -0.58249  0  3.364429  0
N  N68  1  0.95285783  0.53076477  0.12221880  1  0  -0.668188  0  3.11104  0  0  -0.601809  0  3.374211  0  0  -0.623194  0  3.368663  0  0  -0.631146  -0.586861  0  3.377808  0
N  N69  1  0.45285623  0.46923664  0.37778106  1  0  -0.668151  0  3.111325  0  0  -0.60184  0  3.374448  0  0  -0.623219  0  3.368894  0  0  -0.631215  -0.586895  0  3.378043  0
N  N70  1  0.04713929  0.46923626  0.87777939  1  0  -0.66803  0  3.111233  0  0  -0.601751  0  3.374398  0  0  -0.623135  0  3.368852  0  0  -0.631176  -0.586822  0  3.377959  0
N  N71  1  0.54714343  0.53076316  0.62221823  1  0  -0.668125  0  3.111216  0  0  -0.601804  0  3.374338  0  0  -0.623195  0  3.3688  0  0  -0.63123  -0.586859  0  3.37793  0
O  O72  1  0.55052392  0.65794181  0.10451436  1  0  -0.849345  0  2.060509  0  0  -0.752414  0  2.371057  0  0  -0.780615  0  2.345902  0  0  -0.387193  -0.73243  0  2.387747  0
O  O73  1  0.05051791  0.34205865  0.39548196  1  0  -0.8493  0  2.060761  0  0  -0.752354  0  2.371262  0  0  -0.780557  0  2.346123  0  0  -0.387172  -0.73237  0  2.387945  0
O  O74  1  0.44947320  0.34205552  0.89548648  1  0  -0.849306  0  2.060454  0  0  -0.752382  0  2.371009  0  0  -0.780582  0  2.345856  0  0  -0.387198  -0.732397  0  2.387697  0
O  O75  1  0.94948556  0.65794114  0.60451669  1  0  -0.849278  0  2.060882  0  0  -0.752342  0  2.371394  0  0  -0.780546  0  2.346256  0  0  -0.387159  -0.732355  0  2.388075  0
O  O76  1  0.85871094  0.87891623  0.15039312  1  0  -0.850547  0  2.072747  0  0  -0.744935  0  2.360353  0  0  -0.773438  0  2.336351  0  0  -0.382658  -0.724923  0  2.376416  0
O  O77  1  0.35871609  0.12108247  0.34960660  1  0  -0.850599  0  2.072858  0  0  -0.744984  0  2.36049  0  0  -0.773479  0  2.336478  0  0  -0.382688  -0.724974  0  2.376557  0
O  O78  1  0.14128872  0.12108233  0.84960662  1  0  -0.85056  0  2.07273  0  0  -0.744946  0  2.360317  0  0  -0.773448  0  2.336312  0  0  -0.382664  -0.72494  0  2.376384  0
O  O79  1  0.64128611  0.87891614  0.65039505  1  0  -0.850585  0  2.072842  0  0  -0.744956  0  2.36046  0  0  -0.77345  0  2.336446  0  0  -0.382662  -0.724945  0  2.37653  0
O  O80  1  0.11566382  0.07190659  0.20288037  1  0  -0.852915  0  2.0633  0  0  -0.749784  0  2.354917  0  0  -0.77692  0  2.327578  0  0  -0.383994  -0.730648  0  2.373232  0
O  O81  1  0.61566246  0.92809158  0.29711926  1  0  -0.853028  0  2.063102  0  0  -0.749862  0  2.354732  0  0  -0.776994  0  2.327388  0  0  -0.384051  -0.730724  0  2.373043  0
O  O82  1  0.88433457  0.92809322  0.79711891  1  0  -0.852983  0  2.063283  0  0  -0.74984  0  2.354896  0  0  -0.776976  0  2.327555  0  0  -0.38401  -0.730698  0  2.373205  0
O  O83  1  0.38434228  0.07191081  0.70288355  1  0  -0.852881  0  2.06318  0  0  -0.749775  0  2.354841  0  0  -0.776918  0  2.327503  0  0  -0.384037  -0.730638  0  2.373159  0
O  O84  1  0.56489397  0.39299742  0.15866932  1  0  -0.856828  0  2.077637  0  0  -0.748981  0  2.367372  0  0  -0.777541  0  2.342975  0  0  -0.381977  -0.728996  0  2.383705  0
O  O85  1  0.06489065  0.60700300  0.34132379  1  0  -0.856796  0  2.076966  0  0  -0.749066  0  2.366742  0  0  -0.777549  0  2.34231  0  0  -0.382027  -0.72908  0  2.383076  0
O  O86  1  0.43510696  0.60700116  0.84133106  1  0  -0.856817  0  2.077641  0  0  -0.748969  0  2.367368  0  0  -0.77753  0  2.342979  0  0  -0.381956  -0.728979  0  2.383695  0
O  O87  1  0.93510774  0.39299929  0.65867457  1  0  -0.85679  0  2.077036  0  0  -0.749056  0  2.36682  0  0  -0.777542  0  2.342383  0  0  -0.38205  -0.729069  0  2.383149  0
O  O88  1  0.87090214  0.16273881  0.11737640  1  0  -0.865966  0  2.094635  0  0  -0.770765  0  2.412037  0  0  -0.799206  0  2.387162  0  0  -0.38794  -0.750585  0  2.428385  0
O  O89  1  0.37088773  0.83725857  0.38261930  1  0  -0.865992  0  2.09468  0  0  -0.770641  0  2.41189  0  0  -0.799134  0  2.38711  0  0  -0.387907  -0.750449  0  2.428232  0
O  O90  1  0.12909498  0.83725846  0.88262189  1  0  -0.866008  0  2.094682  0  0  -0.770789  0  2.412058  0  0  -0.79923  0  2.387187  0  0  -0.387951  -0.750607  0  2.428408  0
O  O91  1  0.62911320  0.16274251  0.61738079  1  0  -0.866003  0  2.094674  0  0  -0.770647  0  2.411879  0  0  -0.799118  0  2.387048  0  0  -0.387935  -0.750451  0  2.428221  0
O  O92  1  0.30069220  0.57804009  0.19021254  1  0  -0.853398  0  2.068551  0  0  -0.750851  0  2.362088  0  0  -0.778121  0  2.335098  0  0  -0.384925  -0.731687  0  2.380167  0
O  O93  1  0.80068903  0.42195593  0.30978505  1  0  -0.853471  0  2.068501  0  0  -0.750869  0  2.361958  0  0  -0.778121  0  2.334961  0  0  -0.384971  -0.731724  0  2.380047  0
O  O94  1  0.69930619  0.42195721  0.80978703  1  0  -0.853381  0  2.068563  0  0  -0.750817  0  2.362084  0  0  -0.778084  0  2.335093  0  0  -0.384932  -0.731666  0  2.380168  0
O  O95  1  0.19931317  0.57804386  0.69021360  1  0  -0.853448  0  2.068504  0  0  -0.750848  0  2.361951  0  0  -0.778096  0  2.334952  0  0  -0.384954  -0.731718  0  2.380046  0
