# generated using pymatgen
data_SmCuH8C14(NO4)2
_symmetry_space_group_name_H-M   'P 1'
_cell_length_a   9.21389740
_cell_length_b   9.57365129
_cell_length_c   21.58500000
_cell_angle_alpha   90.00000000
_cell_angle_beta   90.00000000
_cell_angle_gamma   115.87929475
_symmetry_Int_Tables_number   1
_chemical_formula_structural   SmCuH8C14(NO4)2
_chemical_formula_sum   'Sm4 Cu4 H32 C56 N8 O32'
_cell_volume   1713.08244860
_cell_formula_units_Z   4
loop_
 _symmetry_equiv_pos_site_id
 _symmetry_equiv_pos_as_xyz
  1  'x, y, z'
loop_
 _atom_site_type_symbol
 _atom_site_label
 _atom_site_symmetry_multiplicity
 _atom_site_fract_x
 _atom_site_fract_y
 _atom_site_fract_z
 _atom_site_occupancy
 _atom_site_hle17_bader_spin_density
 _atom_site_hle17_ddec_charge
 _atom_site_hle17_ddec_spin_density
 _atom_site_hle17_ddec_sum_bond_order
 _atom_site_hle17_magmom
 _atom_site_hse06_10hf_bader_spin_density
 _atom_site_hse06_10hf_ddec_charge
 _atom_site_hse06_10hf_ddec_spin_density
 _atom_site_hse06_10hf_ddec_sum_bond_order
 _atom_site_hse06_10hf_magmom
 _atom_site_hse06_bader_spin_density
 _atom_site_hse06_ddec_charge
 _atom_site_hse06_ddec_spin_density
 _atom_site_hse06_ddec_sum_bond_order
 _atom_site_hse06_magmom
 _atom_site_pbe_bader_charge
 _atom_site_pbe_bader_spin_density
 _atom_site_pbe_cm5_charge
 _atom_site_pbe_ddec_charge
 _atom_site_pbe_ddec_spin_density
 _atom_site_pbe_ddec_sum_bond_order
 _atom_site_pbe_magmom
Sm  Sm0  1  0.37777002  0.14426202  0.00911281  1  0  2.276588  0  1.660017  0  0  2.125002  0  2.131375  0  0  2.231597  0  1.971207  0  2.225977  0  1.489441  2.091139  0  2.164859  0
Sm  Sm1  1  0.12223333  0.85573414  0.50911281  1  0  2.276542  0  1.660098  0  0  2.12495  0  2.131448  0  0  2.231544  0  1.9713  0  2.22622  0  1.489436  2.091086  0  2.164936  0
Sm  Sm2  1  0.62222860  0.85573298  0.99088765  1  0  2.276563  0  1.66003  0  0  2.125022  0  2.1313  0  0  2.231568  0  1.97122  0  2.226088  0  1.489497  2.091156  0  2.164788  0
Sm  Sm3  1  0.87777279  0.14426782  0.49088719  1  0  2.276581  0  1.660048  0  0  2.124994  0  2.1314  0  0  2.231585  0  1.97124  0  2.22609  0  1.489464  2.091131  0  2.164889  0
Cu  Cu4  1  0.04409513  0.19317557  0.14542831  1  0  0.500304  0  1.624665  0  0  0.360879  0  2.064726  0  0  0.372277  0  2.017006  0  0.664727  0  0.533412  0.359154  0  2.093886  0
Cu  Cu5  1  0.45590324  0.80682639  0.64542645  1  0  0.500291  0  1.624607  0  0  0.360868  0  2.064653  0  0  0.372281  0  2.016956  0  0.664733  0  0.533371  0.359149  0  2.093791  0
Cu  Cu6  1  0.95588993  0.80681826  0.85457355  1  0  0.500316  0  1.624763  0  0  0.36091  0  2.064846  0  0  0.372304  0  2.017129  0  0.664869  0  0.533446  0.359183  0  2.094012  0
Cu  Cu7  1  0.54410442  0.19318138  0.35457169  1  0  0.500383  0  1.624642  0  0  0.360958  0  2.064713  0  0  0.372368  0  2.017001  0  0.664825  0  0.533409  0.359238  0  2.093885  0
H  H8  1  0.39318179  0.19876792  0.83877739  1  0  0.129  0  0.920935  0  0  0.138127  0  0.979141  0  0  0.142367  0  0.974493  0  0.142198  0  0.125052  0.134813  0  0.982964  0
H  H9  1  0.10681774  0.80122940  0.33877693  1  0  0.129009  0  0.920842  0  0  0.138176  0  0.979021  0  0  0.142416  0  0.974372  0  0.142205  0  0.125074  0.134855  0  0.98284  0
H  H10  1  0.60681736  0.80122824  0.16122215  1  0  0.129006  0  0.920864  0  0  0.13815  0  0.979064  0  0  0.14239  0  0.974414  0  0.14216  0  0.125045  0.134827  0  0.982886  0
H  H11  1  0.89318571  0.19876908  0.66122353  1  0  0.129  0  0.920762  0  0  0.138115  0  0.978983  0  0  0.142355  0  0.974333  0  0.142238  0  0.125024  0.134801  0  0.9828  0
H  H12  1  0.92905197  0.71495848  0.06835858  1  0  0.113698  0  0.942148  0  0  0.122198  0  1.00563  0  0  0.125234  0  1.003074  0  0.144756  0  0.116423  0.119837  0  1.007863  0
H  H13  1  0.57094725  0.28504232  0.56835905  1  0  0.113712  0  0.942136  0  0  0.122188  0  1.005625  0  0  0.12523  0  1.003054  0  0.144786  0  0.11642  0.119829  0  1.007856  0
H  H14  1  0.07094714  0.28504000  0.93164095  1  0  0.113713  0  0.942099  0  0  0.122179  0  1.005595  0  0  0.125215  0  1.003039  0  0.144737  0  0.116424  0.119818  0  1.007825  0
H  H15  1  0.42905670  0.71495964  0.43164234  1  0  0.113706  0  0.942151  0  0  0.12217  0  1.005638  0  0  0.1252  0  1.003096  0  0.144702  0  0.116409  0.119812  0  1.007866  0
H  H16  1  0.71963873  0.49410330  0.12824183  1  0  0.12545  0  0.934323  0  0  0.137298  0  0.986382  0  0  0.141098  0  0.98455  0  0.15173  0  0.118208  0.134584  0  0.987735  0
H  H17  1  0.78036375  0.50589749  0.62824276  1  0  0.125453  0  0.934252  0  0  0.137293  0  0.986319  0  0  0.141096  0  0.984484  0  0.151785  0  0.118213  0.134585  0  0.987672  0
H  H18  1  0.28036190  0.50590330  0.87175678  1  0  0.125512  0  0.934218  0  0  0.137357  0  0.986291  0  0  0.141158  0  0.984459  0  0.151792  0  0.118234  0.134645  0  0.987644  0
H  H19  1  0.21964023  0.49410214  0.37175863  1  0  0.125479  0  0.93423  0  0  0.137324  0  0.986311  0  0  0.141126  0  0.984477  0  0.151847  0  0.118204  0.134617  0  0.987662  0
H  H20  1  0.22360682  0.46730603  0.07126106  1  0  0.099248  0  0.948661  0  0  0.107267  0  1.013413  0  0  0.11046  0  1.0098  0  0.143103  0  0.124619  0.105012  0  1.015737  0
H  H21  1  0.27639156  0.53269593  0.57125874  1  0  0.099209  0  0.948669  0  0  0.107226  0  1.013434  0  0  0.110419  0  1.00982  0  0.143274  0  0.124611  0.104971  0  1.015758  0
H  H22  1  0.77637940  0.53268316  0.92874172  1  0  0.099227  0  0.948729  0  0  0.107304  0  1.013406  0  0  0.110497  0  1.009794  0  0.143208  0  0.12465  0.105043  0  1.015744  0
H  H23  1  0.72361617  0.46730719  0.42874126  1  0  0.099206  0  0.948647  0  0  0.107242  0  1.013395  0  0  0.110436  0  1.009781  0  0.143175  0  0.124613  0.104982  0  1.01573  0
H  H24  1  0.34445812  0.24392461  0.72633820  1  0  0.106574  0  0.934294  0  0  0.120826  0  0.982629  0  0  0.123368  0  0.98407  0  0.082393  0  0.112596  0.119226  0  0.981476  0
H  H25  1  0.15554348  0.75607967  0.22633773  1  0  0.106548  0  0.934309  0  0  0.120817  0  0.982618  0  0  0.123358  0  0.984059  0  0.082383  0  0.112593  0.119217  0  0.981467  0
H  H26  1  0.65554471  0.75607967  0.27366227  1  0  0.106518  0  0.934377  0  0  0.120823  0  0.98265  0  0  0.123365  0  0.98409  0  0.082409  0  0.112585  0.119221  0  0.981501  0
H  H27  1  0.84445879  0.24392577  0.77366273  1  0  0.10656  0  0.934314  0  0  0.120846  0  0.982612  0  0  0.123389  0  0.984052  0  0.082359  0  0.1126  0.119247  0  0.981464  0
H  H28  1  0.78183668  0.27693534  0.16197174  1  0  0.064761  0  0.970878  0  0  0.073887  0  1.038525  0  0  0.076079  0  1.036036  0  0.097074  0  0.111567  0.072151  0  1.040475  0
H  H29  1  0.71816307  0.72306662  0.66197174  1  0  0.064754  0  0.970801  0  0  0.073879  0  1.038457  0  0  0.076071  0  1.035968  0  0.097084  0  0.111549  0.072146  0  1.040405  0
H  H30  1  0.21814990  0.72306662  0.83803011  1  0  0.064833  0  0.970735  0  0  0.07386  0  1.038461  0  0  0.076052  0  1.035971  0  0.097308  0  0.111512  0.072124  0  1.04041  0
H  H31  1  0.28184522  0.27693534  0.33802919  1  0  0.064786  0  0.970772  0  0  0.073861  0  1.038459  0  0  0.076054  0  1.035968  0  0.096957  0  0.111519  0.07213  0  1.040408  0
H  H32  1  0.50471378  0.83071081  0.77573778  1  0  0.091639  0  0.93326  0  0  0.098663  0  0.998871  0  0  0.103216  0  0.993163  0  0.105541  0  0.121858  0.095443  0  1.002722  0
H  H33  1  0.99528758  0.16929231  0.27573871  1  0  0.091708  0  0.933221  0  0  0.098728  0  0.998827  0  0  0.103281  0  0.993117  0  0.105519  0  0.121884  0.09551  0  1.002678  0
H  H34  1  0.49528691  0.16929115  0.22425944  1  0  0.091698  0  0.933317  0  0  0.098729  0  0.998908  0  0  0.103283  0  0.9932  0  0.105525  0  0.121919  0.095511  0  1.002759  0
H  H35  1  0.00470719  0.83070617  0.72426315  1  0  0.091641  0  0.933272  0  0  0.098673  0  0.99887  0  0  0.103225  0  0.993162  0  0.10556  0  0.12186  0.095455  0  1.00272  0
H  H36  1  0.37008153  0.07108789  0.64479407  1  0  0.098735  0  0.942619  0  0  0.104039  0  1.009538  0  0  0.107175  0  1.006613  0  0.129979  0  0.125647  0.101316  0  1.012783  0
H  H37  1  0.12992169  0.92891756  0.14479453  1  0  0.098759  0  0.942649  0  0  0.104058  0  1.009561  0  0  0.1072  0  1.006633  0  0.129977  0  0.125649  0.101333  0  1.01281  0
H  H38  1  0.62992558  0.92892104  0.35520500  1  0  0.098767  0  0.942582  0  0  0.104046  0  1.009504  0  0  0.107191  0  1.00659  0  0.130092  0  0.125653  0.101322  0  1.012751  0
H  H39  1  0.87007091  0.07108092  0.85520686  1  0  0.09874  0  0.942627  0  0  0.104037  0  1.009536  0  0  0.10718  0  1.006618  0  0.130006  0  0.125663  0.101313  0  1.012786  0
C  C40  1  0.45342530  0.01132516  0.81448367  1  0  -0.116382  0  3.744995  0  0  -0.087479  0  3.974542  0  0  -0.100378  0  3.997136  0  -0.052971  0  -0.009958  -0.079012  0  3.958637  0
C  C41  1  0.04657854  0.98867448  0.31448274  1  0  -0.116413  0  3.744931  0  0  -0.087606  0  3.974613  0  0  -0.100503  0  3.997209  0  -0.052906  0  -0.009973  -0.079146  0  3.95871  0
C  C42  1  0.54657542  0.98867448  0.18551401  1  0  -0.116381  0  3.744949  0  0  -0.087443  0  3.97449  0  0  -0.100344  0  3.997087  0  -0.052838  0  -0.009942  -0.078974  0  3.958577  0
C  C43  1  0.95342330  0.01132284  0.68551633  1  0  -0.116313  0  3.744854  0  0  -0.087486  0  3.974491  0  0  -0.100383  0  3.99709  0  -0.053002  0  -0.009998  -0.079025  0  3.958584  0
C  C44  1  0.49046550  0.97689538  0.87879731  1  0  0.696762  0  3.918141  0  0  0.648124  0  4.209099  0  0  0.68267  0  4.20604  0  1.608463  0  0.225  0.624803  0  4.213804  0
C  C45  1  0.00954211  0.02310542  0.37879778  1  0  0.69684  0  3.918122  0  0  0.648241  0  4.209052  0  0  0.682783  0  4.206  0  1.608435  0  0.225092  0.624926  0  4.213753  0
C  C46  1  0.50953252  0.02310310  0.12119991  1  0  0.697057  0  3.917929  0  0  0.648366  0  4.208967  0  0  0.682914  0  4.205902  0  1.608487  0  0.225147  0.625047  0  4.213669  0
C  C47  1  0.99046505  0.97689886  0.62120176  1  0  0.696921  0  3.918134  0  0  0.648289  0  4.209112  0  0  0.682827  0  4.206068  0  1.608457  0  0.225082  0.624971  0  4.213812  0
C  C48  1  0.40636189  0.12870748  0.80120964  1  0  0.003079  0  3.645968  0  0  -0.025432  0  3.888779  0  0  -0.016959  0  3.902105  0  -0.055029  0  -0.048502  -0.031128  0  3.879836  0
C  C49  1  0.09364355  0.87129332  0.30120825  1  0  0.003089  0  3.645969  0  0  -0.025448  0  3.88883  0  0  -0.016972  0  3.902155  0  -0.055071  0  -0.048533  -0.031131  0  3.879873  0
C  C50  1  0.59363935  0.87129332  0.19878944  1  0  0.003019  0  3.645914  0  0  -0.025527  0  3.888761  0  0  -0.017053  0  3.902088  0  -0.055054  0  -0.048499  -0.031205  0  3.879799  0
C  C51  1  0.90636259  0.12870632  0.69879175  1  0  0.003007  0  3.645842  0  0  -0.025476  0  3.888696  0  0  -0.017  0  3.902022  0  -0.055007  0  -0.04849  -0.031163  0  3.879738  0
C  C52  1  0.22380818  0.73918771  0.03049988  1  0  0.716646  0  3.87782  0  0  0.669374  0  4.168837  0  0  0.705428  0  4.161886  0  1.62799  0  0.229198  0.645509  0  4.174442  0
C  C53  1  0.27618700  0.26080961  0.53049988  1  0  0.71674  0  3.877985  0  0  0.669514  0  4.168927  0  0  0.705563  0  4.161978  0  1.627926  0  0.229241  0.645655  0  4.17454  0
C  C54  1  0.77618349  0.26079916  0.96950104  1  0  0.716557  0  3.878199  0  0  0.669369  0  4.169072  0  0  0.705423  0  4.162114  0  1.628543  0  0.229248  0.6455  0  4.174685  0
C  C55  1  0.72381908  0.73919468  0.46950243  1  0  0.71663  0  3.877924  0  0  0.669419  0  4.168849  0  0  0.705471  0  4.16189  0  1.62821  0  0.229235  0.645552  0  4.174463  0
C  C56  1  0.09323665  0.60841837  0.06575909  1  0  -0.114838  0  3.722717  0  0  -0.088321  0  3.955355  0  0  -0.101093  0  3.978081  0  -0.048972  0  -0.010671  -0.079823  0  3.939465  0
C  C57  1  0.40675689  0.39158011  0.56575863  1  0  -0.114898  0  3.722719  0  0  -0.088413  0  3.955325  0  0  -0.10118  0  3.978046  0  -0.048693  0  -0.010652  -0.079918  0  3.939436  0
C  C58  1  0.90675275  0.39157547  0.93424276  1  0  -0.115013  0  3.72282  0  0  -0.088575  0  3.955461  0  0  -0.101347  0  3.978185  0  -0.048963  0  -0.010738  -0.080079  0  3.939573  0
C  C59  1  0.59324761  0.60842069  0.43424369  1  0  -0.115023  0  3.722834  0  0  -0.088562  0  3.955451  0  0  -0.101331  0  3.97817  0  -0.04904  0  -0.010728  -0.080072  0  3.939567  0
C  C60  1  0.95028834  0.61633147  0.08254436  1  0  -0.004126  0  3.66378  0  0  -0.035372  0  3.914866  0  0  -0.028258  0  3.930372  0  -0.070849  0  -0.056751  -0.040116  0  3.905051  0
C  C61  1  0.54970282  0.38366353  0.58254390  1  0  -0.004179  0  3.663633  0  0  -0.035361  0  3.914652  0  0  -0.028246  0  3.93016  0  -0.07117  0  -0.056742  -0.040117  0  3.90486  0
C  C62  1  0.04969890  0.38366237  0.91745657  1  0  -0.004001  0  3.663534  0  0  -0.035153  0  3.914558  0  0  -0.028039  0  3.930065  0  -0.070902  0  -0.056707  -0.039903  0  3.904763  0
C  C63  1  0.45029951  0.61633727  0.41745888  1  0  -0.004001  0  3.663616  0  0  -0.03514  0  3.914615  0  0  -0.028026  0  3.930116  0  -0.070987  0  -0.056684  -0.039896  0  3.904822  0
C  C64  1  0.83507092  0.49515397  0.11657725  1  0  -0.097126  0  3.710651  0  0  -0.10769  0  3.957664  0  0  -0.115379  0  3.977921  0  -0.002828  0  -0.073979  -0.102927  0  3.944431  0
C  C65  1  0.66492569  0.50483870  0.61657772  1  0  -0.097081  0  3.710437  0  0  -0.107654  0  3.957411  0  0  -0.115347  0  3.977668  0  -0.002847  0  -0.074004  -0.102889  0  3.944175  0
C  C66  1  0.16492118  0.50484102  0.88342275  1  0  -0.0973  0  3.710502  0  0  -0.107897  0  3.957477  0  0  -0.115589  0  3.977737  0  -0.00301  0  -0.074128  -0.103137  0  3.944247  0
C  C67  1  0.33507772  0.49516210  0.38342321  1  0  -0.097283  0  3.710531  0  0  -0.107899  0  3.957548  0  0  -0.11559  0  3.977801  0  -0.002977  0  -0.074105  -0.103135  0  3.944315  0
C  C68  1  0.11522795  0.47906771  0.08401621  1  0  0.118686  0  3.632412  0  0  0.080352  0  3.87016  0  0  0.089226  0  3.885996  0  0.439996  0  0.049783  0.073973  0  3.860485  0
C  C69  1  0.38476990  0.52093308  0.58401575  1  0  0.118805  0  3.63244  0  0  0.080476  0  3.870204  0  0  0.089354  0  3.886039  0  0.439761  0  0.04983  0.07412  0  3.860492  0
C  C70  1  0.88475928  0.52092612  0.91598425  1  0  0.118874  0  3.632554  0  0  0.080534  0  3.870287  0  0  0.089409  0  3.886122  0  0.43968  0  0.049938  0.074187  0  3.860559  0
C  C71  1  0.61523675  0.47907004  0.41598564  1  0  0.118939  0  3.632449  0  0  0.080594  0  3.870199  0  0  0.089474  0  3.886035  0  0.439668  0  0.049948  0.074263  0  3.860443  0
C  C72  1  0.37886164  0.15255127  0.73937132  1  0  -0.124053  0  3.736291  0  0  -0.133706  0  3.985674  0  0  -0.143977  0  4.009309  0  0.044791  0  -0.079856  -0.127159  0  3.970054  0
C  C73  1  0.12113835  0.84745185  0.23936854  1  0  -0.12402  0  3.736326  0  0  -0.133677  0  3.985704  0  0  -0.143947  0  4.009336  0  0.04488  0  -0.079848  -0.127131  0  3.970084  0
C  C74  1  0.62114066  0.84745185  0.26062821  1  0  -0.123949  0  3.736166  0  0  -0.133652  0  3.985554  0  0  -0.143924  0  4.009194  0  0.044942  0  -0.079822  -0.127106  0  3.969929  0
C  C75  1  0.87886017  0.15255011  0.76063053  1  0  -0.12402  0  3.736199  0  0  -0.133707  0  3.985571  0  0  -0.14398  0  4.009211  0  0.044816  0  -0.079845  -0.12716  0  3.969953  0
C  C76  1  0.86758668  0.37238945  0.13440398  1  0  0.124728  0  3.688552  0  0  0.094136  0  3.931231  0  0  0.102745  0  3.947145  0  0.44038  0  0.044514  0.088497  0  3.920788  0
C  C77  1  0.63241099  0.62760555  0.63440445  1  0  0.124708  0  3.688422  0  0  0.094119  0  3.931125  0  0  0.102729  0  3.947043  0  0.4406  0  0.044565  0.088485  0  3.920683  0
C  C78  1  0.13239786  0.62760323  0.86559694  1  0  0.124592  0  3.6885  0  0  0.094123  0  3.931179  0  0  0.102728  0  3.947092  0  0.440317  0  0.044577  0.088483  0  3.920744  0
C  C79  1  0.36759674  0.37239757  0.36559694  1  0  0.124735  0  3.688614  0  0  0.094203  0  3.931292  0  0  0.102816  0  3.947204  0  0.44064  0  0.044604  0.088563  0  3.92086  0
C  C80  1  0.46767828  0.92201217  0.76593977  1  0  0.097013  0  3.706744  0  0  0.05745  0  3.949798  0  0  0.065784  0  3.966506  0  0.470464  0  0.046759  0.051556  0  3.939669  0
C  C81  1  0.03232496  0.07799095  0.26593977  1  0  0.09691  0  3.70674  0  0  0.057382  0  3.949814  0  0  0.065716  0  3.966518  0  0.470454  0  0.046721  0.05147  0  3.939713  0
C  C82  1  0.53232297  0.07798863  0.23405745  1  0  0.097065  0  3.706999  0  0  0.057481  0  3.950057  0  0  0.065814  0  3.966762  0  0.47032  0  0.046739  0.051571  0  3.939958  0
C  C83  1  0.96766981  0.92200752  0.73406115  1  0  0.096899  0  3.706814  0  0  0.057366  0  3.94988  0  0  0.065702  0  3.966584  0  0.470286  0  0.046767  0.051457  0  3.939766  0
C  C84  1  0.39394030  0.05764397  0.69333889  1  0  0.148379  0  3.62749  0  0  0.114841  0  3.874143  0  0  0.123945  0  3.890449  0  0.454284  0  0.055802  0.108785  0  3.864411  0
C  C85  1  0.10606400  0.94236147  0.19333843  1  0  0.148338  0  3.627533  0  0  0.11481  0  3.874166  0  0  0.123907  0  3.890477  0  0.453774  0  0.055794  0.108753  0  3.864445  0
C  C86  1  0.60606842  0.94236611  0.30665925  1  0  0.148327  0  3.627412  0  0  0.114842  0  3.874004  0  0  0.123925  0  3.890326  0  0.453702  0  0.05575  0.108787  0  3.864277  0
C  C87  1  0.89393132  0.05763585  0.80666157  1  0  0.148373  0  3.62742  0  0  0.114858  0  3.874046  0  0  0.123948  0  3.890362  0  0.454203  0  0.055794  0.108799  0  3.864325  0
C  C88  1  0.51080964  0.50768421  0.03586055  1  0  0.549033  0  3.958602  0  0  0.506309  0  4.261329  0  0  0.535368  0  4.258582  0  1.589265  0  0.207273  0.486058  0  4.267249  0
C  C89  1  0.98918741  0.49231659  0.53586148  1  0  0.548983  0  3.958801  0  0  0.506265  0  4.261474  0  0  0.535324  0  4.258729  0  1.624345  0  0.207372  0.48602  0  4.267389  0
C  C90  1  0.48919378  0.49231659  0.96413667  1  0  0.549027  0  3.958707  0  0  0.506276  0  4.261491  0  0  0.535335  0  4.258742  0  1.624392  0  0.207232  0.486023  0  4.267414  0
C  C91  1  0.01080953  0.50768189  0.46413852  1  0  0.548943  0  3.958793  0  0  0.50627  0  4.261418  0  0  0.535329  0  4.258671  0  1.589661  0  0.207334  0.486023  0  4.267336  0
C  C92  1  0.99488216  0.02156715  0.03403104  1  0  0.555127  0  3.93537  0  0  0.509692  0  4.227799  0  0  0.539296  0  4.224504  0  1.616638  0  0.208119  0.489458  0  4.233266  0
C  C93  1  0.50511979  0.97843249  0.53402826  1  0  0.555234  0  3.935332  0  0  0.509887  0  4.227595  0  0  0.539496  0  4.224301  0  1.590408  0  0.2083  0.489654  0  4.233058  0
C  C94  1  0.00511751  0.97843017  0.96596989  1  0  0.555094  0  3.935426  0  0  0.509668  0  4.227838  0  0  0.539277  0  4.224544  0  1.590425  0  0.208152  0.489434  0  4.233306  0
C  C95  1  0.49488577  0.02157063  0.46596757  1  0  0.555051  0  3.935473  0  0  0.509602  0  4.227876  0  0  0.539213  0  4.224583  0  1.616616  0  0.208104  0.489369  0  4.23334  0
N  N96  1  0.00564382  0.36316330  0.11870651  1  0  -0.306055  0  3.437072  0  0  -0.222436  0  3.742603  0  0  -0.235512  0  3.747818  0  -1.213743  0  -0.376167  -0.214892  0  3.738644  0
N  N97  1  0.49435676  0.63683634  0.61870558  1  0  -0.306076  0  3.437032  0  0  -0.222478  0  3.742599  0  0  -0.235567  0  3.747836  0  -1.213841  0  -0.376202  -0.214936  0  3.738631  0
N  N98  1  0.99434016  0.63683053  0.88129395  1  0  -0.306041  0  3.437235  0  0  -0.22249  0  3.742819  0  0  -0.23556  0  3.748031  0  -1.213726  0  -0.376239  -0.214953  0  3.738871  0
N  N99  1  0.50565419  0.36316910  0.38129488  1  0  -0.306218  0  3.437312  0  0  -0.222621  0  3.742875  0  0  -0.235709  0  3.748107  0  -1.213584  0  -0.376264  -0.215086  0  3.738932  0
N  N100  1  0.43663374  0.94204453  0.70631781  1  0  -0.29988  0  3.428145  0  0  -0.215532  0  3.729252  0  0  -0.229358  0  3.735612  0  -1.216409  0  -0.371464  -0.207438  0  3.724791  0
N  N101  1  0.06336895  0.05795975  0.20631828  1  0  -0.299875  0  3.428155  0  0  -0.215534  0  3.729283  0  0  -0.229353  0  3.735626  0  -1.216001  0  -0.371477  -0.207428  0  3.72482  0
N  N102  1  0.56337337  0.05796440  0.29367941  1  0  -0.300042  0  3.428283  0  0  -0.215702  0  3.729424  0  0  -0.22952  0  3.735772  0  -1.215988  0  -0.371523  -0.20761  0  3.724977  0
N  N103  1  0.93662315  0.94203524  0.79368265  1  0  -0.299822  0  3.428167  0  0  -0.215496  0  3.729288  0  0  -0.229312  0  3.735633  0  -1.216275  0  -0.371498  -0.207382  0  3.724823  0
O  O104  1  0.12586088  0.11986793  0.05863980  1  0  -0.662817  0  2.133176  0  0  -0.597753  0  2.407115  0  0  -0.629253  0  2.392125  0  -1.180643  0  -0.369321  -0.580911  0  2.415762  0
O  O105  1  0.37414085  0.88012706  0.55863794  1  0  -0.662852  0  2.133161  0  0  -0.597848  0  2.407123  0  0  -0.629326  0  2.392078  0  -1.180594  0  -0.369447  -0.581018  0  2.415796  0
O  O106  1  0.87414040  0.88013054  0.94135928  1  0  -0.662772  0  2.133245  0  0  -0.597727  0  2.40722  0  0  -0.62921  0  2.392193  0  -1.180687  0  -0.369338  -0.580886  0  2.41587  0
O  O107  1  0.62586371  0.11986909  0.44135789  1  0  -0.662779  0  2.133324  0  0  -0.59774  0  2.407314  0  0  -0.629229  0  2.392284  0  -1.180818  0  -0.369337  -0.5809  0  2.415964  0
O  O108  1  0.21556150  0.86817498  0.03133009  1  0  -0.73781  0  2.058867  0  0  -0.684755  0  2.312181  0  0  -0.719048  0  2.301715  0  -1.199579  0  -0.378705  -0.666544  0  2.317527  0
O  O109  1  0.28444016  0.13182466  0.53133102  1  0  -0.737853  0  2.058956  0  0  -0.684802  0  2.312221  0  0  -0.719097  0  2.301763  0  -1.199539  0  -0.378712  -0.666588  0  2.317574  0
O  O110  1  0.78444635  0.13181885  0.96866806  1  0  -0.737715  0  2.059074  0  0  -0.684668  0  2.312285  0  0  -0.718955  0  2.301826  0  -1.199614  0  -0.378745  -0.666457  0  2.317637  0
O  O111  1  0.71556322  0.86817846  0.46866898  1  0  -0.737776  0  2.058994  0  0  -0.684722  0  2.312227  0  0  -0.719013  0  2.301764  0  -1.199543  0  -0.378698  -0.666507  0  2.31758  0
O  O112  1  0.45126003  0.03681636  0.92435580  1  0  -0.774229  0  2.135919  0  0  -0.721392  0  2.404179  0  0  -0.757905  0  2.390449  0  -1.212156  0  -0.402177  -0.704455  0  2.41317  0
O  O113  1  0.04873897  0.96317980  0.42435627  1  0  -0.774177  0  2.135978  0  0  -0.721361  0  2.404257  0  0  -0.757875  0  2.390538  0  -1.212349  0  -0.402183  -0.704423  0  2.41324  0
O  O114  1  0.54873375  0.96317516  0.07564281  1  0  -0.7743  0  2.135964  0  0  -0.721469  0  2.404298  0  0  -0.757979  0  2.39057  0  -1.212379  0  -0.402197  -0.704538  0  2.413302  0
O  O115  1  0.95125790  0.03682332  0.57564466  1  0  -0.774253  0  2.135872  0  0  -0.721421  0  2.404149  0  0  -0.757927  0  2.390424  0  -1.212328  0  -0.402202  -0.704507  0  2.413192  0
O  O116  1  0.44695070  0.38380052  0.06696085  1  0  -0.646298  0  2.038845  0  0  -0.603529  0  2.286654  0  0  -0.630441  0  2.272521  0  -1.187153  0  -0.372241  -0.589387  0  2.295077  0
O  O117  1  0.05304929  0.61620260  0.56696132  1  0  -0.646255  0  2.03882  0  0  -0.603493  0  2.286617  0  0  -0.630418  0  2.272507  0  -1.187237  0  -0.372335  -0.589345  0  2.295038  0
O  O118  1  0.55305213  0.61620376  0.93303776  1  0  -0.646278  0  2.039022  0  0  -0.603518  0  2.286861  0  0  -0.630426  0  2.272726  0  -1.187277  0  -0.372271  -0.589378  0  2.295287  0
O  O119  1  0.94694867  0.38380052  0.43303822  1  0  -0.646211  0  2.038918  0  0  -0.60347  0  2.286692  0  0  -0.630388  0  2.272576  0  -1.187235  0  -0.372275  -0.589324  0  2.29512  0
O  O120  1  0.33191061  0.71186917  0.00421913  1  0  -0.735456  0  2.040333  0  0  -0.685878  0  2.294793  0  0  -0.720745  0  2.285374  0  -1.201912  0  -0.382039  -0.667112  0  2.299582  0
O  O121  1  0.16808557  0.28813511  0.50422330  1  0  -0.735524  0  2.040497  0  0  -0.685947  0  2.294904  0  0  -0.720838  0  2.28553  0  -1.201909  0  -0.382063  -0.667178  0  2.299699  0
O  O122  1  0.66808689  0.28812815  0.99577994  1  0  -0.735455  0  2.040532  0  0  -0.685896  0  2.294926  0  0  -0.720787  0  2.285543  0  -1.202193  0  -0.382048  -0.667131  0  2.299722  0
O  O123  1  0.83192318  0.71187265  0.49577948  1  0  -0.735453  0  2.040476  0  0  -0.685867  0  2.294856  0  0  -0.720765  0  2.285496  0  -1.201977  0  -0.382029  -0.667102  0  2.299651  0
O  O124  1  0.55955665  0.88834550  0.88404818  1  0  -0.685821  0  1.998718  0  0  -0.638074  0  2.247149  0  0  -0.669704  0  2.235807  0  -1.168775  0  -0.373553  -0.620816  0  2.253199  0
O  O125  1  0.94045019  0.11165298  0.38405189  1  0  -0.685902  0  1.998862  0  0  -0.638128  0  2.247223  0  0  -0.669758  0  2.235876  0  -1.168648  0  -0.373619  -0.620874  0  2.253283  0
O  O126  1  0.44043926  0.11164834  0.11594950  1  0  -0.685997  0  1.998718  0  0  -0.638246  0  2.247222  0  0  -0.669881  0  2.235875  0  -1.168772  0  -0.373654  -0.620987  0  2.253274  0
O  O127  1  0.05956128  0.88835362  0.61595274  1  0  -0.68592  0  1.998876  0  0  -0.638172  0  2.247338  0  0  -0.669804  0  2.236  0  -1.16866  0  -0.373583  -0.620906  0  2.253376  0
O  O128  1  0.59068117  0.64325064  0.05763817  1  0  -0.673123  0  2.024479  0  0  -0.630054  0  2.27367  0  0  -0.660309  0  2.26103  0  -1.188968  0  -0.387906  -0.613734  0  2.280434  0
O  O129  1  0.90929956  0.35675248  0.55763678  1  0  -0.673103  0  2.02464  0  0  -0.630035  0  2.273813  0  0  -0.660292  0  2.261172  0  -1.188943  0  -0.387906  -0.61372  0  2.280596  0
O  O130  1  0.40931738  0.35674900  0.94236183  1  0  -0.673185  0  2.024477  0  0  -0.630107  0  2.273685  0  0  -0.660365  0  2.261038  0  -1.188968  0  -0.387895  -0.613787  0  2.280449  0
O  O131  1  0.09070274  0.64325064  0.44236461  1  0  -0.673138  0  2.024553  0  0  -0.630079  0  2.273701  0  0  -0.660339  0  2.261066  0  -1.189374  0  -0.387938  -0.613758  0  2.280473  0
O  O132  1  0.86040070  0.95913734  0.06091313  1  0  -0.637394  0  2.048559  0  0  -0.591016  0  2.301943  0  0  -0.618948  0  2.289181  0  -1.184081  0  -0.351988  -0.575829  0  2.308918  0
O  O133  1  0.63959852  0.04086346  0.56091221  1  0  -0.637416  0  2.0486  0  0  -0.591061  0  2.301936  0  0  -0.619002  0  2.28917  0  -1.18432  0  -0.351986  -0.575871  0  2.30891  0
O  O134  1  0.13959677  0.04086230  0.93908640  1  0  -0.637383  0  2.048568  0  0  -0.591008  0  2.301947  0  0  -0.618945  0  2.28918  0  -1.184348  0  -0.351976  -0.575822  0  2.308921  0
O  O135  1  0.36040375  0.95914198  0.43908548  1  0  -0.637374  0  2.048481  0  0  -0.590999  0  2.301886  0  0  -0.618938  0  2.289118  0  -1.18396  0  -0.35201  -0.575812  0  2.30886  0
