# generated using pymatgen
data_CuHgH11C15N3Cl4
_symmetry_space_group_name_H-M   'P 1'
_cell_length_a   7.27247491
_cell_length_b   9.08250066
_cell_length_c   13.31195517
_cell_angle_alpha   84.29357109
_cell_angle_beta   82.82123818
_cell_angle_gamma   86.25617830
_symmetry_Int_Tables_number   1
_chemical_formula_structural   CuHgH11C15N3Cl4
_chemical_formula_sum   'Cu2 Hg2 H22 C30 N6 Cl8'
_cell_volume   866.82317980
_cell_formula_units_Z   2
loop_
 _symmetry_equiv_pos_site_id
 _symmetry_equiv_pos_as_xyz
  1  'x, y, z'
loop_
 _atom_site_type_symbol
 _atom_site_label
 _atom_site_symmetry_multiplicity
 _atom_site_fract_x
 _atom_site_fract_y
 _atom_site_fract_z
 _atom_site_occupancy
 _atom_site_hle17_ddec_charge
 _atom_site_hle17_ddec_spin_density
 _atom_site_hle17_ddec_sum_bond_order
 _atom_site_hle17_magmom
 _atom_site_hse06_10hf_ddec_charge
 _atom_site_hse06_10hf_ddec_spin_density
 _atom_site_hse06_10hf_ddec_sum_bond_order
 _atom_site_hse06_10hf_magmom
 _atom_site_hse06_ddec_charge
 _atom_site_hse06_ddec_spin_density
 _atom_site_hse06_ddec_sum_bond_order
 _atom_site_hse06_magmom
 _atom_site_pbe_cm5_charge
 _atom_site_pbe_ddec_charge
 _atom_site_pbe_ddec_spin_density
 _atom_site_pbe_ddec_sum_bond_order
 _atom_site_pbe_magmom
Cu  Cu0  1  0.61086604  0.23541392  0.20814423  1  0.722529  0.719546  2.051194  0.495  0.679078  0.791043  2.471253  0.597  0.762555  0.868812  2.401554  0.68  0.667059  0.63258  0.73738  2.515589  0.545
Cu  Cu1  1  0.38913369  0.76458595  0.79185390  1  0.722481  -0.719541  2.051186  -0.495  0.679015  -0.791052  2.47122  -0.597  0.762551  -0.868817  2.40158  -0.68  0.667027  0.632537  -0.737379  2.51558  -0.545
Hg  Hg2  1  0.06256030  0.11103779  0.33119090  1  0.771688  -9.8e-05  2.135333  0.0  0.650971  0.000238  2.64573  0.0  0.697244  7.8e-05  2.609205  0.0  0.454307  0.61897  0.000379  2.670544  0.0
Hg  Hg3  1  0.93743545  0.88895989  0.66880993  1  0.771682  9.8e-05  2.135321  0.0  0.650974  -0.000236  2.64573  0.0  0.697256  -7.3e-05  2.609203  0.0  0.454322  0.618975  -0.00038  2.670545  0.0
H  H4  1  0.48946606  0.07485826  0.41754842  1  0.085654  0.001774  0.95509  0.003  0.091202  0.001437  1.023325  0.002  0.092506  0.001016  1.022307  0.001  0.107986  0.090061  0.001783  1.024333  0.002
H  H5  1  0.51053513  0.92513937  0.58244601  1  0.085649  -0.001771  0.955141  -0.003  0.091235  -0.001437  1.023337  -0.002  0.092519  -0.001015  1.022339  -0.001  0.108016  0.090095  -0.001783  1.024345  -0.002
H  H6  1  0.29308103  0.14861456  0.57630197  1  0.109735  0.000241  0.983252  0.001  0.116994  0.00013  1.048814  0.001  0.120195  6.8e-05  1.047723  0.0  0.09225  0.114668  0.000184  1.049704  0.001
H  H7  1  0.70691635  0.85137755  0.42369313  1  0.109799  -0.000239  0.983156  -0.001  0.117023  -0.00013  1.048743  -0.001  0.120223  -6.8e-05  1.047655  0.0  0.092263  0.114699  -0.000184  1.049636  -0.001
H  H8  1  0.18042355  0.41654828  0.58302523  1  0.102634  0.000223  0.955013  0.0  0.11288  -4.8e-05  1.014133  0.0  0.115885  -6.2e-05  1.011658  0.0  0.097754  0.110699  -1.9e-05  1.015983  0.0
H  H9  1  0.81956572  0.58344052  0.41697070  1  0.102549  -0.000223  0.95497  0.0  0.112807  4.8e-05  1.014082  0.0  0.115812  6.3e-05  1.011607  0.0  0.097705  0.110628  2e-05  1.015933  0.0
H  H10  1  0.27237237  0.59763679  0.43586834  1  0.119271  0.000974  0.958626  0.001  0.128009  0.00077  1.019863  0.001  0.130694  0.00053  1.019368  0.001  0.101581  0.126028  0.000973  1.020391  0.001
H  H11  1  0.72762086  0.40235646  0.56413224  1  0.119199  -0.000973  0.958652  -0.001  0.127961  -0.000769  1.019853  -0.001  0.130649  -0.00053  1.01936  -0.001  0.101552  0.125995  -0.000973  1.020365  -0.001
H  H12  1  0.40155931  0.74647956  0.30212079  1  0.119196  0.000943  0.977283  0.001  0.12419  0.000772  1.04553  0.001  0.12758  0.000545  1.044182  0.001  0.097577  0.12155  0.000951  1.046865  0.001
H  H13  1  0.59844050  0.25351920  0.69787817  1  0.119199  -0.000942  0.977261  -0.001  0.124195  -0.000773  1.045509  -0.001  0.127586  -0.000545  1.04416  -0.001  0.097581  0.121553  -0.000951  1.046845  -0.001
H  H14  1  0.52797229  0.87191902  0.13694972  1  0.10561  0.000219  0.960826  0.0  0.113033  -5e-06  1.024228  0.0  0.115734  -1.4e-05  1.02181  0.0  0.095885  0.110789  1.4e-05  1.026301  0.0
H  H15  1  0.47202877  0.12808309  0.86305341  1  0.105617  -0.00022  0.960796  0.0  0.113037  5e-06  1.024203  0.0  0.11574  1.4e-05  1.021782  0.0  0.095904  0.110791  -1.4e-05  1.026274  0.0
H  H16  1  0.69402677  0.72417932  0.00070313  1  0.120607  0.000945  0.988311  0.001  0.127696  0.000774  1.053102  0.001  0.13113  0.000545  1.051487  0.001  0.094276  0.12507  0.000955  1.054432  0.001
H  H17  1  0.30598104  0.27582610  0.99930078  1  0.12058  -0.000945  0.988379  -0.001  0.127683  -0.000775  1.053146  -0.001  0.131113  -0.000545  1.051534  -0.001  0.09424  0.125053  -0.000955  1.054479  -0.001
H  H18  1  0.83295329  0.56322703  0.89471201  1  0.120691  0.000904  0.951789  0.001  0.125098  0.000728  1.021254  0.001  0.128366  0.000507  1.019764  0.001  0.102946  0.122681  0.000913  1.022402  0.001
H  H19  1  0.16705071  0.43677287  0.10529256  1  0.120727  -0.000903  0.951682  -0.001  0.125138  -0.000728  1.021142  -0.001  0.128406  -0.000507  1.019651  -0.001  0.102942  0.12272  -0.000913  1.022289  -0.001
H  H20  1  0.97705050  0.36427663  0.79085625  1  0.105702  0.000161  0.936367  0.0  0.11733  -0.000117  0.991683  0.0  0.120091  -0.00011  0.989681  0.0  0.103184  0.115254  -0.000108  0.993279  0.0
H  H21  1  0.02295719  0.63572989  0.20914458  1  0.105744  -0.000162  0.936352  0.0  0.117363  0.000117  0.991663  0.0  0.120124  0.00011  0.989663  0.0  0.1032  0.115289  0.000109  0.993261  0.0
H  H22  1  0.96030909  0.09813883  0.86397541  1  0.107316  0.000361  0.984936  0.001  0.113282  0.000267  1.052593  0.001  0.116422  0.00018  1.051127  0.0  0.093431  0.110871  0.000337  1.053867  0.001
H  H23  1  0.03969454  0.90186547  0.13602363  1  0.107303  -0.000362  0.984925  -0.001  0.113265  -0.000267  1.052595  -0.001  0.116399  -0.000181  1.051135  0.0  0.093398  0.110855  -0.000337  1.053869  -0.001
H  H24  1  0.80628166  0.04447217  0.04260772  1  0.085862  0.001607  0.943355  0.002  0.092903  0.00134  1.008929  0.002  0.094245  0.000956  1.007803  0.001  0.113989  0.091723  0.001652  1.009993  0.002
H  H25  1  0.19371774  0.95553325  0.95739155  1  0.0858  -0.001607  0.943561  -0.002  0.092833  -0.00134  1.009138  -0.002  0.094177  -0.000956  1.008007  -0.001  0.113983  0.091654  -0.001651  1.010201  -0.002
C  C26  1  0.43928201  0.18907986  0.42589415  1  0.124705  -0.008003  3.716212  -0.009  0.09648  -0.001181  3.976121  -0.003  0.104745  -0.002292  3.996655  -0.004  0.042469  0.091019  -0.00033  3.963209  -0.002
C  C27  1  0.56071365  0.81091779  0.57410143  1  0.124668  0.008004  3.715991  0.009  0.096384  0.00118  3.97595  0.003  0.104669  0.002292  3.99649  0.004  0.042387  0.090928  0.00033  3.963042  0.002
C  C28  1  0.33058804  0.23133157  0.51331425  1  -0.109331  0.009807  3.705384  0.01  -0.122567  0.003981  3.956303  0.005  -0.130264  0.003451  3.977496  0.004  -0.084089  -0.117633  0.004449  3.942334  0.005
C  C29  1  0.66941200  0.76866275  0.48668200  1  -0.109326  -0.009817  3.704944  -0.01  -0.122535  -0.003981  3.955912  -0.005  -0.130231  -0.003451  3.977097  -0.004  -0.083983  -0.117602  -0.004449  3.941942  -0.005
C  C30  1  0.26874503  0.37929323  0.51703675  1  0.013087  -0.008598  3.686777  -0.008  -0.007388  -0.002608  3.937004  -0.002  -0.003183  -0.002836  3.953902  -0.003  -0.064585  -0.01009  -0.00245  3.925582  -0.002
C  C31  1  0.73124684  0.62069889  0.48296100  1  0.013187  0.008606  3.686606  0.008  -0.007294  0.002607  3.936808  0.002  -0.003093  0.002834  3.953712  0.003  -0.064594  -0.009997  0.00245  3.925394  0.002
C  C32  1  0.31980853  0.48141360  0.43464970  1  -0.115468  0.006377  3.674556  0.006  -0.133845  0.002447  3.91991  0.002  -0.139851  0.002225  3.939476  0.002  -0.072568  -0.129879  0.00267  3.906666  0.003
C  C33  1  0.68018601  0.51858075  0.56534995  1  -0.115405  -0.006386  3.674561  -0.006  -0.133773  -0.002447  3.919863  -0.002  -0.139784  -0.002224  3.939431  -0.002  -0.072553  -0.129818  -0.002671  3.90661  -0.003
C  C34  1  0.42946996  0.43201724  0.34975998  1  0.171462  -0.001588  3.743079  -0.002  0.167851  0.001995  3.987032  0.002  0.175345  0.000614  4.007624  0.0  0.116414  0.163114  0.003019  3.973442  0.003
C  C35  1  0.57052994  0.56798042  0.65024055  1  0.171415  0.001596  3.74312  0.002  0.167784  -0.001995  3.98711  -0.002  0.175281  -0.000613  4.0077  0.0  0.116433  0.16305  -0.003018  3.973524  -0.003
C  C36  1  0.49261210  0.52700571  0.25764559  1  0.194992  -0.004148  3.748212  -0.005  0.189601  0.000155  3.993718  -0.001  0.199262  -0.000986  4.012858  -0.003  0.125743  0.183086  0.000978  3.981382  0.0
C  C37  1  0.50738639  0.47299195  0.74235354  1  0.19498  0.004137  3.7483  0.005  0.189572  -0.000156  3.993832  0.001  0.199237  0.000984  4.012974  0.003  0.125712  0.183056  -0.000979  3.981494  0.0
C  C38  1  0.47326251  0.68146748  0.24300667  1  -0.119599  0.007368  3.638611  0.007  -0.13646  0.003536  3.881215  0.004  -0.143588  0.003112  3.900431  0.003  -0.070696  -0.131863  0.003868  3.868804  0.004
C  C39  1  0.52673997  0.31853350  0.75699419  1  -0.119604  -0.007356  3.638539  -0.007  -0.136455  -0.003536  3.881151  -0.004  -0.143584  -0.00311  3.900364  -0.003  -0.070689  -0.131857  -0.003868  3.868735  -0.004
C  C40  1  0.54590529  0.75168957  0.14973590  1  0.018841  -0.008301  3.676174  -0.008  0.001986  -0.002928  3.923768  -0.003  0.007701  -0.003105  3.939433  -0.003  -0.062429  -0.002085  -0.00281  3.913765  -0.003
C  C41  1  0.45409987  0.24831365  0.85026761  1  0.01887  0.008293  3.676066  0.008  0.002004  0.002929  3.923672  0.003  0.007716  0.003104  3.939337  0.003  -0.06245  -0.002069  0.00281  3.913664  0.003
C  C42  1  0.63860112  0.66925153  0.07391210  1  -0.131053  0.007404  3.654562  0.007  -0.151073  0.003605  3.901521  0.004  -0.15808  0.003141  3.920914  0.003  -0.078151  -0.146503  0.003976  3.888868  0.004
C  C43  1  0.36140406  0.33075169  0.92609216  1  -0.131135  -0.007392  3.65452  -0.007  -0.151146  -0.003605  3.901455  -0.004  -0.158153  -0.00314  3.920845  -0.003  -0.078175  -0.146572  -0.003976  3.888797  -0.004
C  C44  1  0.65395714  0.51507112  0.09330981  1  0.18717  -0.004125  3.761054  -0.005  0.182306  0.000204  4.009358  -0.001  0.191732  -0.000946  4.0287  -0.002  0.12137  0.176042  0.001024  3.996773  0.0
C  C45  1  0.34605070  0.48493319  0.90669192  1  0.187377  0.004116  3.760922  0.005  0.182439  -0.000205  4.009191  0.001  0.191871  0.000947  4.028531  0.002  0.121398  0.17617  -0.001024  3.996607  0.0
C  C46  1  0.74613683  0.40871421  0.02434464  1  0.168891  -0.001597  3.739402  -0.002  0.166836  0.001783  3.983374  0.002  0.174394  0.000504  4.004467  0.0  0.115402  0.162058  0.002713  3.969358  0.003
C  C47  1  0.25386804  0.59129343  0.97565782  1  0.168596  0.001602  3.739776  0.002  0.166728  -0.001784  3.983487  -0.002  0.17429  -0.000504  4.004581  0.0  0.115392  0.161955  -0.002713  3.96947  -0.003
C  C48  1  0.83113822  0.44759245  0.92612543  1  -0.128445  0.005749  3.671148  0.005  -0.148704  0.002283  3.92212  0.002  -0.155392  0.002096  3.942715  0.002  -0.076548  -0.144213  0.002467  3.908094  0.002
C  C49  1  0.16886970  0.55241075  0.07387712  1  -0.128381  -0.005759  3.67126  -0.005  -0.148692  -0.002284  3.92212  -0.002  -0.15538  -0.002095  3.942714  -0.002  -0.076498  -0.144198  -0.002467  3.908092  -0.002
C  C50  1  0.91123408  0.33556405  0.86785421  1  0.009287  -0.008178  3.694974  -0.007  -0.007852  -0.002663  3.942158  -0.002  -0.003528  -0.002834  3.959845  -0.003  -0.061738  -0.010556  -0.002568  3.93016  -0.002
C  C51  1  0.08877102  0.66443914  0.13214555  1  0.009181  0.008183  3.695038  0.007  -0.007939  0.002661  3.942221  0.002  -0.003617  0.002833  3.959908  0.003  -0.061812  -0.010643  0.002568  3.930227  0.002
C  C52  1  0.90277292  0.18829290  0.90828880  1  -0.104775  0.009287  3.699283  0.01  -0.116428  0.003844  3.944369  0.005  -0.124015  0.003397  3.965348  0.004  -0.078999  -0.111625  0.004232  3.930625  0.005
C  C53  1  0.09722656  0.81171141  0.09171129  1  -0.104766  -0.00929  3.699214  -0.01  -0.116459  -0.003844  3.944316  -0.005  -0.124042  -0.003397  3.965294  -0.004  -0.078936  -0.111658  -0.004232  3.930576  -0.005
C  C54  1  0.81700563  0.15735488  0.00700849  1  0.14467  -0.007774  3.674657  -0.009  0.116156  -0.001237  3.928699  -0.003  0.125347  -0.002245  3.948368  -0.004  0.05363  0.110104  -0.000489  3.91631  -0.002
C  C55  1  0.18299491  0.84265497  0.99299188  1  0.144781  0.007775  3.674647  0.009  0.116295  0.001235  3.928666  0.003  0.125491  0.002245  3.948333  0.004  0.053669  0.110246  0.000489  3.916282  0.002
N  N56  1  0.48589571  0.28661989  0.34616396  1  -0.316216  0.0965  3.340253  0.117  -0.271254  0.065784  3.62556  0.085  -0.304386  0.053834  3.652546  0.073  -0.340555  -0.251775  0.072962  3.609678  0.091
N  N57  1  0.51410414  0.71337776  0.65383357  1  -0.316207  -0.09651  3.34027  -0.117  -0.271218  -0.065783  3.62555  -0.085  -0.304366  -0.053838  3.652557  -0.073  -0.340554  -0.251754  -0.072965  3.60969  -0.091
N  N58  1  0.57956656  0.44989146  0.18275724  1  -0.335903  0.10585  3.38947  0.129  -0.297635  0.074465  3.68243  0.097  -0.329573  0.062477  3.704376  0.085  -0.352778  -0.279495  0.080833  3.670209  0.102
N  N59  1  0.42043458  0.55010842  0.81724229  1  -0.335881  -0.105837  3.389447  -0.129  -0.297581  -0.074459  3.682377  -0.097  -0.329541  -0.062473  3.704369  -0.085  -0.35272  -0.279445  -0.08083  3.670167  -0.102
N  N60  1  0.74224387  0.26459875  0.06387845  1  -0.313643  0.090195  3.303725  0.11  -0.269308  0.062451  3.592291  0.081  -0.301002  0.051632  3.616228  0.07  -0.335153  -0.250872  0.068849  3.578446  0.086
N  N61  1  0.25775825  0.73540890  0.93612497  1  -0.313528  -0.090197  3.303679  -0.11  -0.269248  -0.062448  3.592142  -0.081  -0.300964  -0.051632  3.616118  -0.07  -0.335189  -0.250816  -0.068848  3.578307  -0.086
Cl  Cl62  1  0.75431591  0.01310345  0.25464095  1  -0.49188  0.080874  1.122442  0.09  -0.467605  0.050976  1.436947  0.059  -0.495909  0.039733  1.411531  0.047  -0.263857  -0.448527  0.058176  1.454311  0.065
Cl  Cl63  1  0.24568103  0.98689755  0.74536106  1  -0.491852  -0.080876  1.122386  -0.09  -0.467594  -0.050974  1.436899  -0.059  -0.495913  -0.039734  1.411504  -0.047  -0.263846  -0.448522  -0.058176  1.45427  -0.065
Cl  Cl64  1  0.31781938  0.12734420  0.16153391  1  -0.588998  -0.001663  0.938605  0.0  -0.542375  -0.000892  1.212868  0.001  -0.563959  -0.001249  1.189463  0.0  -0.32472  -0.525999  -0.000517  1.228298  0.001
Cl  Cl65  1  0.68218323  0.87265457  0.83846634  1  -0.588985  0.001663  0.938616  0.0  -0.54237  0.000893  1.21289  -0.001  -0.563966  0.001248  1.1895  0.0  -0.324723  -0.525994  0.000517  1.228319  -0.001
Cl  Cl66  1  0.95694849  0.36760978  0.31200538  1  -0.477066  -0.001259  1.018695  -0.001  -0.425691  -0.001334  1.296834  -0.001  -0.443599  -0.001211  1.280768  -0.001  -0.266758  -0.413255  -0.001387  1.307897  -0.001
Cl  Cl67  1  0.04305004  0.63238677  0.68799232  1  -0.477059  0.001259  1.018649  0.001  -0.425713  0.001334  1.296831  0.001  -0.44363  0.001211  1.280774  0.001  -0.266778  -0.413278  0.001387  1.307894  0.001
Cl  Cl68  1  0.15497210  0.87891326  0.41881189  1  -0.477238  0.001157  1.016955  0.001  -0.415702  0.000812  1.291015  0.001  -0.434838  0.0005  1.274439  0.0  -0.263625  -0.402007  0.001141  1.302233  0.001
Cl  Cl69  1  0.84502776  0.12108439  0.58118638  1  -0.477235  -0.001157  1.016921  -0.001  -0.415712  -0.000812  1.290993  -0.001  -0.43485  -0.000501  1.274413  0.0  -0.263629  -0.402015  -0.001141  1.302206  -0.001
