# generated using pymatgen
data_CuH5C7N2
_symmetry_space_group_name_H-M   'P 1'
_cell_length_a   26.86972323
_cell_length_b   27.31792214
_cell_length_c   28.80566530
_cell_angle_alpha   93.77227748
_cell_angle_beta   90.42959114
_cell_angle_gamma   94.48262334
_symmetry_Int_Tables_number   1
_chemical_formula_structural   CuH5C7N2
_chemical_formula_sum   'Cu12 H60 C84 N24'
_cell_volume   21032.03249393
_cell_formula_units_Z   12
loop_
 _symmetry_equiv_pos_site_id
 _symmetry_equiv_pos_as_xyz
  1  'x, y, z'
loop_
 _atom_site_type_symbol
 _atom_site_label
 _atom_site_symmetry_multiplicity
 _atom_site_fract_x
 _atom_site_fract_y
 _atom_site_fract_z
 _atom_site_occupancy
 _atom_site_pbe_bader_charge
 _atom_site_pbe_bader_spin_density
 _atom_site_pbe_cm5_charge
 _atom_site_pbe_ddec_charge
 _atom_site_pbe_ddec_spin_density
 _atom_site_pbe_ddec_sum_bond_order
 _atom_site_pbe_magmom
Cu  Cu0  1  0.43565377  0.35291140  0.38988615  1  0.541605  0  0.484975  0.203798  0  2.126481  0
Cu  Cu1  1  0.37111959  0.40904161  0.32043748  1  0.543241  0  0.483879  0.206512  0  2.110725  0
Cu  Cu2  1  0.33484963  0.39222700  0.42268924  1  0.541067  0  0.48495  0.202232  0  2.133646  0
Cu  Cu3  1  0.05930071  0.84457293  0.62349805  1  0.541319  0  0.483941  0.202111  0  2.126378  0
Cu  Cu4  1  0.10757769  0.94492121  0.66938053  1  0.539785  0  0.482289  0.202895  0  2.113393  0
Cu  Cu5  1  0.15635741  0.89538213  0.57867546  1  0.542961  0  0.484427  0.205222  0  2.111042  0
Cu  Cu6  1  0.58343120  0.15081642  0.86977567  1  0.542117  0  0.483752  0.203751  0  2.114595  0
Cu  Cu7  1  0.61561913  0.04797698  0.82785456  1  0.540115  0  0.483731  0.202362  0  2.120168  0
Cu  Cu8  1  0.67648932  0.10393931  0.91270425  1  0.54169  0  0.483711  0.203537  0  2.118211  0
Cu  Cu9  1  0.91881139  0.68467834  0.14160365  1  0.540459  0  0.481028  0.202206  0  2.114706  0
Cu  Cu10  1  0.88201633  0.57946576  0.17246135  1  0.541847  0  0.48642  0.201561  0  2.136366  0
Cu  Cu11  1  0.85347487  0.61019819  0.07269985  1  0.541778  0  0.485818  0.20601  0  2.121255  0
H  H12  1  0.53683253  0.35078764  0.33384989  1  0.088274  0  0.120204  0.113364  0  0.987214  0
H  H13  1  0.43956508  0.40315616  0.23051642  1  0.091071  0  0.120163  0.111569  0  0.99022  0
H  H14  1  0.30766210  0.32273565  0.50493118  1  0.079001  0  0.120599  0.113071  0  0.986543  0
H  H15  1  0.45124017  0.27348365  0.46369003  1  0.094794  0  0.12049  0.111826  0  0.990248  0
H  H16  1  0.28629864  0.47493275  0.28645270  1  0.112672  0  0.120415  0.112968  0  0.986364  0
H  H17  1  0.25250475  0.46939141  0.43295883  1  0.08181  0  0.119673  0.11108  0  0.990579  0
H  H18  1  0.97580988  0.81790874  0.69749619  1  0.100617  0  0.119895  0.111151  0  0.989865  0
H  H19  1  0.03113935  0.96378355  0.75212816  1  0.13257  0  0.120109  0.112637  0  0.987588  0
H  H20  1  0.17207123  0.81738196  0.49345751  1  0.066884  0  0.119959  0.111943  0  0.990544  0
H  H21  1  0.03233851  0.75696093  0.54812194  1  0.060537  0  0.119738  0.112479  0  0.987517  0
H  H22  1  0.18805455  0.03410972  0.69344872  1  0.083205  0  0.120132  0.113015  0  0.987945  0
H  H23  1  0.25037334  0.97111853  0.56692388  1  0.093752  0  0.119904  0.111485  0  0.991663  0
H  H24  1  0.50515100  0.17401980  0.79227279  1  0.127093  0  0.119581  0.111009  0  0.990138  0
H  H25  1  0.53570671  0.02545273  0.74558766  1  0.115867  0  0.120228  0.112853  0  0.988156  0
H  H26  1  0.70754127  0.18443659  0.99442040  1  0.095753  0  0.120522  0.113024  0  0.987188  0
H  H27  1  0.57145487  0.23987976  0.94486507  1  0.078726  0  0.12028  0.111345  0  0.992076  0
H  H28  1  0.68050091  0.95692743  0.80753401  1  0.087575  0  0.120382  0.113201  0  0.9878  0
H  H29  1  0.76344257  0.03280352  0.92400785  1  0.086195  0  0.119726  0.110941  0  0.992183  0
H  H30  1  0.00075432  0.71796910  0.22059733  1  0.06193  0  0.120559  0.112985  0  0.988751  0
H  H31  1  0.95467109  0.57043388  0.25838760  1  0.11037  0  0.12033  0.111584  0  0.991599  0
H  H32  1  0.84599822  0.67470296  0.98552789  1  0.080526  0  0.119864  0.111029  0  0.990556  0
H  H33  1  0.91234885  0.78348066  0.08868307  1  0.100556  0  0.119898  0.112715  0  0.987362  0
H  H34  1  0.80163379  0.48877755  0.18230890  1  0.093399  0  0.120775  0.111803  0  0.990843  0
H  H35  1  0.77872187  0.51873628  0.03813409  1  0.06419  0  0.120344  0.112503  0  0.987549  0
H  H36  1  0.92198073  0.78110554  0.86153761  1  0.037451  0  0.096178  0.098441  0  1.005654  0
H  H37  1  0.82016791  0.85566669  0.95102616  1  0.038306  0  0.097025  0.099568  0  1.012758  0
H  H38  1  0.86381279  0.91485969  0.82123244  1  0.055592  0  0.096025  0.096367  0  1.02378  0
H  H39  1  0.62812675  0.41911640  0.19190962  1  0.059543  0  0.096284  0.097551  0  1.015872  0
H  H40  1  0.68810683  0.35691139  0.06502591  1  0.022313  0  0.095975  0.096361  0  1.024523  0
H  H41  1  0.53942200  0.30926387  0.10665157  1  0.046989  0  0.096444  0.099035  0  1.006196  0
H  H42  1  0.06916504  0.69008449  0.37879369  1  0.060465  0  0.096414  0.096956  0  1.026288  0
H  H43  1  0.19852779  0.63647033  0.44132869  1  0.034512  0  0.09669  0.099063  0  1.006365  0
H  H44  1  0.12170795  0.55205525  0.32705022  1  0.061158  0  0.096484  0.097674  0  1.014706  0
H  H45  1  0.37587456  0.07998522  0.67131249  1  0.061382  0  0.096516  0.097324  0  1.024368  0
H  H46  1  0.33465175  0.14743320  0.54716536  1  0.04302  0  0.096347  0.098604  0  1.013183  0
H  H47  1  0.46356318  0.20731743  0.62768433  1  0.027305  0  0.09674  0.099402  0  1.00596  0
H  H48  1  0.94433475  0.92459970  0.79497782  1  0.030389  0  0.09938  0.099965  0  0.997162  0
H  H49  1  0.94235089  0.81175103  0.78435672  1  0.070348  0  0.096108  0.097947  0  0.999075  0
H  H50  1  0.58325968  0.37765022  0.24824056  1  0.034224  0  0.099044  0.098959  0  0.997623  0
H  H51  1  0.50102602  0.35553662  0.17330145  1  0.065054  0  0.096793  0.098011  0  0.99883  0
H  H52  1  0.04455046  0.69008531  0.30365859  1  0.068398  0  0.099661  0.100314  0  0.996111  0
H  H53  1  0.04380954  0.57720044  0.29725141  1  0.061233  0  0.096233  0.097907  0  0.999693  0
H  H54  1  0.45302237  0.06493380  0.70003232  1  0.060338  0  0.099922  0.101425  0  0.996045  0
H  H55  1  0.48049909  0.17649185  0.70327117  1  0.070558  0  0.095905  0.096309  0  1.000076  0
H  H56  1  0.87065950  0.82103084  0.00586399  1  0.065671  0  0.098956  0.098967  0  0.997451  0
H  H57  1  0.88489957  0.74022798  0.92874227  1  0.042722  0  0.096303  0.097169  0  1.000221  0
H  H58  1  0.33227481  0.23313516  0.54080712  1  0.05627  0  0.099529  0.099686  0  0.995984  0
H  H59  1  0.44669659  0.23615938  0.54786883  1  0.027458  0  0.09715  0.099083  0  0.997444  0
H  H60  1  0.68370715  0.27489020  0.03877292  1  0.069637  0  0.099223  0.100044  0  0.996505  0
H  H61  1  0.57012313  0.28015617  0.03056269  1  0.005626  0  0.096523  0.098186  0  0.999025  0
H  H62  1  0.06035779  0.71475829  0.45869907  1  0.063079  0  0.099591  0.100878  0  0.994532  0
H  H63  1  0.17502856  0.72124255  0.46292400  1  0.040981  0  0.096874  0.098729  0  0.998265  0
H  H64  1  0.77577035  0.92304732  0.82519431  1  0.059032  0  0.099356  0.099934  0  0.995077  0
H  H65  1  0.79680609  0.94122205  0.93020514  1  0.058064  0  0.096975  0.099758  0  0.997116  0
H  H66  1  0.19994763  0.52408846  0.31755181  1  0.052522  0  0.099611  0.100122  0  0.997142  0
H  H67  1  0.22163655  0.55496073  0.42075991  1  0.04275  0  0.095903  0.095522  0  1.001441  0
H  H68  1  0.28768530  0.07076869  0.67265172  1  0.039435  0  0.099529  0.100435  0  0.994492  0
H  H69  1  0.29495920  0.06408227  0.56597900  1  0.070691  0  0.097448  0.100388  0  0.995874  0
H  H70  1  0.72416088  0.43459705  0.06571314  1  0.036975  0  0.099484  0.100171  0  0.99737  0
H  H71  1  0.71274378  0.44357735  0.17201320  1  0.031602  0  0.096117  0.097685  0  0.999261  0
C  C72  1  0.50664922  0.36402484  0.31407586  1  0.368633  0  0.004965  -0.061062  0  3.955217  0
C  C73  1  0.50528655  0.37556551  0.26726557  1  0.061359  0  -0.040451  0.015001  0  4.130249  0
C  C74  1  0.45659035  0.38972990  0.26101099  1  0.371413  0  0.006437  -0.055522  0  3.94721  0
C  C75  1  0.34356034  0.31676815  0.48939327  1  0.42503  0  0.005415  -0.059203  0  3.95407  0
C  C76  1  0.37752116  0.28212964  0.49933629  1  0.019271  0  -0.039284  0.015717  0  4.12685  0
C  C77  1  0.41734206  0.29216179  0.46905196  1  0.393436  0  0.00626  -0.054921  0  3.944356  0
C  C78  1  0.28404652  0.46790298  0.32307044  1  0.348306  0  0.004521  -0.059978  0  3.953373  0
C  C79  1  0.25302382  0.48742899  0.35754552  1  0.039932  0  -0.039209  0.016136  0  4.128037  0
C  C80  1  0.26746068  0.46589876  0.39810082  1  0.428228  0  0.00611  -0.056757  0  3.946227  0
C  C81  1  0.99567925  0.85365109  0.70545314  1  0.411656  0  0.006872  -0.054265  0  3.942533  0
C  C82  1  0.98770597  0.88978831  0.74116185  1  0.015552  0  -0.040029  0.014644  0  4.12706  0
C  C83  1  0.02350818  0.92849719  0.73275989  1  0.342003  0  0.006019  -0.059454  0  3.953861  0
C  C84  1  0.13877434  0.80841704  0.51327221  1  0.397312  0  0.005926  -0.057916  0  3.946923  0
C  C85  1  0.10118820  0.76996498  0.50490132  1  0.093196  0  -0.040459  0.014257  0  4.128755  0
C  C86  1  0.06690168  0.77813194  0.54065923  1  0.417946  0  0.004757  -0.060309  0  3.956148  0
C  C87  1  0.19659607  0.01255970  0.66189780  1  0.422231  0  0.00419  -0.062663  0  3.956498  0
C  C88  1  0.23700623  0.01932577  0.63163502  1  0.01142  0  -0.039967  0.01632  0  4.126567  0
C  C89  1  0.22796918  0.98102790  0.59679081  1  0.384315  0  0.006029  -0.055912  0  3.946408  0
C  C90  1  0.51902176  0.13788129  0.78646305  1  0.349087  0  0.006265  -0.056387  0  3.946113  0
C  C91  1  0.50529143  0.10026252  0.75195986  1  0.041897  0  -0.040647  0.013443  0  4.128162  0
C  C92  1  0.53393587  0.06165596  0.76318630  1  0.378144  0  0.004975  -0.059215  0  3.95489  0
C  C93  1  0.67360427  0.19174819  0.97629654  1  0.360428  0  0.004707  -0.060488  0  3.954623  0
C  C94  1  0.64123097  0.22904736  0.98600551  1  0.076062  0  -0.039975  0.015309  0  4.127628  0
C  C95  1  0.60369759  0.21967702  0.95150531  1  0.400255  0  0.006131  -0.055375  0  3.943509  0
C  C96  1  0.69495761  0.98152627  0.83649947  1  0.417252  0  0.005111  -0.061025  0  3.954266  0
C  C97  1  0.73747777  0.97850207  0.86461240  1  -0.015191  0  -0.040905  0.013623  0  4.130391  0
C  C98  1  0.73686793  0.01968489  0.89654551  1  0.425713  0  0.006769  -0.055124  0  3.946626  0
C  C99  1  0.98338307  0.68114892  0.22391012  1  0.467544  0  0.005664  -0.059305  0  3.955049  0
C  C100  1  0.99418007  0.64632624  0.25564603  1  0.026947  0  -0.040104  0.014184  0  4.130565  0
C  C101  1  0.96057984  0.60547632  0.24275998  1  0.368014  0  0.006002  -0.055999  0  3.945028  0
C  C102  1  0.86382010  0.69498156  0.01565112  1  0.384258  0  0.00638  -0.055314  0  3.948859  0
C  C103  1  0.87794240  0.74561257  0.02277986  1  0.04032  0  -0.040492  0.015665  0  4.126617  0
C  C104  1  0.89673212  0.75070172  0.06869651  1  0.400512  0  0.005391  -0.059905  0  3.952586  0
C  C105  1  0.80166541  0.50290535  0.14796318  1  0.435709  0  0.006178  -0.055642  0  3.941927  0
C  C106  1  0.77343808  0.48599390  0.10792222  1  0.040719  0  -0.039515  0.015757  0  4.13182  0
C  C107  1  0.79070140  0.51787477  0.07412779  1  0.405087  0  0.005879  -0.059276  0  3.95726  0
C  C108  1  0.89772692  0.84855834  0.83704279  1  0.030999  0  -0.016546  0.121196  0  4.086611  0
C  C109  1  0.89836033  0.81149341  0.86858217  1  -0.076444  0  -0.094875  -0.192819  0  3.915478  0
C  C110  1  0.87220787  0.81442765  0.91063004  1  0.013526  0  -0.018081  0.119845  0  4.085809  0
C  C111  1  0.84252490  0.85404800  0.91954993  1  -0.017773  0  -0.095351  -0.192488  0  3.913161  0
C  C112  1  0.83785017  0.88940128  0.88683650  1  -0.019316  0  -0.017055  0.11887  0  4.084965  0
C  C113  1  0.86632473  0.88674865  0.84618830  1  -0.077963  0  -0.097033  -0.194996  0  3.913726  0
C  C114  1  0.57943449  0.36345099  0.15393477  1  -0.006961  0  -0.017033  0.120623  0  4.093346  0
C  C115  1  0.62435854  0.39283838  0.16161618  1  -0.083355  0  -0.0956  -0.193159  0  3.917799  0
C  C116  1  0.66315430  0.39205785  0.12923899  1  -0.016292  0  -0.017449  0.120143  0  4.093982  0
C  C117  1  0.65782814  0.35863155  0.08996754  1  0.000102  0  -0.095963  -0.193061  0  3.909881  0
C  C118  1  0.61372918  0.32808550  0.08175848  1  -0.032668  0  -0.017366  0.120829  0  4.089113  0
C  C119  1  0.57414136  0.33244244  0.11306233  1  -0.051845  0  -0.095298  -0.1942  0  3.915904  0
C  C120  1  0.09184811  0.62106567  0.34790222  1  0.011877  0  -0.017138  0.120134  0  4.086625  0
C  C121  1  0.09606101  0.66227954  0.38006073  1  -0.078556  0  -0.095933  -0.192596  0  3.910956  0
C  C122  1  0.13397977  0.66803528  0.41416219  1  0.022969  0  -0.017484  0.119786  0  4.091005  0
C  C123  1  0.16865318  0.63217936  0.41508384  1  -0.052013  0  -0.09501  -0.193444  0  3.920421  0
C  C124  1  0.16514862  0.59026664  0.38390878  1  -0.03099  0  -0.018314  0.119145  0  4.094146  0
C  C125  1  0.12592487  0.58489512  0.35095127  1  -0.045587  0  -0.094795  -0.190788  0  3.91017  0
C  C126  1  0.42408708  0.14316730  0.65396089  1  -0.05304  0  -0.017839  0.118482  0  4.091546  0
C  C127  1  0.38255640  0.10879090  0.64708936  1  -0.039881  0  -0.096185  -0.192606  0  3.911264  0
C  C128  1  0.34977389  0.11025420  0.60909171  1  0.013451  0  -0.016252  0.120537  0  4.085354  0
C  C129  1  0.35921224  0.14679674  0.57746246  1  -0.052808  0  -0.09501  -0.192797  0  3.91361  0
C  C130  1  0.39944248  0.18267489  0.58424378  1  -0.027598  0  -0.017824  0.12043  0  4.090844  0
C  C131  1  0.43168908  0.18007108  0.62242997  1  -0.004991  0  -0.09565  -0.194347  0  3.923619  0
C  C132  1  0.95248742  0.88869105  0.77898315  1  -0.021772  0  -0.095845  -0.116938  0  4.051732  0
C  C133  1  0.93136766  0.84786125  0.79733774  1  -0.08657  0  -0.101284  -0.150352  0  4.013082  0
C  C134  1  0.54521659  0.37311119  0.23388432  1  -0.047742  0  -0.096112  -0.11841  0  4.052961  0
C  C135  1  0.53884523  0.36440631  0.18741673  1  -0.007709  0  -0.10093  -0.148552  0  4.017039  0
C  C136  1  0.03191618  0.65213599  0.29216672  1  -0.112636  0  -0.096393  -0.116995  0  4.055281  0
C  C137  1  0.05349665  0.61502658  0.31126161  1  -0.039302  0  -0.101913  -0.151774  0  4.019885  0
C  C138  1  0.47044387  0.10071118  0.71334620  1  -0.084403  0  -0.096282  -0.118747  0  4.049643  0
C  C139  1  0.45968899  0.14149581  0.69235312  1  -0.046184  0  -0.100965  -0.147743  0  4.016745  0
C  C140  1  0.87443605  0.78380543  0.99050437  1  -0.079789  0  -0.096283  -0.119306  0  4.052167  0
C  C141  1  0.87684373  0.77661169  0.94373352  1  -0.019396  0  -0.100907  -0.14902  0  4.018644  0
C  C142  1  0.37093796  0.24426631  0.53215396  1  -0.088149  0  -0.097449  -0.121136  0  4.06033  0
C  C143  1  0.40783929  0.22252644  0.55295103  1  0.014156  0  -0.100487  -0.148648  0  4.015519  0
C  C144  1  0.64617282  0.26691042  0.02375261  1  -0.080969  0  -0.09608  -0.117929  0  4.053469  0
C  C145  1  0.60835278  0.29087180  0.04279014  1  0.028234  0  -0.101907  -0.151344  0  4.017378  0
C  C146  1  0.09800596  0.72997400  0.46904525  1  -0.031752  0  -0.096088  -0.118673  0  4.054234  0
C  C147  1  0.13747956  0.70907059  0.44967231  1  -0.103208  0  -0.100287  -0.148894  0  4.018729  0
C  C148  1  0.77318046  0.94141920  0.85994747  1  -0.003424  0  -0.095341  -0.116469  0  4.054249  0
C  C149  1  0.80188661  0.92674366  0.89432832  1  -0.086703  0  -0.101305  -0.150447  0  4.008921  0
C  C150  1  0.21604886  0.52263209  0.35238946  1  -0.111719  0  -0.096763  -0.119289  0  4.049326  0
C  C151  1  0.20219954  0.55423252  0.38712298  1  0.038889  0  -0.100877  -0.147436  0  4.01849  0
C  C152  1  0.27864903  0.05641841  0.63695152  1  -0.019652  0  -0.096808  -0.119598  0  4.057032  0
C  C153  1  0.30617913  0.07475373  0.60209894  1  -0.054179  0  -0.101554  -0.151252  0  4.01714  0
C  C154  1  0.73369187  0.44718501  0.10176706  1  -0.090422  0  -0.096699  -0.118082  0  4.056458  0
C  C155  1  0.70590516  0.42830939  0.13620676  1  0.027452  0  -0.101822  -0.150252  0  4.019124  0
N  N156  1  0.43107123  0.38658365  0.30095846  1  -0.766765  0  -0.337944  -0.142388  0  3.768285  0
N  N157  1  0.46208693  0.37024686  0.33386695  1  -0.779654  0  -0.340268  -0.141574  0  3.772976  0
N  N158  1  0.40760444  0.32979064  0.44325529  1  -0.778134  0  -0.338014  -0.140108  0  3.769919  0
N  N159  1  0.36189612  0.34530520  0.45609771  1  -0.7746  0  -0.341198  -0.142599  0  3.778492  0
N  N160  1  0.30427077  0.43621323  0.38837694  1  -0.78934  0  -0.338331  -0.137801  0  3.774717  0
N  N161  1  0.31487969  0.43766110  0.34180654  1  -0.770472  0  -0.339419  -0.144793  0  3.770128  0
N  N162  1  0.05091061  0.91610187  0.69541408  1  -0.773713  0  -0.339175  -0.142241  0  3.771221  0
N  N163  1  0.03330744  0.86974890  0.67826617  1  -0.76737  0  -0.338018  -0.139321  0  3.775668  0
N  N164  1  0.08321782  0.81785306  0.56844934  1  -0.777637  0  -0.340089  -0.141288  0  3.781446  0
N  N165  1  0.12762788  0.83696609  0.55116588  1  -0.772835  0  -0.337228  -0.139326  0  3.769421  0
N  N166  1  0.18555151  0.95376960  0.60581061  1  -0.776892  0  -0.337683  -0.14164  0  3.774339  0
N  N167  1  0.16580204  0.97360163  0.64607344  1  -0.770831  0  -0.338688  -0.139994  0  3.773779  0
N  N168  1  0.56285874  0.07551108  0.80096867  1  -0.775943  0  -0.338915  -0.142495  0  3.775471  0
N  N169  1  0.55323352  0.12273575  0.81564737  1  -0.77569  0  -0.337842  -0.138958  0  3.774716  0
N  N170  1  0.61313666  0.17988915  0.92373666  1  -0.772968  0  -0.336797  -0.138647  0  3.771926  0
N  N171  1  0.65636532  0.16226393  0.93936259  1  -0.780186  0  -0.33976  -0.142988  0  3.778551  0
N  N172  1  0.69707268  0.04502136  0.88793317  1  -0.787887  0  -0.338334  -0.140615  0  3.773514  0
N  N173  1  0.67080359  0.02110215  0.85086688  1  -0.769939  0  -0.339465  -0.13967  0  3.774113  0
N  N174  1  0.93235597  0.61541402  0.20621579  1  -0.774387  0  -0.338674  -0.137563  0  3.781559  0
N  N175  1  0.94666734  0.66231819  0.19426233  1  -0.776155  0  -0.338685  -0.14235  0  3.772259  0
N  N176  1  0.89452776  0.70646248  0.08712627  1  -0.777973  0  -0.338928  -0.142391  0  3.770768  0
N  N177  1  0.87369308  0.67191536  0.05422942  1  -0.771924  0  -0.338651  -0.141695  0  3.773467  0
N  N178  1  0.82595238  0.55142042  0.09270769  1  -0.770662  0  -0.341312  -0.14396  0  3.773688  0
N  N179  1  0.83292894  0.54187007  0.13850060  1  -0.796375  0  -0.338464  -0.137782  0  3.778045  0
