# generated using pymatgen
data_FeCu2H20(C6N5)2
_symmetry_space_group_name_H-M   'P 1'
_cell_length_a   7.65879038
_cell_length_b   9.92662159
_cell_length_c   12.70488307
_cell_angle_alpha   89.99970856
_cell_angle_beta   89.08490588
_cell_angle_gamma   90.00008643
_symmetry_Int_Tables_number   1
_chemical_formula_structural   FeCu2H20(C6N5)2
_chemical_formula_sum   'Fe2 Cu4 H40 C24 N20'
_cell_volume   965.77715594
_cell_formula_units_Z   2
loop_
 _symmetry_equiv_pos_site_id
 _symmetry_equiv_pos_as_xyz
  1  'x, y, z'
loop_
 _atom_site_type_symbol
 _atom_site_label
 _atom_site_symmetry_multiplicity
 _atom_site_fract_x
 _atom_site_fract_y
 _atom_site_fract_z
 _atom_site_occupancy
 _atom_site_hle17_ddec_charge
 _atom_site_hle17_ddec_spin_density
 _atom_site_hle17_ddec_sum_bond_order
 _atom_site_hle17_magmom
 _atom_site_hse06_10hf_ddec_charge
 _atom_site_hse06_10hf_ddec_spin_density
 _atom_site_hse06_10hf_ddec_sum_bond_order
 _atom_site_hse06_10hf_magmom
 _atom_site_hse06_ddec_charge
 _atom_site_hse06_ddec_spin_density
 _atom_site_hse06_ddec_sum_bond_order
 _atom_site_hse06_magmom
 _atom_site_pbe_cm5_charge
 _atom_site_pbe_ddec_charge
 _atom_site_pbe_ddec_spin_density
 _atom_site_pbe_ddec_sum_bond_order
 _atom_site_pbe_magmom
Fe  Fe0  1  0.99999775  0.49999723  0.99999736  1  -0.112497  -0.000262  4.950942  0.0  -0.053489  -1.1e-05  5.370027  0.0  -0.089354  -1e-05  5.380528  0.0  0.442035  -0.01913  -6e-06  5.349745  0.0
Fe  Fe1  1  0.50000490  0.00000570  0.50001020  1  -0.112106  0.000423  4.950912  0.0  -0.053508  2.6e-05  5.370198  0.0  -0.089334  1.1e-05  5.380681  0.0  0.442  -0.019092  1.6e-05  5.349871  0.0
Cu  Cu2  1  0.51573350  0.70291859  0.81732082  1  0.842198  0.680714  2.045442  0.488  0.834372  0.802587  2.466874  0.621  0.913171  0.878107  2.400043  0.705  0.78814  0.786106  0.742287  2.512569  0.563
Cu  Cu3  1  0.98428153  0.20291224  0.68267955  1  0.842141  0.680535  2.045256  0.488  0.834484  0.802587  2.466735  0.621  0.913178  0.878095  2.399971  0.705  0.788162  0.78612  0.74238  2.512495  0.563
Cu  Cu4  1  0.48426612  0.29708158  0.18268022  1  0.842118  -0.680617  2.045401  -0.488  0.834393  -0.802589  2.466875  -0.621  0.91315  -0.878103  2.400041  -0.705  0.788143  0.786049  -0.742358  2.512609  -0.563
Cu  Cu5  1  0.01572330  0.79708793  0.31732225  1  0.842369  -0.680739  2.045297  -0.488  0.834563  -0.802595  2.466709  -0.621  0.91323  -0.878105  2.400052  -0.705  0.788227  0.786305  -0.742342  2.512385  -0.563
H  H6  1  0.72534578  0.55144749  0.72730568  1  0.286938  -0.000879  0.885684  -0.002  0.285979  0.000556  0.932811  0.0  0.290301  0.000161  0.932622  -0.001  0.303862  0.2826  0.000882  0.933784  0.0
H  H7  1  0.77466377  0.05143234  0.77268747  1  0.286978  -0.000879  0.885591  -0.002  0.285944  0.000558  0.932822  0.0  0.290264  0.000162  0.932633  -0.001  0.303896  0.282566  0.000883  0.933779  0.0
H  H8  1  0.27465262  0.44855570  0.27269064  1  0.286941  0.000876  0.885642  0.002  0.285973  -0.000557  0.93279  0.0  0.290293  -0.000161  0.932603  0.001  0.303857  0.282591  -0.000882  0.933761  0.0
H  H9  1  0.22533726  0.94856279  0.22730727  1  0.286996  0.000875  0.885609  0.002  0.285934  -0.000558  0.932868  0.0  0.290255  -0.000162  0.932677  0.001  0.303896  0.282562  -0.000884  0.933826  0.0
H  H10  1  0.59662744  0.45399110  0.79739776  1  0.307009  -0.000556  0.858502  -0.002  0.308458  0.00077  0.898824  0.0  0.31241  0.000389  0.899454  0.0  0.314784  0.305383  0.001048  0.899122  0.0
H  H11  1  0.90339874  0.95398842  0.70259838  1  0.30691  -0.00055  0.858637  -0.002  0.308386  0.00077  0.898913  0.0  0.312336  0.00039  0.899543  0.0  0.314752  0.30531  0.001048  0.899212  0.0
H  H12  1  0.40337483  0.54600907  0.20260090  1  0.30694  0.00055  0.858551  0.002  0.308412  -0.000771  0.898841  0.0  0.312364  -0.00039  0.89947  0.0  0.314808  0.305339  -0.001048  0.899141  0.0
H  H13  1  0.09661269  0.04601175  0.29739947  1  0.306929  0.000553  0.858634  0.002  0.308402  -0.00077  0.898907  0.0  0.312353  -0.000389  0.899533  0.0  0.314751  0.305322  -0.001048  0.89921  0.0
H  H14  1  0.96622323  0.35716458  0.53276519  1  0.293221  -0.00116  0.890593  -0.002  0.291016  -2e-06  0.937829  0.0  0.296399  -0.000215  0.935482  -0.001  0.302853  0.286937  0.000205  0.940208  0.0
H  H15  1  0.53377510  0.85715489  0.96724169  1  0.293226  -0.001158  0.890687  -0.002  0.291032  -2e-06  0.937899  0.0  0.296419  -0.000215  0.935549  -0.001  0.302873  0.286961  0.000205  0.940282  0.0
H  H16  1  0.03376980  0.64283962  0.46723981  1  0.293183  0.001163  0.890632  0.002  0.290965  2e-06  0.93787  0.0  0.296348  0.000214  0.935525  0.001  0.302843  0.286895  -0.000206  0.94025  0.0
H  H17  1  0.46623110  0.14284729  0.03275618  1  0.293183  0.001159  0.890734  0.002  0.290992  2e-06  0.937945  0.0  0.296379  0.000214  0.935592  0.001  0.302842  0.286912  -0.000205  0.940323  0.0
H  H18  1  0.97729384  0.44962974  0.64123910  1  0.284433  -0.000721  0.88995  -0.002  0.285452  0.000706  0.934503  0.0  0.290514  0.000288  0.932952  -0.001  0.302969  0.281744  0.001049  0.936091  0.0
H  H19  1  0.52271376  0.94962476  0.85877445  1  0.284492  -0.000722  0.88999  -0.002  0.285528  0.000705  0.934509  0.0  0.290591  0.000286  0.932961  -0.001  0.303042  0.28182  0.001048  0.936096  0.0
H  H20  1  0.02270309  0.55037143  0.35876668  1  0.284485  0.000718  0.889945  0.002  0.285504  -0.000706  0.934493  0.0  0.29057  -0.000287  0.932933  0.001  0.303005  0.281795  -0.001049  0.936083  0.0
H  H21  1  0.47728593  0.05037541  0.14122265  1  0.284427  0.000718  0.890047  0.002  0.285478  -0.000705  0.934546  0.0  0.290538  -0.000286  0.933  0.001  0.30302  0.28177  -0.001047  0.936136  0.0
H  H22  1  0.57685481  0.40859557  0.60659203  1  0.059266  0.005821  0.966914  0.008  0.074828  0.004133  1.032579  0.006  0.073221  0.002754  1.033917  0.004  0.096281  0.075825  0.005162  1.031492  0.007
H  H23  1  0.92314512  0.90858367  0.89340519  1  0.05929  0.005808  0.966684  0.008  0.074821  0.004134  1.032386  0.006  0.073214  0.002754  1.033729  0.004  0.096306  0.075831  0.005161  1.031286  0.007
H  H24  1  0.42313962  0.59140560  0.39340746  1  0.059263  -0.005818  0.966863  -0.008  0.074837  -0.004133  1.032522  -0.006  0.073229  -0.002754  1.033866  -0.004  0.096287  0.075844  -0.00516  1.031432  -0.007
H  H25  1  0.07684934  0.09141247  0.10659194  1  0.059348  -0.005828  0.966703  -0.008  0.074846  -0.004133  1.03244  -0.006  0.073239  -0.002754  1.033778  -0.004  0.096286  0.075846  -0.005161  1.031349  -0.007
H  H26  1  0.50181183  0.57921153  0.59543332  1  0.059927  0.000832  0.93821  0.001  0.07774  0.000748  1.00102  0.001  0.076101  0.000481  1.003462  0.001  0.103603  0.078652  0.000946  0.999479  0.001
H  H27  1  0.99819503  0.07919978  0.90456917  1  0.059954  0.000814  0.938191  0.001  0.0778  0.000748  1.000938  0.001  0.076155  0.000481  1.003393  0.001  0.103612  0.078706  0.000946  0.999393  0.001
H  H28  1  0.49818915  0.42078965  0.40456457  1  0.059898  -0.00082  0.938262  -0.001  0.077752  -0.000748  1.001024  -0.001  0.076112  -0.000481  1.003469  -0.001  0.103592  0.078652  -0.000946  0.999481  -0.001
H  H29  1  0.00180329  0.92079636  0.09543187  1  0.059933  -0.00082  0.938218  -0.001  0.077798  -0.000748  1.000939  -0.001  0.076152  -0.000481  1.003396  -0.001  0.103619  0.078706  -0.000946  0.999399  -0.001
H  H30  1  0.25110475  0.52097974  0.71882016  1  0.081058  -0.000153  0.943289  0.0  0.097711  -0.000137  1.001331  0.0  0.097352  -0.000176  1.002748  0.0  0.096997  0.097683  -7.8e-05  1.00073  0.0
H  H31  1  0.24890047  0.02096452  0.78118001  1  0.081075  -0.000149  0.943442  0.0  0.097753  -0.000137  1.001383  0.0  0.097395  -0.000176  1.002797  0.0  0.097023  0.097723  -7.8e-05  1.00077  0.0
H  H32  1  0.74889228  0.47902949  0.28118010  1  0.081011  0.000139  0.943429  0.0  0.097702  0.000137  1.001424  0.0  0.097343  0.000176  1.002841  0.0  0.097006  0.09767  7.8e-05  1.000818  0.0
H  H33  1  0.75109922  0.97903464  0.21881709  1  0.081025  0.000144  0.943518  0.0  0.097719  0.000137  1.001455  0.0  0.09736  0.000176  1.002869  0.0  0.097005  0.097691  7.8e-05  1.000852  0.0
H  H34  1  0.32202656  0.35195650  0.72115602  1  0.082392  -0.000236  0.917414  0.0  0.099429  -0.000213  0.974203  0.0  0.099138  -0.000219  0.975408  0.0  0.099339  0.099239  -0.00019  0.973864  0.0
H  H35  1  0.17797552  0.85193704  0.77884672  1  0.08242  -0.000234  0.917335  0.0  0.099493  -0.000213  0.974037  0.0  0.099202  -0.00022  0.975241  0.0  0.099365  0.099307  -0.000189  0.97371  0.0
H  H36  1  0.67796783  0.64805072  0.27884582  1  0.082414  0.000231  0.917276  0.0  0.099466  0.000213  0.974067  0.0  0.099175  0.00022  0.975268  0.0  0.099379  0.099284  0.000189  0.973738  0.0
H  H37  1  0.82202016  0.14805205  0.22115590  1  0.082423  0.000239  0.917331  0.0  0.099476  0.000213  0.974065  0.0  0.099183  0.00022  0.975269  0.0  0.099338  0.099288  0.000189  0.973727  0.0
H  H38  1  0.27960113  0.33073033  0.52812003  1  0.074895  0.000431  0.929197  0.001  0.094786  0.000417  0.984715  0.001  0.0932  0.000274  0.98724  0.0  0.111032  0.095543  0.000527  0.983219  0.001
H  H39  1  0.22040351  0.83071977  0.97188279  1  0.074819  0.000415  0.929186  0.001  0.094717  0.000417  0.984716  0.001  0.093129  0.000274  0.987245  0.0  0.111033  0.095484  0.000527  0.983221  0.001
H  H40  1  0.72039590  0.66927186  0.47188023  1  0.074904  -0.000409  0.929194  -0.001  0.094774  -0.000417  0.984707  -0.001  0.093189  -0.000274  0.987232  0.0  0.111042  0.095543  -0.000527  0.98321  -0.001
H  H41  1  0.77959997  0.16927939  0.02812138  1  0.074828  -0.00043  0.929204  -0.001  0.094709  -0.000417  0.984734  -0.001  0.093121  -0.000274  0.987261  0.0  0.111023  0.095472  -0.000527  0.983236  -0.001
H  H42  1  0.22418888  0.50455784  0.52114527  1  0.033837  0.005223  0.95254  0.007  0.051955  0.003777  1.018238  0.005  0.050896  0.002644  1.018552  0.004  0.093958  0.052481  0.004581  1.018287  0.006
H  H43  1  0.27580844  0.00454342  0.97885578  1  0.033822  0.005213  0.952533  0.007  0.051901  0.003777  1.018289  0.005  0.050844  0.002644  1.018596  0.004  0.093931  0.052424  0.004582  1.018336  0.006
H  H44  1  0.77580294  0.49544938  0.47885422  1  0.033839  -0.005212  0.952506  -0.007  0.051893  -0.003777  1.01826  -0.005  0.050835  -0.002645  1.018572  -0.004  0.093906  0.05241  -0.004582  1.018306  -0.006
H  H45  1  0.72419643  0.99545977  0.02114366  1  0.033765  -0.005209  0.952668  -0.007  0.051899  -0.003778  1.01833  -0.005  0.050842  -0.002645  1.018638  -0.004  0.093923  0.052418  -0.004582  1.01838  -0.006
C  C46  1  0.85985519  0.62958023  0.93469686  1  0.112379  -5.9e-05  3.546804  0.001  0.083683  0.001143  3.878654  0.002  0.101055  0.000503  3.887137  0.001  0.007785  0.069918  0.001568  3.870872  0.002
C  C47  1  0.64014271  0.12957230  0.56530230  1  0.112179  -4.2e-05  3.54622  0.001  0.083484  0.001143  3.87813  0.002  0.100875  0.000502  3.886579  0.001  0.007601  0.069686  0.00157  3.87033  0.002
C  C48  1  0.14014312  0.37041994  0.06530497  1  0.112237  4.2e-05  3.546765  -0.001  0.083511  -0.001141  3.87866  -0.002  0.100911  -0.0005  3.887097  -0.001  0.007717  0.069736  -0.001569  3.870856  -0.002
C  C49  1  0.35985444  0.87041477  0.43469009  1  0.112323  2.5e-05  3.546456  -0.001  0.083698  -0.001139  3.878243  -0.002  0.101037  -0.0005  3.886732  -0.001  0.007842  0.069934  -0.001565  3.870475  -0.002
C  C50  1  0.20419021  0.56727778  0.93562751  1  0.130905  -0.009102  3.525702  -0.004  0.104352  -0.002601  3.84679  0.002  0.12417  -0.004005  3.854821  0.0  0.023115  0.08987  -0.001503  3.838973  0.003
C  C51  1  0.29581644  0.06728208  0.56437167  1  0.13073  -0.009103  3.525791  -0.004  0.104204  -0.002601  3.846877  0.002  0.12402  -0.004009  3.854901  0.0  0.023062  0.089694  -0.001505  3.839043  0.003
C  C52  1  0.79581204  0.43272239  0.06437273  1  0.130853  0.009058  3.525809  0.004  0.104305  0.002599  3.846903  -0.002  0.124121  0.004007  3.854934  0.0  0.023087  0.089813  0.001503  3.839066  -0.003
C  C53  1  0.70418845  0.93271909  0.43562699  1  0.130657  0.009048  3.525332  0.004  0.104138  0.002604  3.846406  -0.002  0.123953  0.004011  3.854429  0.0  0.023049  0.089636  0.001504  3.838599  -0.003
C  C54  1  0.50453755  0.49018209  0.64677240  1  0.068364  -0.000552  3.646824  -0.003  0.010721  0.001545  3.920179  -0.001  0.01753  0.000385  3.934494  -0.002  -0.077296  0.006815  0.002561  3.910251  0.0
C  C55  1  0.99546255  0.99017352  0.85322684  1  0.068295  -0.000496  3.646302  -0.003  0.010635  0.001547  3.919637  -0.001  0.017437  0.000386  3.933939  -0.002  -0.077331  0.006734  0.00256  3.909697  0.0
C  C56  1  0.49545948  0.50982010  0.35322708  1  0.0683  0.000518  3.646615  0.003  0.010607  -0.001547  3.920061  0.001  0.017412  -0.000385  3.934372  0.002  -0.077316  0.006719  -0.002559  3.910119  0.0
C  C57  1  0.00453708  0.00982363  0.14677420  1  0.068284  0.000532  3.646415  0.003  0.010635  -0.001547  3.919763  0.001  0.017438  -0.000385  3.934065  0.002  -0.077328  0.006736  -0.00256  3.909832  0.0
C  C58  1  0.31973164  0.44344599  0.67221219  1  -0.155268  0.001129  3.670431  0.002  -0.190068  0.000849  3.925436  0.001  -0.192885  0.000408  3.94194  0.001  -0.163405  -0.187984  0.001205  3.914153  0.002
C  C59  1  0.18027588  0.94343126  0.82779173  1  -0.155541  0.001109  3.670438  0.002  -0.190261  0.00085  3.925252  0.001  -0.193074  0.000409  3.941748  0.001  -0.163508  -0.1882  0.001206  3.914008  0.002
C  C60  1  0.68026668  0.55656123  0.32778886  1  -0.1552  -0.001085  3.670355  -0.002  -0.190056  -0.00085  3.925344  -0.001  -0.192872  -0.000408  3.941851  -0.001  -0.163444  -0.187977  -0.001206  3.914069  -0.002
C  C61  1  0.81972380  0.05656488  0.17220616  1  -0.155514  -0.001114  3.670522  -0.002  -0.19029  -0.000851  3.925402  -0.001  -0.193092  -0.000408  3.941878  -0.001  -0.163514  -0.188214  -0.001206  3.914138  -0.002
C  C62  1  0.22030056  0.41459556  0.57220245  1  0.083209  -0.001062  3.652731  -0.004  0.027219  0.001164  3.923991  -0.001  0.033749  0.000407  3.938738  -0.002  -0.071393  0.023265  0.001835  3.914038  -0.001
C  C63  1  0.27970684  0.91458532  0.92780395  1  0.083587  -0.001012  3.652535  -0.004  0.027527  0.001165  3.923791  -0.001  0.034058  0.000407  3.938544  -0.002  -0.071283  0.023561  0.001837  3.913851  -0.001
C  C64  1  0.77969906  0.58540864  0.42779859  1  0.083205  0.000978  3.65278  0.004  0.027317  -0.001164  3.923915  0.001  0.033842  -0.000407  3.938668  0.002  -0.071331  0.023357  -0.001836  3.913968  0.001
C  C65  1  0.72029148  0.08541384  0.07219709  1  0.083589  0.001028  3.652697  0.004  0.027579  -0.001164  3.923852  0.001  0.034109  -0.000407  3.938605  0.002  -0.071235  0.023618  -0.001836  3.913903  0.001
C  C66  1  0.03077157  0.61598868  0.11510452  1  0.123633  0.005912  3.536627  0.002  0.096961  0.00119  3.861386  -0.003  0.117098  0.002542  3.867999  -0.001  0.018205  0.082138  0.000155  3.854586  -0.004
C  C67  1  0.46923705  0.11599214  0.38489392  1  0.123636  0.005865  3.536326  0.002  0.097009  0.001194  3.861063  -0.003  0.117142  0.002544  3.867687  -0.001  0.018223  0.08216  0.000158  3.854269  -0.004
C  C68  1  0.96923065  0.38400645  0.88489730  1  0.123689  -0.005883  3.536934  -0.002  0.097004  -0.00119  3.861714  0.003  0.117137  -0.002539  3.868334  0.001  0.01813  0.082149  -0.000157  3.854928  0.004
C  C69  1  0.53076524  0.88400702  0.61510396  1  0.123515  -0.006019  3.536626  -0.002  0.096862  -0.00119  3.861391  0.003  0.117004  -0.002542  3.868015  0.001  0.018121  0.082003  -0.000155  3.85464  0.004
N  N70  1  0.76502286  0.70759679  0.89444758  1  -0.540245  0.010591  2.999848  0.015  -0.520212  0.006232  3.323826  0.009  -0.541458  0.004082  3.325773  0.007  -0.438467  -0.503821  0.007669  3.320945  0.01
N  N71  1  0.73499605  0.20760279  0.60555591  1  -0.540203  0.010598  2.998926  0.015  -0.520193  0.006232  3.322929  0.009  -0.541424  0.004083  3.324881  0.007  -0.438431  -0.503788  0.007669  3.320031  0.01
N  N72  1  0.23498200  0.29239734  0.10555265  1  -0.540141  -0.010587  2.999799  -0.015  -0.520095  -0.006237  3.323777  -0.009  -0.541347  -0.004084  3.325728  -0.007  -0.438415  -0.503686  -0.007668  3.320869  -0.01
N  N73  1  0.26502045  0.79240342  0.39445137  1  -0.540186  -0.010546  2.999927  -0.015  -0.520145  -0.006234  3.32387  -0.009  -0.541354  -0.004082  3.32583  -0.007  -0.438402  -0.503762  -0.007664  3.320997  -0.01
N  N74  1  0.33396933  0.60818714  0.89609226  1  -0.505968  0.048006  3.152911  0.06  -0.478461  0.040315  3.493452  0.052  -0.505442  0.035033  3.493169  0.048  -0.442969  -0.460859  0.041785  3.493868  0.053
N  N75  1  0.16603079  0.10819411  0.60391308  1  -0.505888  0.048004  3.152937  0.06  -0.478379  0.040318  3.493503  0.052  -0.50533  0.035043  3.493206  0.048  -0.442999  -0.460749  0.041788  3.49389  0.053
N  N76  1  0.66603160  0.39181504  0.10390877  1  -0.505925  -0.047964  3.152907  -0.06  -0.478436  -0.040316  3.493484  -0.052  -0.505405  -0.035037  3.493189  -0.048  -0.442957  -0.46081  -0.041783  3.493865  -0.053
N  N77  1  0.83397412  0.89180304  0.39608401  1  -0.505796  -0.047983  3.152637  -0.06  -0.478285  -0.040331  3.493163  -0.052  -0.505236  -0.03505  3.492891  -0.048  -0.442939  -0.460684  -0.041799  3.493573  -0.053
N  N78  1  0.59710336  0.52994460  0.74286849  1  -0.56094  0.108446  3.15057  0.132  -0.546064  0.081521  3.423795  0.104  -0.581442  0.064148  3.433201  0.086  -0.618204  -0.525214  0.089948  3.419546  0.11
N  N79  1  0.90291001  0.02993872  0.75712709  1  -0.560854  0.108409  3.150412  0.132  -0.545946  0.081513  3.423741  0.104  -0.581292  0.064144  3.433134  0.086  -0.618224  -0.525083  0.08993  3.41948  0.11
N  N80  1  0.40289633  0.47005456  0.25712861  1  -0.560817  -0.108405  3.150386  -0.132  -0.545936  -0.081516  3.423656  -0.104  -0.581299  -0.064147  3.433056  -0.086  -0.618198  -0.525079  -0.089927  3.419399  -0.11
N  N81  1  0.09709354  0.97005742  0.24287314  1  -0.560891  -0.108414  3.150458  -0.132  -0.545948  -0.081508  3.42377  -0.104  -0.581291  -0.06414  3.433169  -0.086  -0.618193  -0.5251  -0.089927  3.419522  -0.11
N  N82  1  0.04989229  0.68912614  0.18738230  1  -0.527534  -0.038234  3.125722  -0.048  -0.501608  -0.032113  3.469612  -0.041  -0.52621  -0.027817  3.466861  -0.037  -0.446255  -0.485137  -0.03329  3.47135  -0.041
N  N83  1  0.45010612  0.18912801  0.31261351  1  -0.527464  -0.038184  3.125586  -0.048  -0.501528  -0.032117  3.469478  -0.041  -0.526152  -0.027822  3.466704  -0.037  -0.446257  -0.485041  -0.03329  3.47121  -0.041
N  N84  1  0.95010984  0.31087302  0.81262503  1  -0.527523  0.038172  3.125748  0.048  -0.501574  0.032108  3.469652  0.041  -0.526179  0.027813  3.466883  0.037  -0.446181  -0.485063  0.03328  3.471358  0.041
N  N85  1  0.54988962  0.81087215  0.68738597  1  -0.527399  0.038326  3.125559  0.048  -0.501455  0.032117  3.469434  0.041  -0.526091  0.027821  3.466671  0.037  -0.446255  -0.484981  0.033294  3.471192  0.041
N  N86  1  0.03884305  0.37664492  0.59776846  1  -0.577489  0.097231  3.183519  0.119  -0.561573  0.073363  3.458494  0.094  -0.594224  0.058333  3.463651  0.079  -0.625913  -0.541647  0.081312  3.456528  0.1
N  N87  1  0.46116035  0.87664105  0.90223733  1  -0.577641  0.097237  3.18373  0.119  -0.561745  0.073362  3.45869  0.094  -0.594423  0.058331  3.463861  0.079  -0.626021  -0.541827  0.08132  3.456733  0.1
N  N88  1  0.96115524  0.62336028  0.40223416  1  -0.577529  -0.097233  3.183634  -0.119  -0.5616  -0.073364  3.458541  -0.094  -0.594249  -0.058333  3.46371  -0.079  -0.625933  -0.541685  -0.081316  3.456583  -0.1
N  N89  1  0.53884063  0.12336113  0.09776056  1  -0.577534  -0.097216  3.18381  -0.119  -0.56167  -0.073361  3.458754  -0.094  -0.594335  -0.058329  3.463919  -0.079  -0.625987  -0.54174  -0.081311  3.456782  -0.1
