# generated using pymatgen
data_UH14C22O7
_symmetry_space_group_name_H-M   'P 1'
_cell_length_a   9.91738271
_cell_length_b   9.91740912
_cell_length_c   10.82969837
_cell_angle_alpha   79.19223238
_cell_angle_beta   79.19176106
_cell_angle_gamma   69.90235224
_symmetry_Int_Tables_number   1
_chemical_formula_structural   UH14C22O7
_chemical_formula_sum   'U2 H28 C44 O14'
_cell_volume   973.76336082
_cell_formula_units_Z   2
loop_
 _symmetry_equiv_pos_site_id
 _symmetry_equiv_pos_as_xyz
  1  'x, y, z'
loop_
 _atom_site_type_symbol
 _atom_site_label
 _atom_site_symmetry_multiplicity
 _atom_site_fract_x
 _atom_site_fract_y
 _atom_site_fract_z
 _atom_site_occupancy
 _atom_site_hle17_bader_spin_density
 _atom_site_hle17_ddec_charge
 _atom_site_hle17_ddec_spin_density
 _atom_site_hle17_ddec_sum_bond_order
 _atom_site_hle17_magmom
 _atom_site_hse06_10hf_bader_spin_density
 _atom_site_hse06_10hf_ddec_charge
 _atom_site_hse06_10hf_ddec_spin_density
 _atom_site_hse06_10hf_ddec_sum_bond_order
 _atom_site_hse06_10hf_magmom
 _atom_site_hse06_bader_spin_density
 _atom_site_hse06_ddec_charge
 _atom_site_hse06_ddec_spin_density
 _atom_site_hse06_ddec_sum_bond_order
 _atom_site_hse06_magmom
 _atom_site_pbe_bader_spin_density
 _atom_site_pbe_cm5_charge
 _atom_site_pbe_ddec_charge
 _atom_site_pbe_ddec_spin_density
 _atom_site_pbe_ddec_sum_bond_order
 _atom_site_pbe_magmom
U  U0  1  0.42438642  0.57562000  0.74999800  1  0  2.525829  0  4.096083  0  0  2.591814  0  4.752352  0  0  2.700442  0  4.713723  0  0  2.20112  2.514229  0  4.780364  0
U  U1  1  0.57561877  0.42438413  0.24999825  1  0  2.525857  0  4.096149  0  0  2.591934  0  4.752315  0  0  2.700493  0  4.713792  0  0  2.201192  2.514249  0  4.780472  0
H  H2  1  0.12989887  0.83325412  0.82468407  1  0  0.445899  0  0.81023  0  0  0.428505  0  0.862208  0  0  0.437606  0  0.849206  0  0  0.332145  0.422018  0  0.871474  0
H  H3  1  0.16673738  0.87008277  0.67531369  1  0  0.445783  0  0.810436  0  0  0.428396  0  0.862351  0  0  0.437492  0  0.849357  0  0  0.332072  0.42191  0  0.871616  0
H  H4  1  0.87009769  0.16674810  0.17531687  1  0  0.445931  0  0.810209  0  0  0.428535  0  0.862172  0  0  0.437634  0  0.849172  0  0  0.332142  0.422047  0  0.87144  0
H  H5  1  0.83326318  0.12991290  0.32468771  1  0  0.445763  0  0.810432  0  0  0.428377  0  0.862369  0  0  0.437472  0  0.849377  0  0  0.332063  0.42189  0  0.871635  0
H  H6  1  0.75560119  0.71269511  0.11679871  1  0  0.105981  0  0.977769  0  0  0.117027  0  1.03732  0  0  0.119899  0  1.03592  0  0  0.10449  0.115052  0  1.038387  0
H  H7  1  0.28730121  0.24440604  0.38319673  1  0  0.105991  0  0.977776  0  0  0.117034  0  1.037332  0  0  0.119941  0  1.035884  0  0  0.1045  0.115056  0  1.038394  0
H  H8  1  0.24439819  0.28730816  0.88320614  1  0  0.105974  0  0.97779  0  0  0.11702  0  1.037336  0  0  0.119891  0  1.035938  0  0  0.104482  0.115042  0  1.038409  0
H  H9  1  0.71269088  0.75559735  0.61680388  1  0  0.105994  0  0.977694  0  0  0.117036  0  1.037251  0  0  0.119924  0  1.035832  0  0  0.104518  0.115063  0  1.038316  0
H  H10  1  0.48878945  0.92953059  0.76955708  1  0  0.112466  0  0.950371  0  0  0.124782  0  1.006371  0  0  0.128005  0  1.004203  0  0  0.113384  0.122605  0  1.007941  0
H  H11  1  0.07046485  0.51120324  0.73044720  1  0  0.11235  0  0.950389  0  0  0.124693  0  1.006372  0  0  0.127932  0  1.004183  0  0  0.113373  0.122515  0  1.007944  0
H  H12  1  0.51120862  0.07046295  0.23044054  1  0  0.112425  0  0.950545  0  0  0.124797  0  1.006468  0  0  0.128018  0  1.004302  0  0  0.11339  0.122619  0  1.008038  0
H  H13  1  0.92953252  0.48878927  0.26955351  1  0  0.112497  0  0.950289  0  0  0.124791  0  1.006316  0  0  0.128027  0  1.00413  0  0  0.11339  0.122612  0  1.007886  0
H  H14  1  0.48368535  0.13718449  0.59836465  1  0  0.103097  0  0.939472  0  0  0.115135  0  0.995641  0  0  0.117856  0  0.995284  0  0  0.11063  0.113771  0  0.995142  0
H  H15  1  0.86280905  0.51630409  0.90163689  1  0  0.103126  0  0.939518  0  0  0.115125  0  0.995722  0  0  0.117846  0  0.995363  0  0  0.110651  0.113763  0  0.995225  0
H  H16  1  0.51631175  0.86281230  0.40163348  1  0  0.103097  0  0.939527  0  0  0.115124  0  0.995696  0  0  0.117843  0  0.995342  0  0  0.11065  0.113761  0  0.995199  0
H  H17  1  0.13719050  0.48369478  0.09835857  1  0  0.10309  0  0.939511  0  0  0.115111  0  0.995701  0  0  0.117833  0  0.995342  0  0  0.110637  0.113746  0  0.995205  0
H  H18  1  0.58947766  0.77511478  0.95499812  1  0  0.11203  0  0.943976  0  0  0.121547  0  1.004012  0  0  0.125387  0  1.001694  0  0  0.110849  0.118893  0  1.005619  0
H  H19  1  0.22487881  0.41052587  0.54500363  1  0  0.112004  0  0.943935  0  0  0.121541  0  1.003952  0  0  0.125381  0  1.001635  0  0  0.110889  0.118886  0  1.005555  0
H  H20  1  0.41052603  0.22488085  0.04500549  1  0  0.112033  0  0.943976  0  0  0.121561  0  1.004001  0  0  0.125401  0  1.001684  0  0  0.110886  0.118904  0  1.005607  0
H  H21  1  0.77511912  0.58947526  0.45499910  1  0  0.112024  0  0.943995  0  0  0.121542  0  1.004029  0  0  0.125381  0  1.001713  0  0  0.110858  0.118887  0  1.005635  0
H  H22  1  0.91158055  0.06909835  0.94345980  1  0  0.076389  0  1.020475  0  0  0.083973  0  1.094071  0  0  0.086104  0  1.094276  0  0  0.09041  0.082658  0  1.093505  0
H  H23  1  0.93090115  0.08842674  0.55653108  1  0  0.07639  0  1.020538  0  0  0.083971  0  1.094137  0  0  0.086102  0  1.094339  0  0  0.090411  0.082655  0  1.093578  0
H  H24  1  0.08843027  0.93089699  0.05653056  1  0  0.076367  0  1.020584  0  0  0.083952  0  1.094174  0  0  0.086081  0  1.09438  0  0  0.090411  0.082636  0  1.093612  0
H  H25  1  0.06909514  0.91157977  0.44346728  1  0  0.076409  0  1.020478  0  0  0.083997  0  1.094081  0  0  0.086128  0  1.094285  0  0  0.090412  0.082682  0  1.093515  0
H  H26  1  0.91541942  0.85917461  0.11135006  1  0  0.075321  0  0.995032  0  0  0.08345  0  1.06356  0  0  0.085303  0  1.064139  0  0  0.091105  0.08181  0  1.063759  0
H  H27  1  0.14082638  0.08458483  0.38864132  1  0  0.075465  0  0.995141  0  0  0.083604  0  1.063629  0  0  0.085457  0  1.064208  0  0  0.091175  0.081946  0  1.063844  0
H  H28  1  0.08458469  0.14082634  0.88864789  1  0  0.07538  0  0.995064  0  0  0.083492  0  1.063592  0  0  0.085346  0  1.06417  0  0  0.091153  0.081841  0  1.063806  0
H  H29  1  0.85916505  0.91542071  0.61135717  1  0  0.075437  0  0.995089  0  0  0.083531  0  1.063637  0  0  0.085385  0  1.064217  0  0  0.091159  0.081906  0  1.063823  0
C  C30  1  0.75378076  0.80330395  0.04199458  1  0  -0.065991  0  3.759907  0  0  -0.084182  0  4.012577  0  0  -0.086613  0  4.034783  0  0  -0.089388  -0.082195  0  3.997008  0
C  C31  1  0.19668695  0.24622036  0.45799865  1  0  -0.066085  0  3.759992  0  0  -0.084283  0  4.012687  0  0  -0.086737  0  4.034878  0  0  -0.089409  -0.082295  0  3.997109  0
C  C32  1  0.24621531  0.19669286  0.95800373  1  0  -0.065995  0  3.760089  0  0  -0.084185  0  4.012752  0  0  -0.086614  0  4.034958  0  0  -0.089391  -0.082199  0  3.997184  0
C  C33  1  0.80330465  0.75377764  0.54199933  1  0  -0.066035  0  3.759881  0  0  -0.084223  0  4.012554  0  0  -0.086661  0  4.034751  0  0  -0.089396  -0.082238  0  3.996994  0
C  C34  1  0.64745919  0.19344071  0.66523553  1  0  -0.115324  0  3.763507  0  0  -0.11173  0  4.012504  0  0  -0.118325  0  4.031156  0  0  -0.012404  -0.107207  0  3.99988  0
C  C35  1  0.80655980  0.35253990  0.83476540  1  0  -0.115184  0  3.763414  0  0  -0.111673  0  4.012384  0  0  -0.118256  0  4.03103  0  0  -0.012382  -0.10714  0  3.999767  0
C  C36  1  0.35253785  0.80656690  0.33476712  1  0  -0.115258  0  3.763214  0  0  -0.111728  0  4.012214  0  0  -0.118325  0  4.030869  0  0  -0.012424  -0.107195  0  3.999595  0
C  C37  1  0.19344368  0.64746324  0.16523504  1  0  -0.115301  0  3.763599  0  0  -0.111735  0  4.012541  0  0  -0.118314  0  4.03119  0  0  -0.012406  -0.107206  0  3.999918  0
C  C38  1  0.74275929  0.16411011  0.75354869  1  0  0.004931  0  3.721835  0  0  0.006406  0  3.962344  0  0  0.007791  0  3.984127  0  0  0.001757  0.005926  0  3.946611  0
C  C39  1  0.83588914  0.25723671  0.74645167  1  0  0.004849  0  3.72192  0  0  0.006394  0  3.962395  0  0  0.007758  0  3.984197  0  0  0.001821  0.005917  0  3.946657  0
C  C40  1  0.25723872  0.83589425  0.24645436  1  0  0.005035  0  3.72195  0  0  0.006529  0  3.962452  0  0  0.007914  0  3.984242  0  0  0.001804  0.006051  0  3.946714  0
C  C41  1  0.16411395  0.74276428  0.25354831  1  0  0.004765  0  3.722017  0  0  0.006327  0  3.962454  0  0  0.007687  0  3.984265  0  0  0.001783  0.005848  0  3.946719  0
C  C42  1  0.62862490  0.32218852  0.56629324  1  0  0.722035  0  3.820283  0  0  0.692094  0  4.107838  0  0  0.732827  0  4.09228  0  0  0.256922  0.663765  0  4.11783  0
C  C43  1  0.67780675  0.37137215  0.93371229  1  0  0.721882  0  3.820477  0  0  0.6921  0  4.107793  0  0  0.732831  0  4.092234  0  0  0.256946  0.663732  0  4.117847  0
C  C44  1  0.37137713  0.67780932  0.43371304  1  0  0.721776  0  3.820667  0  0  0.691962  0  4.10803  0  0  0.732699  0  4.092472  0  0  0.256898  0.663594  0  4.11808  0
C  C45  1  0.32219225  0.62862899  0.06629394  1  0  0.721991  0  3.820071  0  0  0.692125  0  4.107527  0  0  0.732851  0  4.091972  0  0  0.257023  0.66377  0  4.117558  0
C  C46  1  0.65600460  0.95740826  0.85525468  1  0  0.066676  0  3.77142  0  0  0.083999  0  3.99967  0  0  0.083957  0  4.02495  0  0  -0.000345  0.083944  0  3.982477  0
C  C47  1  0.04258251  0.34400120  0.64474295  1  0  0.066641  0  3.771557  0  0  0.083968  0  3.999813  0  0  0.083926  0  4.025094  0  0  -0.000362  0.08391  0  3.982622  0
C  C48  1  0.34400278  0.04258506  0.14474221  1  0  0.066616  0  3.771553  0  0  0.083974  0  3.999778  0  0  0.083932  0  4.025058  0  0  -0.000412  0.083919  0  3.982584  0
C  C49  1  0.95740828  0.65600652  0.35525618  1  0  0.066639  0  3.77147  0  0  0.083994  0  3.999711  0  0  0.08395  0  4.024995  0  0  -0.00037  0.083937  0  3.982518  0
C  C50  1  0.74929414  0.04253742  0.85030175  1  0  0.017988  0  3.740997  0  0  0.02935  0  3.969179  0  0  0.02792  0  3.993731  0  0  -0.008007  0.030899  0  3.952032  0
C  C51  1  0.95745669  0.25070808  0.64969242  1  0  0.017926  0  3.741074  0  0  0.029244  0  3.969285  0  0  0.02782  0  3.993836  0  0  -0.008047  0.030794  0  3.952138  0
C  C52  1  0.25071062  0.95746137  0.14969740  1  0  0.017896  0  3.741122  0  0  0.029202  0  3.969349  0  0  0.027775  0  3.993895  0  0  -0.00802  0.03075  0  3.952201  0
C  C53  1  0.04253908  0.74929301  0.35030147  1  0  0.01803  0  3.740977  0  0  0.029306  0  3.969237  0  0  0.027882  0  3.993791  0  0  -0.008023  0.030855  0  3.952088  0
C  C54  1  0.55955513  0.99416083  0.76390791  1  0  -0.091405  0  3.722131  0  0  -0.11669  0  3.976669  0  0  -0.118743  0  3.997099  0  0  -0.079127  -0.115532  0  3.963112  0
C  C55  1  0.00583322  0.44044677  0.73608938  1  0  -0.091224  0  3.722274  0  0  -0.11652  0  3.976756  0  0  -0.118587  0  3.99718  0  0  -0.079083  -0.115361  0  3.963199  0
C  C56  1  0.44045500  0.00583347  0.23608554  1  0  -0.091376  0  3.722479  0  0  -0.116727  0  3.976996  0  0  -0.118777  0  3.997422  0  0  -0.079135  -0.115569  0  3.963438  0
C  C57  1  0.99416090  0.55955654  0.26390718  1  0  -0.091402  0  3.722009  0  0  -0.116674  0  3.976531  0  0  -0.118737  0  3.996956  0  0  -0.079097  -0.115519  0  3.962976  0
C  C58  1  0.55730838  0.10801502  0.66925980  1  0  -0.066974  0  3.744417  0  0  -0.090578  0  4.002583  0  0  -0.091985  0  4.023195  0  0  -0.079711  -0.089903  0  3.988676  0
C  C59  1  0.89198647  0.44269221  0.83073884  1  0  -0.06704  0  3.744559  0  0  -0.090605  0  4.002709  0  0  -0.092015  0  4.023325  0  0  -0.079745  -0.089929  0  3.988803  0
C  C60  1  0.44269275  0.89199245  0.33073750  1  0  -0.066908  0  3.744374  0  0  -0.090495  0  4.002554  0  0  -0.091901  0  4.023167  0  0  -0.079686  -0.08982  0  3.988649  0
C  C61  1  0.10801633  0.55731306  0.16925764  1  0  -0.066943  0  3.744458  0  0  -0.090524  0  4.002588  0  0  -0.091937  0  4.023208  0  0  -0.079716  -0.089849  0  3.988679  0
C  C62  1  0.66121114  0.83823631  0.95225818  1  0  -0.093299  0  3.696705  0  0  -0.11431  0  3.947023  0  0  -0.117028  0  3.967609  0  0  -0.077863  -0.112466  0  3.932281  0
C  C63  1  0.16175457  0.33878840  0.54773829  1  0  -0.093202  0  3.69663  0  0  -0.114236  0  3.946958  0  0  -0.116955  0  3.967554  0  0  -0.077896  -0.112391  0  3.93221  0
C  C64  1  0.33878907  0.16176041  0.04773939  1  0  -0.093292  0  3.696697  0  0  -0.114324  0  3.947008  0  0  -0.117042  0  3.967594  0  0  -0.077895  -0.112479  0  3.93226  0
C  C65  1  0.83823841  0.66120851  0.45226241  1  0  -0.093284  0  3.696829  0  0  -0.1143  0  3.94714  0  0  -0.117019  0  3.967731  0  0  -0.077901  -0.112456  0  3.932396  0
C  C66  1  0.84329599  0.00315710  0.94458302  1  0  -0.144487  0  3.787664  0  0  -0.165727  0  4.039402  0  0  -0.168916  0  4.061362  0  0  -0.108161  -0.163527  0  4.023864  0
C  C67  1  0.99683989  0.15670621  0.55541202  1  0  -0.144461  0  3.787718  0  0  -0.165692  0  4.039463  0  0  -0.168879  0  4.061418  0  0  -0.108178  -0.163494  0  4.023925  0
C  C68  1  0.15670494  0.99684069  0.05541608  1  0  -0.144366  0  3.787772  0  0  -0.165591  0  4.039501  0  0  -0.168778  0  4.061458  0  0  -0.108114  -0.163393  0  4.023964  0
C  C69  1  0.00315760  0.84329272  0.44458565  1  0  -0.144492  0  3.787561  0  0  -0.165727  0  4.039327  0  0  -0.168914  0  4.061282  0  0  -0.108168  -0.163528  0  4.023793  0
C  C70  1  0.84484946  0.88708903  0.03808025  1  0  -0.0677  0  3.794181  0  0  -0.080503  0  4.045449  0  0  -0.081565  0  4.067161  0  0  -0.096301  -0.079776  0  4.031061  0
C  C71  1  0.11290447  0.15515127  0.46191347  1  0  -0.067822  0  3.794371  0  0  -0.080628  0  4.045616  0  0  -0.081692  0  4.067336  0  0  -0.096383  -0.079887  0  4.031233  0
C  C72  1  0.15515275  0.11290442  0.96191848  1  0  -0.067752  0  3.794399  0  0  -0.080539  0  4.045666  0  0  -0.081602  0  4.067376  0  0  -0.096349  -0.079806  0  4.031288  0
C  C73  1  0.88709128  0.84484664  0.53808562  1  0  -0.067826  0  3.794197  0  0  -0.080596  0  4.045477  0  0  -0.08166  0  4.067193  0  0  -0.096353  -0.079883  0  4.031089  0
O  O74  1  0.53861270  0.68297383  0.75136114  1  0  -0.714677  0  1.579754  0  0  -0.715865  0  1.868228  0  0  -0.73698  0  1.854782  0  0  -0.754774  -0.703979  0  1.878362  0
O  O75  1  0.31702173  0.46139783  0.74864346  1  0  -0.714745  0  1.579594  0  0  -0.715917  0  1.868041  0  0  -0.737024  0  1.854577  0  0  -0.754772  -0.704017  0  1.878152  0
O  O76  1  0.46139255  0.31703037  0.24864155  1  0  -0.714736  0  1.579665  0  0  -0.715918  0  1.868089  0  0  -0.737014  0  1.854634  0  0  -0.754811  -0.704001  0  1.878224  0
O  O77  1  0.68298169  0.53860209  0.25135758  1  0  -0.71473  0  1.579822  0  0  -0.715934  0  1.86828  0  0  -0.737019  0  1.854816  0  0  -0.754807  -0.704021  0  1.878425  0
O  O78  1  0.60165721  0.44653921  0.60040282  1  0  -0.662085  0  2.061121  0  0  -0.652556  0  2.332823  0  0  -0.689059  0  2.328002  0  0  -0.356551  -0.625883  0  2.334872  0
O  O79  1  0.55345095  0.39834198  0.89960285  1  0  -0.662048  0  2.061154  0  0  -0.65256  0  2.332758  0  0  -0.689054  0  2.327927  0  0  -0.356543  -0.625875  0  2.334824  0
O  O80  1  0.39834618  0.55345752  0.39960341  1  0  -0.662019  0  2.061257  0  0  -0.652534  0  2.332873  0  0  -0.689018  0  2.328036  0  0  -0.356508  -0.625834  0  2.334941  0
O  O81  1  0.44654637  0.60166135  0.10040329  1  0  -0.662043  0  2.061185  0  0  -0.652545  0  2.332841  0  0  -0.689046  0  2.328039  0  0  -0.356581  -0.625848  0  2.334906  0
O  O82  1  0.19763441  0.80236617  0.75000263  1  0  -0.854072  0  1.884043  0  0  -0.825859  0  2.056804  0  0  -0.844314  0  2.027091  0  0  -0.583544  -0.812345  0  2.077512  0
O  O83  1  0.80235709  0.19762541  0.25000024  1  0  -0.854092  0  1.884037  0  0  -0.825881  0  2.056791  0  0  -0.844325  0  2.027083  0  0  -0.583529  -0.812354  0  2.077505  0
O  O84  1  0.63684079  0.30110439  0.45264226  1  0  -0.656613  0  2.05313  0  0  -0.637015  0  2.314095  0  0  -0.671418  0  2.305686  0  0  -0.357804  -0.611713  0  2.31856  0
O  O85  1  0.69889606  0.36315656  0.04736335  1  0  -0.656588  0  2.053332  0  0  -0.637034  0  2.314216  0  0  -0.671434  0  2.305806  0  0  -0.357858  -0.611717  0  2.318701  0
O  O86  1  0.36316451  0.69889986  0.54736596  1  0  -0.656559  0  2.053432  0  0  -0.636971  0  2.314327  0  0  -0.671383  0  2.305918  0  0  -0.357855  -0.611669  0  2.318806  0
O  O87  1  0.30111063  0.63684977  0.95264054  1  0  -0.656641  0  2.052865  0  0  -0.637058  0  2.313805  0  0  -0.671467  0  2.305399  0  0  -0.357914  -0.611763  0  2.318279  0
