# generated using pymatgen
data_AgH8C12N3O5
_symmetry_space_group_name_H-M   'P 1'
_cell_length_a   4.88646317
_cell_length_b   10.35464137
_cell_length_c   11.68206686
_cell_angle_alpha   94.55283928
_cell_angle_beta   99.71190039
_cell_angle_gamma   93.18941442
_symmetry_Int_Tables_number   1
_chemical_formula_structural   AgH8C12N3O5
_chemical_formula_sum   'Ag2 H16 C24 N6 O10'
_cell_volume   579.33970563
_cell_formula_units_Z   2
loop_
 _symmetry_equiv_pos_site_id
 _symmetry_equiv_pos_as_xyz
  1  'x, y, z'
loop_
 _atom_site_type_symbol
 _atom_site_label
 _atom_site_symmetry_multiplicity
 _atom_site_fract_x
 _atom_site_fract_y
 _atom_site_fract_z
 _atom_site_occupancy
 _atom_site_pbe_bader_spin_density
 _atom_site_pbe_cm5_charge
 _atom_site_pbe_ddec_charge
 _atom_site_pbe_ddec_spin_density
 _atom_site_pbe_ddec_sum_bond_order
 _atom_site_pbe_magmom
Ag  Ag0  1  0.10397416  0.66992617  0.93492654  1  0  0.469911  0.463301  0  1.718129  0
Ag  Ag1  1  0.89602238  0.33008178  0.06508047  1  0  0.469896  0.463285  0  1.718193  0
H  H2  1  0.47479787  0.57905455  0.80185477  1  0  0.098371  0.117385  0  1.074237  0
H  H3  1  0.52519950  0.42094392  0.19814697  1  0  0.09837  0.117328  0  1.074339  0
H  H4  1  0.93959046  0.47156922  0.59828115  1  0  0.301831  0.305699  0  0.998351  0
H  H5  1  0.06038556  0.52842458  0.40171423  1  0  0.301896  0.305842  0  0.998207  0
H  H6  1  0.83207636  0.44484231  0.73055620  1  0  0.308178  0.308673  0  0.958246  0
H  H7  1  0.16792441  0.55515048  0.26944259  1  0  0.308192  0.308699  0  0.958156  0
H  H8  1  0.56370962  0.85333136  0.47154454  1  0  0.114486  0.153071  0  1.01281  0
H  H9  1  0.43627388  0.14665660  0.52845159  1  0  0.114525  0.153173  0  1.012648  0
H  H10  1  0.84180652  0.87959441  0.92854022  1  0  0.095279  0.105598  0  1.060397  0
H  H11  1  0.15819065  0.12041694  0.07145780  1  0  0.095248  0.10555  0  1.060419  0
H  H12  1  0.60617524  0.08670163  0.90543432  1  0  0.099034  0.107748  0  1.019484  0
H  H13  1  0.39383719  0.91331469  0.09456365  1  0  0.098942  0.107651  0  1.019652  0
H  H14  1  0.68256896  0.22171379  0.74753043  1  0  0.101423  0.104328  0  1.037093  0
H  H15  1  0.31745866  0.77829203  0.25246491  1  0  0.101449  0.104369  0  1.036999  0
H  H16  1  0.00421435  0.15452039  0.61079867  1  0  0.108549  0.129133  0  1.023468  0
H  H17  1  0.99580736  0.84548815  0.38919997  1  0  0.108578  0.129187  0  1.023413  0
C  C18  1  0.38736915  0.82872222  0.62393946  1  0  0.112851  0.235518  0  3.976087  0
C  C19  1  0.61262954  0.17127057  0.37605917  1  0  0.112782  0.235354  0  3.976356  0
C  C20  1  0.35412158  0.75026703  0.72042864  1  0  0.113529  0.175213  0  4.07852  0
C  C21  1  0.64588006  0.24973237  0.27957437  1  0  0.113535  0.175119  0  4.078658  0
C  C22  1  0.49996797  0.63789631  0.73060157  1  0  -0.128708  -0.330278  0  4.021916  0
C  C23  1  0.50003337  0.36210111  0.26940206  1  0  -0.128761  -0.330282  0  4.021922  0
C  C24  1  0.66753797  0.59905781  0.65088896  1  0  0.122904  0.243188  0  4.026109  0
C  C25  1  0.33245064  0.40093764  0.34911352  1  0  0.122923  0.243293  0  4.025953  0
C  C26  1  0.69532234  0.67830721  0.55063161  1  0  0.133058  0.34273  0  4.060926  0
C  C27  1  0.30466319  0.32168066  0.44936638  1  0  0.133167  0.342929  0  4.0609  0
C  C28  1  0.54594664  0.79341133  0.54267568  1  0  -0.120645  -0.343195  0  3.946605  0
C  C29  1  0.45403777  0.20658267  0.45731690  1  0  -0.120713  -0.343347  0  3.946726  0
C  C30  1  0.09201086  0.97849732  0.69295201  1  0  0.089321  0.179272  0  3.988511  0
C  C31  1  0.90800618  0.02150738  0.30704500  1  0  0.089201  0.179109  0  3.988245  0
C  C32  1  0.05430925  0.89959236  0.78307839  1  0  0.080233  0.10288  0  4.098847  0
C  C33  1  0.94569984  0.10041579  0.21692614  1  0  0.080188  0.102813  0  4.099167  0
C  C34  1  0.87536316  0.94066043  0.85948652  1  0  -0.095392  -0.149448  0  3.974598  0
C  C35  1  0.12464168  0.05934683  0.14051589  1  0  -0.095352  -0.149485  0  3.974549  0
C  C36  1  0.74437100  0.05521249  0.84618697  1  0  -0.10069  -0.093308  0  4.017961  0
C  C37  1  0.25565240  0.94479318  0.15381062  1  0  -0.100549  -0.093079  0  4.017921  0
C  C38  1  0.78858011  0.13235999  0.75637490  1  0  -0.09295  -0.062311  0  3.989483  0
C  C39  1  0.21143178  0.86765245  0.24362259  1  0  -0.092996  -0.062413  0  3.989724  0
C  C40  1  0.96430027  0.09467193  0.67967919  1  0  -0.098  -0.179402  0  3.972972  0
C  C41  1  0.03572489  0.90533172  0.32032002  1  0  -0.097941  -0.179367  0  3.972869  0
N  N42  1  0.81582933  0.49503302  0.65844047  1  0  -0.541627  -0.505153  0  3.380121  0
N  N43  1  0.18415626  0.50495563  0.34156104  1  0  -0.541697  -0.505332  0  3.379932  0
N  N44  1  0.18518302  0.78553077  0.79509930  1  0  -0.338345  -0.27015  0  3.52025  0
N  N45  1  0.81482333  0.21447257  0.20490364  1  0  -0.338297  -0.270009  0  3.520315  0
N  N46  1  0.74237025  0.65349358  0.10924214  1  0  0.092906  0.685834  0  4.413733  0
N  N47  1  0.25762116  0.34650681  0.89075937  1  0  0.092796  0.68578  0  4.413981  0
O  O48  1  0.25498195  0.94004247  0.61331530  1  0  -0.100945  -0.128492  0  2.643989  0
O  O49  1  0.74502810  0.05995718  0.38668407  1  0  -0.100903  -0.128267  0  2.643795  0
O  O50  1  0.85175577  0.64498033  0.48055321  1  0  -0.271637  -0.423881  0  2.16335  0
O  O51  1  0.14821463  0.35500283  0.51943972  1  0  -0.271625  -0.423931  0  2.163404  0
O  O52  1  0.97051971  0.59767665  0.09510510  1  0  -0.218988  -0.462017  0  2.181661  0
O  O53  1  0.02948109  0.40233218  0.90490404  1  0  -0.218972  -0.462072  0  2.181835  0
O  O54  1  0.64314491  0.63751909  0.19853145  1  0  -0.147211  -0.365727  0  2.001829  0
O  O55  1  0.35683720  0.36247441  0.80147034  1  0  -0.147104  -0.365614  0  2.001927  0
O  O56  1  0.63389748  0.72082221  0.03012004  1  0  -0.186754  -0.446251  0  2.112262  0
O  O57  1  0.36609193  0.27917901  0.96988400  1  0  -0.186748  -0.446238  0  2.11218  0
