# generated using pymatgen
data_Cd3P2H48C42Se2(NCl)6
_symmetry_space_group_name_H-M   'P 1'
_cell_length_a   9.11043185
_cell_length_b   11.18855182
_cell_length_c   13.34760000
_cell_angle_alpha   76.27598392
_cell_angle_beta   69.75441651
_cell_angle_gamma   86.06411754
_symmetry_Int_Tables_number   1
_chemical_formula_structural   Cd3P2H48C42Se2(NCl)6
_chemical_formula_sum   'Cd3 P2 H48 C42 Se2 N6 Cl6'
_cell_volume   1239.91750745
_cell_formula_units_Z   1
loop_
 _symmetry_equiv_pos_site_id
 _symmetry_equiv_pos_as_xyz
  1  'x, y, z'
loop_
 _atom_site_type_symbol
 _atom_site_label
 _atom_site_symmetry_multiplicity
 _atom_site_fract_x
 _atom_site_fract_y
 _atom_site_fract_z
 _atom_site_occupancy
 _atom_site_hle17_bader_spin_density
 _atom_site_hle17_ddec_charge
 _atom_site_hle17_ddec_spin_density
 _atom_site_hle17_ddec_sum_bond_order
 _atom_site_hle17_magmom
 _atom_site_hse06_10hf_bader_spin_density
 _atom_site_hse06_10hf_ddec_charge
 _atom_site_hse06_10hf_ddec_spin_density
 _atom_site_hse06_10hf_ddec_sum_bond_order
 _atom_site_hse06_10hf_magmom
 _atom_site_hse06_bader_spin_density
 _atom_site_hse06_ddec_charge
 _atom_site_hse06_ddec_spin_density
 _atom_site_hse06_ddec_sum_bond_order
 _atom_site_hse06_magmom
 _atom_site_pbe_bader_charge
 _atom_site_pbe_bader_spin_density
 _atom_site_pbe_cm5_charge
 _atom_site_pbe_ddec_charge
 _atom_site_pbe_ddec_spin_density
 _atom_site_pbe_ddec_sum_bond_order
 _atom_site_pbe_magmom
Cd  Cd0  1  0.29878297  0.12037802  0.71007196  1  0  0.859798  0  2.017668  0  0  0.700001  0  2.488868  0  0  0.746062  0  2.448428  0  1.01425  0  0.531057  0.66791  0  2.516252  0
Cd  Cd1  1  0.70121736  0.87962280  0.28992788  1  0  0.859814  0  2.01766  0  0  0.70003  0  2.488844  0  0  0.746091  0  2.448403  0  1.014287  0  0.531074  0.667939  0  2.516227  0
Cd  Cd2  1  0.00000000  0.00000000  0.99999925  1  0  0.944551  0  1.914009  0  0  0.775393  0  2.365681  0  0  0.82366  0  2.326532  0  1.145727  0  0.588803  0.741256  0  2.392299  0
P  P3  1  0.70288699  0.98518659  0.67633925  1  0  0.756355  0  3.880572  0  0  0.704727  0  4.322051  0  0  0.725879  0  4.323131  0  1.484919  0  0.114789  0.690201  0  4.320871  0
P  P4  1  0.29711215  0.01481331  0.32366105  1  0  0.756382  0  3.880615  0  0  0.704718  0  4.322097  0  0  0.725869  0  4.323176  0  1.484784  0  0.114809  0.69019  0  4.320914  0
H  H5  1  0.36965963  0.37818145  0.73784634  1  0  0.066732  0  0.971205  0  0  0.075316  0  1.038451  0  0  0.077154  0  1.036854  0  0.085052  0  0.101801  0.073927  0  1.039617  0
H  H6  1  0.63034185  0.62181844  0.26215341  1  0  0.066739  0  0.971252  0  0  0.075336  0  1.038467  0  0  0.077174  0  1.03687  0  0.085022  0  0.101804  0.073948  0  1.039632  0
H  H7  1  0.55309492  0.56154018  0.65850066  1  0  0.112397  0  0.932289  0  0  0.121055  0  0.991539  0  0  0.125054  0  0.989412  0  0.121324  0  0.109509  0.117283  0  0.994706  0
H  H8  1  0.44690657  0.43845972  0.34149984  1  0  0.112377  0  0.93232  0  0  0.121032  0  0.99157  0  0  0.125033  0  0.989443  0  0.121324  0  0.109505  0.117261  0  0.994735  0
H  H9  1  0.78964502  0.55673522  0.49398438  1  0  0.10099  0  0.963122  0  0  0.107917  0  1.028805  0  0  0.11075  0  1.026602  0  0.118987  0  0.098312  0.105697  0  1.030594  0
H  H10  1  0.21035648  0.44326560  0.50601593  1  0  0.10098  0  0.963148  0  0  0.107936  0  1.028804  0  0  0.110768  0  1.026601  0  0.119016  0  0.098318  0.105716  0  1.030593  0
H  H11  1  0.83855473  0.36643129  0.41825131  1  0  0.109818  0  0.960812  0  0  0.120034  0  1.020137  0  0  0.122062  0  1.022042  0  0.087955  0  0.104633  0.118542  0  1.018954  0
H  H12  1  0.16144792  0.63356861  0.58174966  1  0  0.109835  0  0.960803  0  0  0.120031  0  1.020144  0  0  0.12206  0  1.022046  0  0.087858  0  0.104633  0.118539  0  1.018961  0
H  H13  1  0.70743781  0.18553301  0.40365645  1  0  0.099909  0  0.91967  0  0  0.117587  0  0.976329  0  0  0.119239  0  0.975724  0  0.037344  0  0.097828  0.116421  0  0.976957  0
H  H14  1  0.29256605  0.81446872  0.59634012  1  0  0.099931  0  0.919688  0  0  0.117552  0  0.97639  0  0  0.1192  0  0.975791  0  0.037404  0  0.097836  0.116383  0  0.977013  0
H  H15  1  0.54705446  0.11083342  0.51358874  1  0  0.073548  0  0.971819  0  0  0.084553  0  1.047888  0  0  0.086067  0  1.046601  0  0.064022  0  0.085237  0.083548  0  1.048676  0
H  H16  1  0.45294823  0.88916831  0.48640811  1  0  0.073663  0  0.971735  0  0  0.084621  0  1.047844  0  0  0.086135  0  1.046554  0  0.063984  0  0.085276  0.083608  0  1.048635  0
H  H17  1  0.88180917  0.11737469  0.52158368  1  0  0.125317  0  0.932456  0  0  0.142063  0  0.988941  0  0  0.143864  0  0.989615  0  0.061097  0  0.105448  0.140806  0  0.988523  0
H  H18  1  0.11819230  0.88262429  0.47841625  1  0  0.125368  0  0.932421  0  0  0.142084  0  0.988929  0  0  0.143883  0  0.989604  0  0.061116  0  0.105471  0.140827  0  0.98851  0
H  H19  1  0.80451440  0.99806944  0.48485546  1  0  0.127329  0  0.968254  0  0  0.138182  0  1.035568  0  0  0.140614  0  1.035064  0  0.112195  0  0.095221  0.136189  0  1.036351  0
H  H20  1  0.19548592  0.00193045  0.51514456  1  0  0.127308  0  0.968279  0  0  0.13816  0  1.035582  0  0  0.140592  0  1.035077  0  0.112197  0  0.09521  0.136167  0  1.036366  0
H  H21  1  0.82793249  0.81062254  0.61567499  1  0  0.128683  0  0.959451  0  0  0.139258  0  1.026608  0  0  0.142042  0  1.025316  0  0.12413  0  0.096624  0.137181  0  1.027826  0
H  H22  1  0.17206783  0.18937735  0.38432578  1  0  0.128692  0  0.95943  0  0  0.139274  0  1.026579  0  0  0.142056  0  1.025285  0  0.124112  0  0.096627  0.137196  0  1.027798  0
H  H23  1  0.94591138  0.88622479  0.66659027  1  0  0.123741  0  0.945165  0  0  0.141464  0  1.001178  0  0  0.143065  0  1.001908  0  0.085799  0  0.099414  0.140211  0  1.000884  0
H  H24  1  0.05408779  0.11377602  0.33341134  1  0  0.123745  0  0.9452  0  0  0.141479  0  1.001198  0  0  0.143075  0  1.001942  0  0.085797  0  0.099413  0.140229  0  1.000892  0
H  H25  1  0.78647201  0.79226302  0.85816901  1  0  0.084317  0  0.951671  0  0  0.100221  0  1.01546  0  0  0.101225  0  1.015486  0  0.070705  0  0.088687  0.099411  0  1.01556  0
H  H26  1  0.21352597  0.20773687  0.14183157  1  0  0.084317  0  0.951669  0  0  0.100221  0  1.015461  0  0  0.101225  0  1.015487  0  0.070705  0  0.088687  0.09941  0  1.015563  0
H  H27  1  0.64782000  0.73488688  0.81373763  1  0  0.082187  0  0.959682  0  0  0.096893  0  1.02626  0  0  0.098545  0  1.025541  0  0.076527  0  0.087634  0.095596  0  1.027113  0
H  H28  1  0.35218032  0.26511302  0.18626239  1  0  0.082181  0  0.959686  0  0  0.096888  0  1.026263  0  0  0.09854  0  1.025545  0  0.076524  0  0.08763  0.09559  0  1.027116  0
H  H29  1  0.87916649  0.40862791  0.66752223  1  0  0.063274  0  0.950712  0  0  0.070575  0  1.016696  0  0  0.072817  0  1.015715  0  0.075629  0  0.101277  0.068797  0  1.017616  0
H  H30  1  0.12083386  0.59137382  0.33247741  1  0  0.063261  0  0.950709  0  0  0.070561  0  1.016695  0  0  0.072803  0  1.015714  0  0.075629  0  0.101267  0.068782  0  1.017615  0
H  H31  1  0.08332818  0.33862287  0.75132884  1  0  0.089678  0  0.997929  0  0  0.094313  0  1.072661  0  0  0.097024  0  1.07199  0  0.07568  0  0.085298  0.092299  0  1.073389  0
H  H32  1  0.91666859  0.66137519  0.24867239  1  0  0.089704  0  0.99792  0  0  0.094347  0  1.072646  0  0  0.097058  0  1.071975  0  0.075701  0  0.085296  0.092332  0  1.073372  0
H  H33  1  0.14869727  0.47008119  0.85980745  1  0  0.080577  0  0.952927  0  0  0.0941  0  1.010475  0  0  0.09681  0  1.008401  0  0.080594  0  0.096922  0.091904  0  1.012356  0
H  H34  1  0.85130183  0.52991594  0.14019416  1  0  0.080594  0  0.952898  0  0  0.094133  0  1.010425  0  0  0.096842  0  1.008352  0  0.080611  0  0.096933  0.091937  0  1.012305  0
H  H35  1  0.00404519  0.66976501  0.87566314  1  0  0.102311  0  0.985567  0  0  0.110768  0  1.051116  0  0  0.113973  0  1.049828  0  0.090469  0  0.093929  0.108417  0  1.052273  0
H  H36  1  0.99595509  0.33023305  0.12433725  1  0  0.102326  0  0.985572  0  0  0.110788  0  1.051111  0  0  0.113994  0  1.049823  0  0.090341  0  0.093935  0.108436  0  1.052273  0
H  H37  1  0.86632594  0.10569721  0.72105697  1  0  0.1295  0  0.95712  0  0  0.139929  0  1.02486  0  0  0.142439  0  1.024288  0  0.098366  0  0.095452  0.13804  0  1.025471  0
H  H38  1  0.13366975  0.89430544  0.27894284  1  0  0.129471  0  0.957165  0  0  0.139903  0  1.024895  0  0  0.142413  0  1.024331  0  0.098503  0  0.095434  0.138013  0  1.025505  0
H  H39  1  0.68244488  0.17507196  0.72856814  1  0  0.113378  0  0.958817  0  0  0.129179  0  1.017454  0  0  0.130382  0  1.019478  0  0.079704  0  0.10239  0.128285  0  1.016176  0
H  H40  1  0.31754840  0.82492701  0.27143373  1  0  0.113414  0  0.958799  0  0  0.129232  0  1.017402  0  0  0.130436  0  1.019426  0  0.079726  0  0.102428  0.128337  0  1.016123  0
H  H41  1  0.55603611  0.01232709  0.90511101  1  0  0.084413  0  0.954275  0  0  0.098038  0  1.023856  0  0  0.099114  0  1.02422  0  0.0795  0  0.090815  0.097272  0  1.023596  0
H  H42  1  0.44396303  0.98767280  0.09489004  1  0  0.084412  0  0.954259  0  0  0.098037  0  1.023805  0  0  0.099114  0  1.024166  0  0.079389  0  0.090813  0.097272  0  1.023549  0
H  H43  1  0.74740074  0.96695681  0.90480016  1  0  0.088234  0  0.97476  0  0  0.100849  0  1.044177  0  0  0.102306  0  1.043515  0  0.087009  0  0.085157  0.099741  0  1.044775  0
H  H44  1  0.25259958  0.03304309  0.09519986  1  0  0.088222  0  0.974789  0  0  0.100813  0  1.0442  0  0  0.10227  0  1.043537  0  0.087008  0  0.085135  0.099706  0  1.0448  0
H  H45  1  0.91333635  0.25546168  0.03265341  1  0  0.059025  0  0.994697  0  0  0.066171  0  1.065321  0  0  0.068375  0  1.062402  0  0.083738  0  0.094711  0.064548  0  1.067382  0
H  H46  1  0.08665926  0.74453637  0.96735034  1  0  0.059038  0  0.994733  0  0  0.066188  0  1.065344  0  0  0.068392  0  1.062425  0  0.083728  0  0.094727  0.064565  0  1.067406  0
H  H47  1  0.72309026  0.42699295  0.04170934  1  0  0.093808  0  0.950385  0  0  0.1069  0  1.006588  0  0  0.109405  0  1.006573  0  0.068722  0  0.103555  0.104999  0  1.007041  0
H  H48  1  0.27690773  0.57300786  0.95829180  1  0  0.093814  0  0.950415  0  0  0.106927  0  1.006593  0  0  0.10943  0  1.00658  0  0.068747  0  0.103563  0.105025  0  1.007046  0
H  H49  1  0.49547239  0.41322216  0.97653849  1  0  0.084717  0  0.944995  0  0  0.100732  0  0.997571  0  0  0.10267  0  0.996276  0  0.06744  0  0.106287  0.099286  0  0.998532  0
H  H50  1  0.50452912  0.58677865  0.02345957  1  0  0.084657  0  0.945033  0  0  0.100698  0  0.997578  0  0  0.102618  0  0.996308  0  0.067442  0  0.106283  0.099252  0  0.99854  0
H  H51  1  0.47674769  0.23076977  0.90437790  1  0  0.106618  0  0.990695  0  0  0.115508  0  1.055971  0  0  0.11856  0  1.055335  0  0.108103  0  0.08998  0.113252  0  1.056704  0
H  H52  1  0.52325381  0.76923104  0.09562166  1  0  0.106667  0  0.990678  0  0  0.115547  0  1.055957  0  0  0.118599  0  1.055321  0  0.108099  0  0.089996  0.11329  0  1.05669  0
C  C53  1  0.47501986  0.38044959  0.66640570  1  0  0.118303  0  3.735341  0  0  0.089608  0  3.986347  0  0  0.096069  0  4.006771  0  0.46164  0  0.036591  0.085591  0  3.972133  0
C  C54  1  0.52498278  0.61954938  0.33359246  1  0  0.118183  0  3.735272  0  0  0.089485  0  3.986261  0  0  0.095947  0  4.006686  0  0.461608  0  0.036547  0.085467  0  3.97205  0
C  C55  1  0.57606687  0.48174670  0.62219634  1  0  -0.110911  0  3.7282  0  0  -0.126888  0  3.984023  0  0  -0.133665  0  4.004591  0  -0.017621  0  -0.081535  -0.122464  0  3.970463  0
C  C56  1  0.42393345  0.51825319  0.37780368  1  0  -0.110817  0  3.728187  0  0  -0.126787  0  3.98401  0  0  -0.133568  0  4.004582  0  -0.017635  0  -0.081526  -0.122364  0  3.970451  0
C  C57  1  0.70927426  0.47788120  0.53119113  1  0  0.013404  0  3.711639  0  0  -0.006239  0  3.964038  0  0  -0.001903  0  3.981549  0  -0.04595  0  -0.062657  -0.0087  0  3.951702  0
C  C58  1  0.29072841  0.52211961  0.46880965  1  0  0.01341  0  3.711725  0  0  -0.00626  0  3.964121  0  0  -0.001925  0  3.981635  0  -0.046094  0  -0.062651  -0.00872  0  3.951785  0
C  C59  1  0.62898312  0.27378440  0.53767906  1  0  0.257214  0  3.708372  0  0  0.259943  0  3.95044  0  0  0.268194  0  3.971381  0  0.498535  0  0.116406  0.254492  0  3.936048  0
C  C60  1  0.37101839  0.72621641  0.46231975  1  0  0.257238  0  3.708382  0  0  0.259908  0  3.950509  0  0  0.26816  0  3.971446  0  0.498411  0  0.116377  0.254452  0  3.936113  0
C  C61  1  0.73564117  0.37271859  0.48913730  1  0  -0.17055  0  3.691734  0  0  -0.185611  0  3.935199  0  0  -0.193975  0  3.957456  0  -0.036507  0  -0.085614  -0.179977  0  3.920063  0
C  C62  1  0.26436265  0.62728130  0.51086265  1  0  -0.170605  0  3.691818  0  0  -0.185634  0  3.93533  0  0  -0.193996  0  3.957585  0  -0.036128  0  -0.085603  -0.18  0  3.920194  0
C  C63  1  0.65821987  0.15908916  0.49370250  1  0  -0.156822  0  3.722007  0  0  -0.20147  0  3.968477  0  0  -0.202594  0  3.980493  0  -0.006464  0  -0.15835  -0.200566  0  3.95996  0
C  C64  1  0.34178399  0.84091258  0.50629482  1  0  -0.156899  0  3.721998  0  0  -0.201427  0  3.968391  0  0  -0.202556  0  3.980415  0  -0.006475  0  -0.158364  -0.200502  0  3.95985  0
C  C65  1  0.77341832  0.06952841  0.53286882  1  0  -0.323175  0  3.602663  0  0  -0.34267  0  3.848677  0  0  -0.349106  0  3.859847  0  -0.480452  0  -0.160451  -0.337953  0  3.841064  0
C  C66  1  0.22658319  0.93047240  0.46712999  1  0  -0.323295  0  3.602777  0  0  -0.342736  0  3.848704  0  0  -0.349165  0  3.859862  0  -0.480472  0  -0.160511  -0.338024  0  3.841086  0
C  C67  1  0.82756690  0.85171776  0.68312293  1  0  -0.31827  0  3.611984  0  0  -0.338978  0  3.856945  0  0  -0.345311  0  3.86753  0  -0.540255  0  -0.162003  -0.334443  0  3.849646  0
C  C68  1  0.17243226  0.14828305  0.31687793  1  0  -0.318286  0  3.611979  0  0  -0.339002  0  3.85695  0  0  -0.345329  0  3.867521  0  -0.540189  0  -0.162009  -0.334463  0  3.849651  0
C  C69  1  0.77259491  0.75596357  0.79242637  1  0  -0.148583  0  3.705433  0  0  -0.195121  0  3.949599  0  0  -0.195837  0  3.961014  0  -0.034922  0  -0.161653  -0.194362  0  3.941406  0
C  C70  1  0.22740541  0.24403633  0.20757365  1  0  -0.148573  0  3.705425  0  0  -0.19512  0  3.949605  0  0  -0.195832  0  3.961009  0  -0.034914  0  -0.16165  -0.194361  0  3.941411  0
C  C71  1  0.86363098  0.63917501  0.78318242  1  0  0.248345  0  3.745107  0  0  0.2602  0  3.987634  0  0  0.266626  0  4.008382  0  0.484918  0  0.113833  0.255979  0  3.973454  0
C  C72  1  0.13636934  0.36082488  0.21681760  1  0  0.248337  0  3.745127  0  0  0.260191  0  3.987653  0  0  0.266618  0  4.008403  0  0.484905  0  0.113823  0.25597  0  3.973473  0
C  C73  1  0.90903442  0.46426131  0.71509729  1  0  0.117625  0  3.757035  0  0  0.096417  0  4.013209  0  0  0.101952  0  4.030896  0  0.483794  0  0.036597  0.093017  0  4.001073  0
C  C74  1  0.09096472  0.53573858  0.28490226  1  0  0.117652  0  3.757043  0  0  0.096444  0  4.013215  0  0  0.101978  0  4.030902  0  0.483658  0  0.036601  0.093044  0  4.001077  0
C  C75  1  0.02477932  0.42517016  0.76137920  1  0  -0.132998  0  3.773075  0  0  -0.147281  0  4.023467  0  0  -0.154357  0  4.047336  0  -0.009991  0  -0.099679  -0.142874  0  4.007423  0
C  C76  1  0.97522096  0.57482790  0.23862194  1  0  -0.133078  0  3.773065  0  0  -0.147369  0  4.023474  0  0  -0.154445  0  4.047342  0  -0.010002  0  -0.099703  -0.142961  0  4.007432  0
C  C77  1  0.06045877  0.49871405  0.82099360  1  0  -0.021936  0  3.786582  0  0  -0.037182  0  4.032109  0  0  -0.035307  0  4.053018  0  -0.105516  0  -0.080092  -0.038001  0  4.017701  0
C  C78  1  0.93953918  0.50128400  0.17900810  1  0  -0.021896  0  3.786455  0  0  -0.03716  0  4.031996  0  0  -0.035284  0  4.052905  0  -0.105503  0  -0.080057  -0.03798  0  4.017588  0
C  C79  1  0.97949434  0.60789675  0.83141530  1  0  -0.186843  0  3.739664  0  0  -0.202261  0  3.978628  0  0  -0.209861  0  4.001147  0  -0.044293  0  -0.099061  -0.197394  0  3.963606  0
C  C80  1  0.02050594  0.39210131  0.16858509  1  0  -0.186847  0  3.739661  0  0  -0.202266  0  3.978627  0  0  -0.209866  0  4.001141  0  -0.044185  0  -0.099057  -0.1974  0  3.963604  0
C  C81  1  0.73878671  0.08830844  0.75299303  1  0  -0.318591  0  3.615511  0  0  -0.338037  0  3.861414  0  0  -0.344257  0  3.872363  0  -0.490504  0  -0.163027  -0.333586  0  3.853828  0
C  C82  1  0.26120892  0.91169146  0.24700810  1  0  -0.318597  0  3.61561  0  0  -0.338053  0  3.861412  0  0  -0.344282  0  3.87237  0  -0.49065  0  -0.163069  -0.333594  0  3.853824  0
C  C83  1  0.67819703  0.04391360  0.87831587  1  0  -0.158579  0  3.695978  0  0  -0.202428  0  3.936385  0  0  -0.203632  0  3.947918  0  -0.052393  0  -0.162697  -0.201449  0  3.928373  0
C  C84  1  0.32179976  0.95608537  0.12168592  1  0  -0.15861  0  3.696066  0  0  -0.202368  0  3.936304  0  0  -0.20357  0  3.947838  0  -0.051786  0  -0.162657  -0.2014  0  3.928305  0
C  C85  1  0.68612209  0.14872196  0.92917435  1  0  0.278058  0  3.680178  0  0  0.282866  0  3.922127  0  0  0.291966  0  3.942011  0  0.474334  0  0.125538  0.27687  0  3.908493  0
C  C86  1  0.31387704  0.85127702  0.07082689  1  0  0.278125  0  3.680211  0  0  0.282922  0  3.922129  0  0  0.292021  0  3.942013  0  0.473901  0  0.125543  0.276928  0  3.908497  0
C  C87  1  0.81470298  0.25430415  0.00469676  1  0  0.13425  0  3.74675  0  0  0.10369  0  4.000442  0  0  0.111283  0  4.019432  0  0.502946  0  0.034484  0.098877  0  3.987213  0
C  C88  1  0.18529619  0.74569666  0.99530410  1  0  0.134233  0  3.746839  0  0  0.103672  0  4.000537  0  0  0.111266  0  4.019528  0  0.502958  0  0.034485  0.098859  0  3.987309  0
C  C89  1  0.70778078  0.34935996  0.00994306  1  0  -0.125744  0  3.759825  0  0  -0.14069  0  4.01532  0  0  -0.148097  0  4.037323  0  -0.020365  0  -0.091303  -0.135953  0  4.000439  0
C  C90  1  0.29222074  0.65064177  0.99005556  1  0  -0.125796  0  3.760004  0  0  -0.140766  0  4.015513  0  0  -0.148173  0  4.03751  0  -0.020294  0  -0.091317  -0.136028  0  4.000632  0
C  C91  1  0.58357604  0.34188936  0.97340617  1  0  0.002466  0  3.754253  0  0  -0.017152  0  4.007308  0  0  -0.012543  0  4.025483  0  -0.063673  0  -0.069387  -0.019706  0  3.994473  0
C  C92  1  0.41642314  0.65811238  0.02659225  1  0  0.002649  0  3.754275  0  0  -0.016975  0  4.007312  0  0  -0.012353  0  4.025489  0  -0.063751  0  -0.069341  -0.019529  0  3.994475  0
C  C93  1  0.57326814  0.24077352  0.93247686  1  0  -0.170081  0  3.692889  0  0  -0.186854  0  3.937605  0  0  -0.195669  0  3.959494  0  -0.006349  0  -0.090762  -0.181242  0  3.922861  0
C  C94  1  0.42673102  0.75922730  0.06752325  1  0  -0.170258  0  3.692951  0  0  -0.187045  0  3.937701  0  0  -0.195858  0  3.959581  0  -0.006348  0  -0.090819  -0.181432  0  3.922956  0
Se  Se95  1  0.46344820  0.91732823  0.73360754  1  0  -0.457374  0  1.90188  0  0  -0.412196  0  2.272435  0  0  -0.435381  0  2.261859  0  -0.418753  0  -0.115688  -0.396095  0  2.280469  0
Se  Se96  1  0.53655095  0.08267167  0.26639201  1  0  -0.457369  0  1.901864  0  0  -0.412197  0  2.272438  0  0  -0.435383  0  2.261863  0  -0.418728  0  -0.115685  -0.396096  0  2.280474  0
N  N97  1  0.49995078  0.27868782  0.62556256  1  0  -0.379065  0  3.238633  0  0  -0.304658  0  3.492533  0  0  -0.325452  0  3.513243  0  -1.254744  0  -0.331079  -0.2903  0  3.478036  0
N  N98  1  0.50005072  0.72131300  0.37443700  1  0  -0.379008  0  3.238536  0  0  -0.304595  0  3.492465  0  0  -0.325389  0  3.513175  0  -1.254769  0  -0.331041  -0.290237  0  3.477969  0
N  N99  1  0.82895982  0.56836300  0.72544324  1  0  -0.36195  0  3.044816  0  0  -0.32992  0  3.306703  0  0  -0.341455  0  3.321795  0  -1.202826  0  -0.325577  -0.321921  0  3.296402  0
N  N100  1  0.17104049  0.43163689  0.27455678  1  0  -0.361963  0  3.044803  0  0  -0.329934  0  3.306692  0  0  -0.34147  0  3.321784  0  -1.202696  0  -0.325584  -0.321936  0  3.296391  0
N  N101  1  0.80488798  0.15538836  0.96629496  1  0  -0.371351  0  3.182286  0  0  -0.303661  0  3.437489  0  0  -0.32448  0  3.457928  0  -1.227741  0  -0.321791  -0.289279  0  3.423213  0
N  N102  1  0.19510998  0.84461061  0.03370655  1  0  -0.37135  0  3.182275  0  0  -0.303673  0  3.43749  0  0  -0.324491  0  3.457928  0  -1.227764  0  -0.32182  -0.289293  0  3.423214  0
Cl  Cl103  1  0.15428901  0.20491941  0.58132108  1  0  -0.576546  0  0.870954  0  0  -0.511203  0  1.11773  0  0  -0.527344  0  1.097964  0  -0.662154  0  -0.324238  -0.499655  0  1.131661  0
Cl  Cl104  1  0.84571246  0.79507957  0.41867810  1  0  -0.576553  0  0.870942  0  0  -0.511204  0  1.117715  0  0  -0.527346  0  1.097952  0  -0.662154  0  -0.324242  -0.499656  0  1.131645  0
Cl  Cl105  1  0.06554101  0.94019642  0.81235404  1  0  -0.553981  0  1.01358  0  0  -0.48661  0  1.297007  0  0  -0.506512  0  1.278353  0  -0.650544  0  -0.292146  -0.471916  0  1.309699  0
Cl  Cl106  1  0.93445815  0.05980439  0.18764532  1  0  -0.55399  0  1.013566  0  0  -0.486621  0  1.296996  0  0  -0.506522  0  1.278344  0  -0.650646  0  -0.292155  -0.471929  0  1.309691  0
Cl  Cl107  1  0.21439466  0.18377923  0.89692576  1  0  -0.545237  0  1.014165  0  0  -0.479646  0  1.300883  0  0  -0.496677  0  1.278587  0  -0.646231  0  -0.281024  -0.467382  0  1.316351  0
Cl  Cl108  1  0.78560564  0.81621975  0.10307445  1  0  -0.545238  0  1.014149  0  0  -0.479659  0  1.300877  0  0  -0.496688  0  1.27858  0  -0.64622  0  -0.281026  -0.467395  0  1.316345  0
