# generated using pymatgen
data_CuP4H18C6N6Cl
_symmetry_space_group_name_H-M   'P 1'
_cell_length_a   10.75616574
_cell_length_b   11.11180384
_cell_length_c   12.68170000
_cell_angle_alpha   104.00202126
_cell_angle_beta   91.24406712
_cell_angle_gamma   102.69154066
_symmetry_Int_Tables_number   1
_chemical_formula_structural   CuP4H18C6N6Cl
_chemical_formula_sum   'Cu4 P16 H72 C24 N24 Cl4'
_cell_volume   1430.25733056
_cell_formula_units_Z   4
loop_
 _symmetry_equiv_pos_site_id
 _symmetry_equiv_pos_as_xyz
  1  'x, y, z'
loop_
 _atom_site_type_symbol
 _atom_site_label
 _atom_site_symmetry_multiplicity
 _atom_site_fract_x
 _atom_site_fract_y
 _atom_site_fract_z
 _atom_site_occupancy
 _atom_site_pbe_bader_charge
 _atom_site_pbe_bader_spin_density
 _atom_site_pbe_cm5_charge
 _atom_site_pbe_ddec_charge
 _atom_site_pbe_ddec_spin_density
 _atom_site_pbe_ddec_sum_bond_order
 _atom_site_pbe_magmom
Cu  Cu0  1  0.79020076  0.16422234  0.37910923  1  0.421087  0  0.384769  -0.013883  0  2.838967  0
Cu  Cu1  1  0.20979887  0.83577646  0.62089051  1  0.421143  0  0.384782  -0.013859  0  2.838948  0
Cu  Cu2  1  0.71727422  0.32983583  0.62610945  1  0.420229  0  0.383019  -0.014754  0  2.830791  0
Cu  Cu3  1  0.28272563  0.67016392  0.37389050  1  0.420215  0  0.383041  -0.014718  0  2.830785  0
P  P4  1  0.96346153  0.24471924  0.30127686  1  2.064779  0  0.265374  0.61537  0  4.487955  0
P  P5  1  0.03653925  0.75528051  0.69872311  1  2.064757  0  0.265362  0.615365  0  4.48798  0
P  P6  1  0.06295642  0.27536457  0.08674381  1  1.993416  0  0.326379  0.493235  0  3.935317  0
P  P7  1  0.93704436  0.72463518  0.91325616  1  1.993399  0  0.326389  0.493264  0  3.935285  0
P  P8  1  0.18006402  0.46789809  0.29590566  1  2.06962  0  0.267502  0.617539  0  4.492553  0
P  P9  1  0.81993583  0.53210167  0.70409428  1  2.069651  0  0.267519  0.617579  0  4.492485  0
P  P10  1  0.22440362  0.20194928  0.24810946  1  1.995866  0  0.34744  0.555101  0  3.851964  0
P  P11  1  0.77559623  0.79805048  0.75189127  1  1.995875  0  0.347444  0.555101  0  3.851948  0
P  P12  1  0.56186094  0.23855013  0.71596950  1  2.055263  0  0.26312  0.614428  0  4.475333  0
P  P13  1  0.43813891  0.76144962  0.28403044  1  2.055201  0  0.263049  0.6143  0  4.475415  0
P  P14  1  0.34539586  0.28461538  0.85681011  1  1.999524  0  0.333169  0.509989  0  3.907975  0
P  P15  1  0.65460399  0.71538437  0.14318984  1  1.999523  0  0.333195  0.510007  0  3.907946  0
P  P16  1  0.33401779  0.02223932  0.71537455  1  2.070878  0  0.268093  0.624331  0  4.469121  0
P  P17  1  0.66598206  0.97776044  0.28462618  1  2.071027  0  0.268058  0.624251  0  4.469203  0
P  P18  1  0.52539971  0.13022071  0.91186785  1  1.996995  0  0.336258  0.527404  0  3.916498  0
P  P19  1  0.47459992  0.86977809  0.08813189  1  1.997034  0  0.336247  0.527376  0  3.916536  0
H  H20  1  0.74284896  0.14952231  0.11352495  1  0.095317  0  0.091789  0.101521  0  1.067243  0
H  H21  1  0.25715226  0.85047935  0.88647464  1  0.095302  0  0.091777  0.1015  0  1.067257  0
H  H22  1  0.82210109  0.26699384  0.04808799  1  0.039077  0  0.096791  0.102341  0  1.030909  0
H  H23  1  0.17790013  0.73300782  0.95191239  1  0.039103  0  0.0968  0.102353  0  1.030901  0
H  H24  1  0.77988100  0.31500136  0.18357470  1  0.046454  0  0.092375  0.100006  0  1.015391  0
H  H25  1  0.22012000  0.68499935  0.81642547  1  0.046451  0  0.092381  0.100011  0  1.015382  0
H  H26  1  0.00634680  0.58394223  0.42289844  1  0.086448  0  0.088678  0.109007  0  1.055268  0
H  H27  1  0.99365305  0.41605752  0.57710150  1  0.086443  0  0.088671  0.108994  0  1.055271  0
H  H28  1  0.87386715  0.45092874  0.41207236  1  0.106672  0  0.087002  0.106514  0  1.069877  0
H  H29  1  0.12613292  0.54907197  0.58792858  1  0.106682  0  0.087018  0.106511  0  1.069882  0
H  H30  1  0.91790869  0.50840160  0.29493624  1  0.02594  0  0.084843  0.092399  0  0.994824  0
H  H31  1  0.08209023  0.49159816  0.70506448  1  0.025939  0  0.084826  0.092372  0  0.9948  0
H  H32  1  0.13070241  0.20267393  0.47986752  1  0.032622  0  0.087251  0.095268  0  1.012425  0
H  H33  1  0.86929722  0.79732487  0.52013222  1  0.032612  0  0.087247  0.095257  0  1.012428  0
H  H34  1  0.15955028  0.05855603  0.39532570  1  0.07831  0  0.093393  0.107412  0  1.042541  0
H  H35  1  0.84044957  0.94144372  0.60467425  1  0.078311  0  0.093394  0.107413  0  1.042539  0
H  H36  1  0.00145273  0.07112977  0.42464075  1  0.08177  0  0.089217  0.104738  0  1.052801  0
H  H37  1  0.99854689  0.92886903  0.57535820  1  0.081788  0  0.089215  0.104736  0  1.052812  0
H  H38  1  0.15532239  0.59770021  0.10508535  1  0.05204  0  0.09272  0.10762  0  1.013291  0
H  H39  1  0.84467746  0.40229954  0.89491460  1  0.052034  0  0.092719  0.107589  0  1.013308  0
H  H40  1  0.17710874  0.46056285  0.00676844  1  0.047904  0  0.08995  0.075359  0  1.071777  0
H  H41  1  0.82289018  0.53943690  0.99323148  1  0.047908  0  0.089944  0.075345  0  1.071773  0
H  H42  1  0.29900925  0.54382775  0.11181516  1  0.077646  0  0.091113  0.094724  0  1.061489  0
H  H43  1  0.70099060  0.45617200  0.88818399  1  0.077651  0  0.091111  0.094706  0  1.061487  0
H  H44  1  0.26016061  0.04794363  0.04054309  1  0.057553  0  0.09491  0.099389  0  1.039697  0
H  H45  1  0.73984039  0.95205707  0.95945708  1  0.057558  0  0.094896  0.099362  0  1.039729  0
H  H46  1  0.13917490  0.07560261  0.95917696  1  0.07145  0  0.102356  0.116666  0  1.0151  0
H  H47  1  0.86082588  0.92439714  0.04082300  1  0.071448  0  0.102341  0.116669  0  1.015096  0
H  H48  1  0.09522828  0.99267691  0.06154688  1  0.038911  0  0.088179  0.090443  0  1.022728  0
H  H49  1  0.90477250  0.00732284  0.93845308  1  0.038911  0  0.088175  0.090442  0  1.022728  0
H  H50  1  0.39895630  0.48879869  0.43604467  1  0.04607  0  0.089826  0.109537  0  1.054903  0
H  H51  1  0.60104284  0.51120201  0.56395546  1  0.046068  0  0.089828  0.109534  0  1.054915  0
H  H52  1  0.41115987  0.32681993  0.40583333  1  0.075276  0  0.092118  0.110561  0  1.037754  0
H  H53  1  0.58883997  0.67317983  0.59416741  1  0.075266  0  0.092111  0.110543  0  1.037762  0
H  H54  1  0.27943516  0.37494758  0.47527928  1  0.02726  0  0.089554  0.097771  0  1.013348  0
H  H55  1  0.72056398  0.62505312  0.52472086  1  0.026981  0  0.08955  0.097762  0  1.013355  0
H  H56  1  0.52281935  0.50135241  0.71971936  1  0.069069  0  0.096463  0.111144  0  1.054714  0
H  H57  1  0.47718072  0.49864830  0.28028157  1  0.069079  0  0.096464  0.111148  0  1.054657  0
H  H58  1  0.36299308  0.46959054  0.75805741  1  0.044713  0  0.097789  0.101303  0  1.017066  0
H  H59  1  0.63700770  0.53040921  0.24194334  1  0.044709  0  0.09781  0.101321  0  1.01702  0
H  H60  1  0.40146079  0.37884261  0.63304116  1  0.03109  0  0.092512  0.103489  0  1.014872  0
H  H61  1  0.59853998  0.62115714  0.36695880  1  0.031075  0  0.092513  0.103482  0  1.014863  0
H  H62  1  0.35984785  0.00412387  0.49253357  1  0.087768  0  0.089074  0.107427  0  1.056302  0
H  H63  1  0.64015200  0.99587589  0.50746638  1  0.087761  0  0.089068  0.107405  0  1.056319  0
H  H64  1  0.48918770  0.13770374  0.49526140  1  0.077553  0  0.088692  0.107356  0  1.06119  0
H  H65  1  0.51081122  0.86229601  0.50473932  1  0.077547  0  0.088689  0.107345  0  1.061182  0
H  H66  1  0.33874656  0.16209795  0.54005057  1  0.014276  0  0.086179  0.090614  0  1.015721  0
H  H67  1  0.66125399  0.83790085  0.45994918  1  0.014231  0  0.086174  0.090617  0  1.015699  0
H  H68  1  0.72895737  0.06321290  0.73951886  1  0.043063  0  0.086188  0.092408  0  1.041506  0
H  H69  1  0.27104248  0.93678685  0.26048108  1  0.043064  0  0.086192  0.09241  0  1.041489  0
H  H70  1  0.77105953  0.12952275  0.88144706  1  0.027852  0  0.09512  0.092055  0  1.06045  0
H  H71  1  0.22894053  0.87047795  0.11855309  1  0.027864  0  0.095103  0.092021  0  1.060508  0
H  H72  1  0.81713841  0.22339147  0.78637569  1  0.048898  0  0.087916  0.10268  0  1.036653  0
H  H73  1  0.18286166  0.77660924  0.21362368  1  0.048827  0  0.087922  0.102666  0  1.03666  0
H  H74  1  0.10675561  0.13711448  0.66822133  1  0.055407  0  0.090522  0.108861  0  1.000165  0
H  H75  1  0.89324517  0.86288527  0.33177863  1  0.055403  0  0.090511  0.10884  0  1.000135  0
H  H76  1  0.09421852  0.20466006  0.80866963  1  0.064591  0  0.092527  0.083479  0  1.053705  0
H  H77  1  0.90578132  0.79533969  0.19132953  1  0.064569  0  0.092523  0.083467  0  1.053728  0
H  H78  1  0.06818136  0.03663518  0.75942174  1  0.072214  0  0.09508  0.10634  0  1.051272  0
H  H79  1  0.93181849  0.96336457  0.24057821  1  0.072221  0  0.095085  0.106346  0  1.051267  0
H  H80  1  0.55983575  0.41715308  0.02367379  1  0.0411  0  0.088228  0.088632  0  1.035761  0
H  H81  1  0.44016503  0.58284667  0.97632696  1  0.04107  0  0.088217  0.088635  0  1.035786  0
H  H82  1  0.53254366  0.30283285  0.10281606  1  0.052018  0  0.10161  0.112194  0  1.017099  0
H  H83  1  0.46745619  0.69716690  0.89718467  1  0.05203  0  0.101611  0.112193  0  1.017095  0
H  H84  1  0.41083286  0.38211977  0.08319055  1  0.092386  0  0.100786  0.118075  0  1.015383  0
H  H85  1  0.58916699  0.61787998  0.91681018  1  0.09239  0  0.100781  0.118064  0  1.015424  0
H  H86  1  0.40968129  0.80626007  0.76568671  1  0.074734  0  0.088393  0.107733  0  1.051638  0
H  H87  1  0.59031949  0.19373968  0.23431326  1  0.07473  0  0.088389  0.107735  0  1.051641  0
H  H88  1  0.53864548  0.89394060  0.86527054  1  0.021369  0  0.092532  0.084576  0  1.078854  0
H  H89  1  0.46135437  0.10605915  0.13472940  1  0.021372  0  0.092543  0.084601  0  1.078835  0
H  H90  1  0.54583446  0.90369867  0.72741553  1  0.049262  0  0.086475  0.085968  0  1.061675  0
H  H91  1  0.45416561  0.09630204  0.27258462  1  0.049265  0  0.086505  0.086005  0  1.061644  0
C  C92  1  0.81408205  0.24013103  0.12607870  1  0.194094  0  -0.145748  -0.227801  0  3.943094  0
C  C93  1  0.18591872  0.75986873  0.87392126  1  0.194087  0  -0.145749  -0.22778  0  3.943036  0
C  C94  1  0.95502424  0.49164202  0.37069882  1  0.173621  0  -0.153332  -0.222869  0  3.92518  0
C  C95  1  0.04497468  0.50835774  0.62930111  1  0.173594  0  -0.153304  -0.222801  0  3.925129  0
C  C96  1  0.09451130  0.12333552  0.40759262  1  0.207088  0  -0.147486  -0.226842  0  3.949519  0
C  C97  1  0.90548855  0.87666423  0.59240732  1  0.207086  0  -0.147484  -0.226826  0  3.949518  0
C  C98  1  0.19502111  0.51286681  0.09322025  1  0.216774  0  -0.145973  -0.218593  0  3.956565  0
C  C99  1  0.80497967  0.48713294  0.90677971  1  0.216721  0  -0.145948  -0.218496  0  3.95654  0
C  C100  1  0.16585434  0.07062346  0.04173953  1  0.227706  0  -0.140683  -0.20876  0  3.923308  0
C  C101  1  0.83414551  0.92937629  0.95826042  1  0.227694  0  -0.140679  -0.208773  0  3.923324  0
C  C102  1  0.34434606  0.38957324  0.41123667  1  0.228012  0  -0.150611  -0.236114  0  3.937139  0
C  C103  1  0.65565308  0.61042746  0.58876347  1  0.228293  0  -0.150603  -0.236074  0  3.937132  0
C  C104  1  0.43766700  0.42557721  0.71819965  1  0.246914  0  -0.143797  -0.219332  0  3.931644  0
C  C105  1  0.56233400  0.57442349  0.28180131  1  0.246813  0  -0.143818  -0.219326  0  3.931527  0
C  C106  1  0.40740488  0.10125449  0.53815982  1  0.211199  0  -0.153497  -0.223685  0  3.923501  0
C  C107  1  0.59259612  0.89874622  0.46184114  1  0.21128  0  -0.153492  -0.223648  0  3.92344  0
C  C108  1  0.74099040  0.15041573  0.80582629  1  0.272879  0  -0.147321  -0.221095  0  3.945789  0
C  C109  1  0.25901060  0.84958497  0.19417387  1  0.272945  0  -0.147315  -0.221048  0  3.945814  0
C  C110  1  0.12570813  0.12802672  0.75112528  1  0.215775  0  -0.143748  -0.213611  0  3.940633  0
C  C111  1  0.87429243  0.87197208  0.24887448  1  0.215787  0  -0.143742  -0.213573  0  3.940572  0
C  C112  1  0.48718406  0.34102891  0.04393278  1  0.200899  0  -0.140033  -0.214302  0  3.923448  0
C  C113  1  0.51281579  0.65897084  0.95606795  1  0.200899  0  -0.140029  -0.214329  0  3.923502  0
C  C114  1  0.48177634  0.89613650  0.79297370  1  0.230911  0  -0.153059  -0.248287  0  3.978593  0
C  C115  1  0.51822444  0.10386325  0.20702627  1  0.23091  0  -0.153065  -0.248336  0  3.978676  0
N  N116  1  0.94037455  0.22751343  0.16352793  1  -1.701928  0  -0.344699  -0.390826  0  3.531477  0
N  N117  1  0.05962529  0.77248632  0.83647123  1  -1.701926  0  -0.344714  -0.390871  0  3.531458  0
N  N118  1  0.04220817  0.40380416  0.34958501  1  -1.682487  0  -0.34226  -0.389142  0  3.451668  0
N  N119  1  0.95779097  0.59619655  0.65041512  1  -1.68247  0  -0.342281  -0.389196  0  3.451723  0
N  N120  1  0.08141489  0.16626568  0.30742011  1  -1.720893  0  -0.344649  -0.398143  0  3.544897  0
N  N121  1  0.91858496  0.83373407  0.69257983  1  -1.720857  0  -0.344643  -0.398153  0  3.544899  0
N  N122  1  0.13371748  0.42862458  0.15993786  1  -1.7234  0  -0.34239  -0.384215  0  3.552825  0
N  N123  1  0.86628352  0.57137612  0.84006231  1  -1.723363  0  -0.342417  -0.384271  0  3.552842  0
N  N124  1  0.17249229  0.19533583  0.11814080  1  -1.709417  0  -0.340341  -0.391568  0  3.566585  0
N  N125  1  0.82750756  0.80466392  0.88185993  1  -1.709433  0  -0.340302  -0.39154  0  3.566603  0
N  N126  1  0.27522906  0.36490824  0.30323186  1  -1.688858  0  -0.344713  -0.401245  0  3.514516  0
N  N127  1  0.72477079  0.63509152  0.69676808  1  -1.688855  0  -0.344708  -0.40123  0  3.514461  0
N  N128  1  0.46681831  0.33635106  0.77922830  1  -1.698097  0  -0.346399  -0.405933  0  3.528995  0
N  N129  1  0.53318154  0.66364869  0.22077243  1  -1.697987  0  -0.346408  -0.405957  0  3.528989  0
N  N130  1  0.45305138  0.09942092  0.64836115  1  -1.69051  0  -0.343571  -0.389487  0  3.445074  0
N  N131  1  0.54694846  0.90057884  0.35163880  1  -1.690507  0  -0.343528  -0.389409  0  3.445052  0
N  N132  1  0.62270007  0.19623498  0.82305535  1  -1.710377  0  -0.345252  -0.390849  0  3.526199  0
N  N133  1  0.37729977  0.80376477  0.17694380  1  -1.710315  0  -0.345181  -0.39078  0  3.526204  0
N  N134  1  0.26203416  0.13920549  0.77882119  1  -1.738881  0  -0.339352  -0.38543  0  3.584246  0
N  N135  1  0.73796569  0.86079426  0.22117876  1  -1.738873  0  -0.339351  -0.385434  0  3.584321  0
N  N136  1  0.43153167  0.23631323  0.94797152  1  -1.707941  0  -0.338393  -0.387267  0  3.556808  0
N  N137  1  0.56846818  0.76368652  0.05202842  1  -1.707954  0  -0.33838  -0.387207  0  3.556789  0
N  N138  1  0.41950935  0.00432696  0.82344889  1  -1.695954  0  -0.342872  -0.39123  0  3.506351  0
N  N139  1  0.58049050  0.99567279  0.17655106  1  -1.696086  0  -0.342909  -0.391217  0  3.506353  0
Cl  Cl140  1  0.65958130  0.31322214  0.43812281  1  -0.650576  0  -0.292622  -0.379944  0  1.619076  0
Cl  Cl141  1  0.34041855  0.68677762  0.56187714  1  -0.650585  0  -0.292626  -0.37996  0  1.619089  0
Cl  Cl142  1  0.85106314  0.18438495  0.56627276  1  -0.648326  0  -0.300485  -0.387806  0  1.606028  0
Cl  Cl143  1  0.14893764  0.81561481  0.43372720  1  -0.648352  0  -0.300498  -0.387821  0  1.606033  0
