# generated using pymatgen
data_CdH12C16(NO2)2
_symmetry_space_group_name_H-M   'P 1'
_cell_length_a   5.06504176
_cell_length_b   7.96773601
_cell_length_c   9.58482466
_cell_angle_alpha   68.08569275
_cell_angle_beta   80.84890532
_cell_angle_gamma   74.72734825
_symmetry_Int_Tables_number   1
_chemical_formula_structural   CdH12C16(NO2)2
_chemical_formula_sum   'Cd1 H12 C16 N2 O4'
_cell_volume   345.39219429
_cell_formula_units_Z   1
loop_
 _symmetry_equiv_pos_site_id
 _symmetry_equiv_pos_as_xyz
  1  'x, y, z'
loop_
 _atom_site_type_symbol
 _atom_site_label
 _atom_site_symmetry_multiplicity
 _atom_site_fract_x
 _atom_site_fract_y
 _atom_site_fract_z
 _atom_site_occupancy
 _atom_site_hle17_bader_spin_density
 _atom_site_hle17_ddec_charge
 _atom_site_hle17_ddec_spin_density
 _atom_site_hle17_ddec_sum_bond_order
 _atom_site_hle17_magmom
 _atom_site_hse06_10hf_bader_spin_density
 _atom_site_hse06_10hf_ddec_charge
 _atom_site_hse06_10hf_ddec_spin_density
 _atom_site_hse06_10hf_ddec_sum_bond_order
 _atom_site_hse06_10hf_magmom
 _atom_site_hse06_bader_spin_density
 _atom_site_hse06_ddec_charge
 _atom_site_hse06_ddec_spin_density
 _atom_site_hse06_ddec_sum_bond_order
 _atom_site_hse06_magmom
 _atom_site_pbe_bader_spin_density
 _atom_site_pbe_cm5_charge
 _atom_site_pbe_ddec_charge
 _atom_site_pbe_ddec_spin_density
 _atom_site_pbe_ddec_sum_bond_order
 _atom_site_pbe_magmom
Cd  Cd0  1  0.49999448  0.50000108  0.49999886  1  0  1.172801  0  1.627815  0  0  0.974048  0  2.081953  0  0  1.03219  0  2.027722  0  0  0.778316  0.934309  0  2.118513  0
H  H1  1  0.21993483  0.19002768  0.47706466  1  0  0.091155  0  0.990237  0  0  0.097789  0  1.05378  0  0  0.101169  0  1.050947  0  0  0.112715  0.095245  0  1.056033  0
H  H2  1  0.78006861  0.80997300  0.52293437  1  0  0.091204  0  0.990221  0  0  0.09782  0  1.053784  0  0  0.101203  0  1.050942  0  0  0.112739  0.095277  0  1.056035  0
H  H3  1  0.83590023  0.42909503  0.20297747  1  0  0.080397  0  0.979118  0  0  0.086543  0  1.049308  0  0  0.088932  0  1.047802  0  0  0.111507  0.084766  0  1.050559  0
H  H4  1  0.16410029  0.57090847  0.79701781  1  0  0.080392  0  0.979089  0  0  0.086522  0  1.049304  0  0  0.088911  0  1.047801  0  0  0.111512  0.084745  0  1.050555  0
H  H5  1  0.24382290  0.98705070  0.32509246  1  0  0.115279  0  0.951856  0  0  0.124149  0  1.011459  0  0  0.127504  0  1.010973  0  0  0.107864  0.121795  0  1.011808  0
H  H6  1  0.75618633  0.01294438  0.67490987  1  0  0.115318  0  0.951822  0  0  0.124172  0  1.011436  0  0  0.127527  0  1.010951  0  0  0.107889  0.121814  0  1.011792  0
H  H7  1  0.56352421  0.02589062  0.09350996  1  0  0.092591  0  0.957597  0  0  0.103268  0  1.022613  0  0  0.105701  0  1.020842  0  0  0.105324  0.10141  0  1.024048  0
H  H8  1  0.43648055  0.97410588  0.90649127  1  0  0.092602  0  0.957626  0  0  0.103293  0  1.022617  0  0  0.105725  0  1.020846  0  0  0.105347  0.101435  0  1.024053  0
H  H9  1  0.08618596  0.31675517  0.98785772  1  0  0.089305  0  0.961325  0  0  0.099841  0  1.027092  0  0  0.102362  0  1.02544  0  0  0.101815  0.098089  0  1.028125  0
H  H10  1  0.91381299  0.68324696  0.01213708  1  0  0.08932  0  0.961274  0  0  0.099817  0  1.027096  0  0  0.102347  0  1.025419  0  0  0.101802  0.098066  0  1.028129  0
H  H11  1  0.64648392  0.23169006  0.85115730  1  0  0.11828  0  0.974122  0  0  0.125439  0  1.040426  0  0  0.129639  0  1.038282  0  0  0.101553  0.122454  0  1.042129  0
H  H12  1  0.35350906  0.76831205  0.14884323  1  0  0.118292  0  0.974149  0  0  0.125444  0  1.040451  0  0  0.129642  0  1.038312  0  0  0.101561  0.122459  0  1.042154  0
C  C13  1  0.36422452  0.19525446  0.37893229  1  0  0.11899  0  3.694981  0  0  0.087646  0  3.947445  0  0  0.094825  0  3.965085  0  0  0.043392  0.083141  0  3.935406  0
C  C14  1  0.63577935  0.80474483  0.62106712  1  0  0.118971  0  3.694986  0  0  0.087613  0  3.947474  0  0  0.094794  0  3.965112  0  0  0.043373  0.083109  0  3.935435  0
C  C15  1  0.70643323  0.33132072  0.22405412  1  0  0.082901  0  3.670751  0  0  0.04826  0  3.914374  0  0  0.054308  0  3.934187  0  0  0.046851  0.043713  0  3.901995  0
C  C16  1  0.29357064  0.66867858  0.77594425  1  0  0.082963  0  3.670646  0  0  0.048326  0  3.914269  0  0  0.054365  0  3.934097  0  0  0.046862  0.043777  0  3.901892  0
C  C17  1  0.37172546  0.08837413  0.29105100  1  0  -0.115932  0  3.737284  0  0  -0.127345  0  3.992106  0  0  -0.135038  0  4.013756  0  0  -0.083997  -0.122562  0  3.977337  0
C  C18  1  0.62828175  0.91162097  0.70895045  1  0  -0.115985  0  3.737308  0  0  -0.127382  0  3.992136  0  0  -0.135075  0  4.013785  0  0  -0.084051  -0.122597  0  3.977363  0
C  C19  1  0.54906046  0.11034368  0.16243366  1  0  -0.042762  0  3.685777  0  0  -0.066628  0  3.927501  0  0  -0.063558  0  3.946506  0  0  -0.064727  -0.068038  0  3.914232  0
C  C20  1  0.45094720  0.88965002  0.83756923  1  0  -0.042849  0  3.685828  0  0  -0.066721  0  3.927532  0  0  -0.063651  0  3.946538  0  0  -0.06477  -0.068131  0  3.914262  0
C  C21  1  0.71892774  0.23703235  0.12444585  1  0  0.024799  0  3.808368  0  0  0.05086  0  4.037514  0  0  0.044739  0  4.063617  0  0  -0.009292  0.054714  0  4.019571  0
C  C22  1  0.28107702  0.76296415  0.87555538  1  0  0.02486  0  3.808346  0  0  0.050944  0  4.037441  0  0  0.044822  0  4.063545  0  0  -0.009236  0.054798  0  4.019498  0
C  C23  1  0.89891155  0.27388195  0.98630868  1  0  -0.04693  0  3.742831  0  0  -0.073036  0  3.993711  0  0  -0.069479  0  4.014308  0  0  -0.078965  -0.074924  0  3.979401  0
C  C24  1  0.10108631  0.72611739  0.01369019  1  0  -0.046952  0  3.742828  0  0  -0.073033  0  3.993688  0  0  -0.069472  0  4.014287  0  0  -0.078961  -0.074923  0  3.979379  0
C  C25  1  0.84036642  0.26294119  0.85820168  1  0  -0.240161  0  3.670831  0  0  -0.252975  0  3.928769  0  0  -0.265435  0  3.947275  0  0  -0.10287  -0.24481  0  3.916161  0
C  C26  1  0.15962944  0.73705814  0.14179841  1  0  -0.240163  0  3.670888  0  0  -0.252964  0  3.928817  0  0  -0.265433  0  3.947331  0  0  -0.102885  -0.244801  0  3.916211  0
C  C27  1  0.01418463  0.30496394  0.71416081  1  0  0.692691  0  3.913716  0  0  0.641093  0  4.20979  0  0  0.677374  0  4.201237  0  0  0.199523  0.616741  0  4.214506  0
C  C28  1  0.98580861  0.69504369  0.28584010  1  0  0.692741  0  3.91364  0  0  0.641142  0  4.209701  0  0  0.677425  0  4.201148  0  0  0.199629  0.616789  0  4.214418  0
N  N29  1  0.53049638  0.31374104  0.34666623  1  0  -0.327532  0  3.228737  0  0  -0.250072  0  3.49339  0  0  -0.270021  0  3.51234  0  0  -0.322852  -0.236568  0  3.480445  0
N  N30  1  0.46950259  0.68626107  0.65333066  1  0  -0.327599  0  3.228703  0  0  -0.250119  0  3.493353  0  0  -0.270067  0  3.5123  0  0  -0.322871  -0.236615  0  3.48041  0
O  O31  1  0.91200248  0.30961755  0.59879921  1  0  -0.662315  0  2.020178  0  0  -0.596004  0  2.278746  0  0  -0.623613  0  2.26502  0  0  -0.333248  -0.577317  0  2.287939  0
O  O32  1  0.08799164  0.69038732  0.40120143  1  0  -0.662307  0  2.020143  0  0  -0.595966  0  2.278679  0  0  -0.623573  0  2.264953  0  0  -0.33326  -0.57728  0  2.287874  0
O  O33  1  0.25253175  0.33110712  0.71309777  1  0  -0.657138  0  2.013185  0  0  -0.585835  0  2.268405  0  0  -0.615486  0  2.257235  0  0  -0.323749  -0.564984  0  2.275153  0
O  O34  1  0.74746478  0.66889638  0.28689994  1  0  -0.657227  0  2.013192  0  0  -0.585949  0  2.268445  0  0  -0.615603  0  2.257275  0  0  -0.323838  -0.565095  0  2.275192  0
