# generated using pymatgen
data_CdH13C15(NO2)3
_symmetry_space_group_name_H-M   'P 1'
_cell_length_a   8.06999373
_cell_length_b   9.16027997
_cell_length_c   12.96665245
_cell_angle_alpha   110.72930302
_cell_angle_beta   107.22375555
_cell_angle_gamma   89.96365627
_symmetry_Int_Tables_number   1
_chemical_formula_structural   CdH13C15(NO2)3
_chemical_formula_sum   'Cd2 H26 C30 N6 O12'
_cell_volume   850.44189581
_cell_formula_units_Z   2
loop_
 _symmetry_equiv_pos_site_id
 _symmetry_equiv_pos_as_xyz
  1  'x, y, z'
loop_
 _atom_site_type_symbol
 _atom_site_label
 _atom_site_symmetry_multiplicity
 _atom_site_fract_x
 _atom_site_fract_y
 _atom_site_fract_z
 _atom_site_occupancy
 _atom_site_hle17_bader_spin_density
 _atom_site_hle17_ddec_charge
 _atom_site_hle17_ddec_spin_density
 _atom_site_hle17_ddec_sum_bond_order
 _atom_site_hle17_magmom
 _atom_site_hse06_10hf_bader_spin_density
 _atom_site_hse06_10hf_ddec_charge
 _atom_site_hse06_10hf_ddec_spin_density
 _atom_site_hse06_10hf_ddec_sum_bond_order
 _atom_site_hse06_10hf_magmom
 _atom_site_hse06_bader_spin_density
 _atom_site_hse06_ddec_charge
 _atom_site_hse06_ddec_spin_density
 _atom_site_hse06_ddec_sum_bond_order
 _atom_site_hse06_magmom
 _atom_site_pbe_bader_spin_density
 _atom_site_pbe_cm5_charge
 _atom_site_pbe_ddec_charge
 _atom_site_pbe_ddec_spin_density
 _atom_site_pbe_ddec_sum_bond_order
 _atom_site_pbe_magmom
Cd  Cd0  1  0.09362237  0.55744639  0.67354266  1  0  1.104592  0  1.683896  0  0  0.907775  0  2.131579  0  0  0.966218  0  2.079901  0  0  0.762592  0.866453  0  2.166719  0
Cd  Cd1  1  0.90655515  0.88376486  0.32642885  1  0  1.104515  0  1.683514  0  0  0.907809  0  2.130749  0  0  0.966237  0  2.079129  0  0  0.762617  0.866492  0  2.165863  0
H  H2  1  0.08595560  0.17151504  0.60765217  1  0  0.084825  0  0.954186  0  0  0.090609  0  1.022395  0  0  0.093476  0  1.019459  0  0  0.114456  0.088429  0  1.024642  0
H  H3  1  0.91468539  0.56356607  0.39208191  1  0  0.08475  0  0.954473  0  0  0.090327  0  1.022861  0  0  0.093256  0  1.019894  0  0  0.114412  0.088102  0  1.025136  0
H  H4  1  0.26900572  0.97825089  0.66545291  1  0  0.123588  0  0.987175  0  0  0.129488  0  1.053252  0  0  0.133046  0  1.052535  0  0  0.109043  0.126876  0  1.054019  0
H  H5  1  0.73130619  0.31278291  0.33440786  1  0  0.123894  0  0.987427  0  0  0.130159  0  1.052865  0  0  0.133674  0  1.052134  0  0  0.109324  0.127614  0  1.053581  0
H  H6  1  0.64502071  0.36670935  0.92292604  1  0  0.124564  0  0.983956  0  0  0.131806  0  1.045663  0  0  0.135866  0  1.043656  0  0  0.108768  0.128919  0  1.047236  0
H  H7  1  0.35519585  0.44407453  0.07725574  1  0  0.123943  0  0.983325  0  0  0.131313  0  1.045004  0  0  0.135385  0  1.042934  0  0  0.108588  0.128426  0  1.046568  0
H  H8  1  0.45273637  0.54464876  0.84861940  1  0  0.065585  0  0.967086  0  0  0.07211  0  1.037046  0  0  0.073814  0  1.036527  0  0  0.107546  0.070858  0  1.037447  0
H  H9  1  0.54770310  0.69609666  0.15150202  1  0  0.065148  0  0.967928  0  0  0.071805  0  1.037665  0  0  0.073447  0  1.037127  0  0  0.107656  0.070603  0  1.038068  0
H  H10  1  0.50923848  0.93085267  0.78980340  1  0  0.306528  0  0.924431  0  0  0.283692  0  0.997994  0  0  0.292472  0  0.991035  0  0  0.301812  0.277458  0  1.002931  0
H  H11  1  0.49079059  0.14124720  0.21015965  1  0  0.305476  0  0.92675  0  0  0.282737  0  0.999983  0  0  0.291499  0  0.99304  0  0  0.301822  0.276564  0  1.004793  0
H  H12  1  0.79413343  0.07425314  0.15794906  1  0  0.098299  0  0.941546  0  0  0.101984  0  1.013081  0  0  0.105557  0  1.009104  0  0  0.120588  0.099271  0  1.016099  0
H  H13  1  0.20556114  0.91668523  0.84216631  1  0  0.097308  0  0.9419  0  0  0.101539  0  1.012958  0  0  0.105271  0  1.008817  0  0  0.120076  0.098745  0  1.016071  0
H  H14  1  0.85627381  0.60253844  0.08408492  1  0  0.086699  0  0.920441  0  0  0.097906  0  0.976969  0  0  0.100509  0  0.974785  0  0  0.123174  0.095966  0  0.978632  0
H  H15  1  0.14346068  0.51866617  0.91562454  1  0  0.08677  0  0.921165  0  0  0.098372  0  0.977003  0  0  0.100899  0  0.974928  0  0  0.123411  0.096482  0  0.978598  0
H  H16  1  0.78718273  0.55084830  0.86999825  1  0  0.118004  0  0.953109  0  0  0.12629  0  1.011683  0  0  0.129765  0  1.010517  0  0  0.112389  0.123798  0  1.012698  0
H  H17  1  0.21234421  0.68113465  0.12972761  1  0  0.117074  0  0.953292  0  0  0.125902  0  1.01155  0  0  0.129444  0  1.010316  0  0  0.112472  0.123354  0  1.012606  0
H  H18  1  0.70800080  0.76592104  0.80051018  1  0  0.115546  0  0.938346  0  0  0.124043  0  1.000319  0  0  0.127428  0  0.997137  0  0  0.114421  0.121509  0  1.002691  0
H  H19  1  0.29176686  0.96580725  0.19948670  1  0  0.11559  0  0.938032  0  0  0.124255  0  0.999813  0  0  0.12762  0  0.99664  0  0  0.11474  0.121738  0  1.002182  0
H  H20  1  0.59314603  0.64581416  0.54696371  1  0  0.113554  0  0.950042  0  0  0.124794  0  1.009877  0  0  0.127866  0  1.007964  0  0  0.107758  0.122602  0  1.011414  0
H  H21  1  0.40703812  0.09932797  0.45310284  1  0  0.113141  0  0.950113  0  0  0.124377  0  1.010014  0  0  0.12747  0  1.008066  0  0  0.107653  0.122202  0  1.011523  0
H  H22  1  0.50476403  0.76975330  0.40474180  1  0  0.119759  0  0.965781  0  0  0.125841  0  1.030099  0  0  0.129433  0  1.029605  0  0  0.09999  0.123296  0  1.030592  0
H  H23  1  0.49505308  0.36560734  0.59520316  1  0  0.1205  0  0.965361  0  0  0.126165  0  1.030022  0  0  0.129754  0  1.029542  0  0  0.100019  0.123617  0  1.030501  0
H  H24  1  0.05013896  0.79290997  0.56775094  1  0  0.438515  0  0.865067  0  0  0.40478  0  0.933627  0  0  0.415854  0  0.917394  0  0  0.294143  0.396908  0  0.945155  0
H  H25  1  0.94992418  0.22546968  0.43251573  1  0  0.437615  0  0.866314  0  0  0.404176  0  0.934348  0  0  0.415247  0  0.918108  0  0  0.294024  0.39631  0  0.945887  0
H  H26  1  0.88133616  0.81897855  0.60525271  1  0  0.431638  0  0.81645  0  0  0.415459  0  0.869445  0  0  0.423885  0  0.85913  0  0  0.319525  0.409467  0  0.87639  0
H  H27  1  0.11835568  0.21382103  0.39457553  1  0  0.431654  0  0.815674  0  0  0.415324  0  0.869102  0  0  0.423771  0  0.859111  0  0  0.319588  0.409319  0  0.876057  0
C  C28  1  0.21194905  0.21079771  0.67597426  1  0  0.144812  0  3.714776  0  0  0.115437  0  3.964719  0  0  0.123991  0  3.983082  0  0  0.042584  0.110004  0  3.952105  0
C  C29  1  0.78858312  0.53463016  0.32386880  1  0  0.144789  0  3.718048  0  0  0.115743  0  3.967877  0  0  0.124221  0  3.986189  0  0  0.042355  0.110353  0  3.955303  0
C  C30  1  0.31359918  0.10319834  0.70898086  1  0  -0.209755  0  3.674996  0  0  -0.226343  0  3.922027  0  0  -0.237524  0  3.943216  0  0  -0.089753  -0.219116  0  3.907919  0
C  C31  1  0.68673374  0.39420203  0.29092401  1  0  -0.210052  0  3.676184  0  0  -0.226971  0  3.924159  0  0  -0.238059  0  3.945278  0  0  -0.089698  -0.219782  0  3.909975  0
C  C32  1  0.47112144  0.15712359  0.80126725  1  0  0.321351  0  3.762016  0  0  0.311949  0  4.004361  0  0  0.325992  0  4.022945  0  0  0.122731  0.302694  0  3.991533  0
C  C33  1  0.52910218  0.35600977  0.19874933  1  0  0.321418  0  3.762921  0  0  0.311088  0  4.006919  0  0  0.325131  0  4.025486  0  0  0.122415  0.301858  0  3.99411  0
C  C34  1  0.52400096  0.31972083  0.85194056  1  0  -0.214954  0  3.693993  0  0  -0.233181  0  3.942826  0  0  -0.2434  0  3.962664  0  0  -0.092661  -0.2266  0  3.929559  0
C  C35  1  0.47627436  0.46796767  0.14815636  1  0  -0.21456  0  3.69447  0  0  -0.232668  0  3.94337  0  0  -0.242886  0  3.963176  0  0  -0.09299  -0.226077  0  3.930101  0
C  C36  1  0.41505390  0.41798008  0.81131527  1  0  0.126255  0  3.770741  0  0  0.095256  0  4.030301  0  0  0.10336  0  4.049763  0  0  0.035231  0.090108  0  4.016902  0
C  C37  1  0.58536573  0.60670008  0.18871843  1  0  0.12764  0  3.76998  0  0  0.096722  0  4.029478  0  0  0.104923  0  4.048924  0  0  0.036236  0.0915  0  4.016095  0
C  C38  1  0.69080811  0.07953185  0.94436782  1  0  0.550361  0  3.819411  0  0  0.506584  0  4.101115  0  0  0.536011  0  4.100663  0  0  0.245458  0.486821  0  4.100818  0
C  C39  1  0.30894431  0.13557190  0.05582570  1  0  0.551799  0  3.817259  0  0  0.507647  0  4.099455  0  0  0.537087  0  4.098943  0  0  0.245522  0.487873  0  4.099229  0
C  C40  1  0.73975895  0.93830276  0.97406155  1  0  -0.11021  0  3.752856  0  0  -0.08657  0  3.991733  0  0  -0.098277  0  4.015478  0  0  -0.009325  -0.079297  0  3.975962  0
C  C41  1  0.25997365  0.96461502  0.02602457  1  0  -0.108722  0  3.751332  0  0  -0.085179  0  3.990388  0  0  -0.096853  0  4.014128  0  0  -0.008441  -0.077926  0  3.974633  0
C  C42  1  0.78770369  0.95885816  0.09172262  1  0  0.130058  0  3.658119  0  0  0.088303  0  3.908298  0  0  0.09743  0  3.925323  0  0  0.057381  0.082533  0  3.896686  0
C  C43  1  0.21206460  0.86746238  0.90832032  1  0  0.130526  0  3.658756  0  0  0.088458  0  3.908608  0  0  0.097434  0  3.92565  0  0  0.058351  0.08276  0  3.897032  0
C  C44  1  0.82352933  0.69569285  0.04995185  1  0  0.12081  0  3.714116  0  0  0.086222  0  3.970335  0  0  0.094195  0  3.98851  0  0  0.049161  0.081197  0  3.957809  0
C  C45  1  0.17622633  0.64600231  0.94985381  1  0  0.120526  0  3.715918  0  0  0.085844  0  3.972228  0  0  0.093889  0  3.990436  0  0  0.049248  0.080763  0  3.959683  0
C  C46  1  0.78357844  0.66662757  0.93208248  1  0  -0.115626  0  3.73385  0  0  -0.12447  0  3.987644  0  0  -0.132325  0  4.008096  0  0  -0.079036  -0.119572  0  3.973994  0
C  C47  1  0.21611153  0.73484343  0.06775079  1  0  -0.11424  0  3.734544  0  0  -0.123981  0  3.988689  0  0  -0.131903  0  4.009179  0  0  -0.079665  -0.119024  0  3.975041  0
C  C48  1  0.73991669  0.78919943  0.89297916  1  0  0.002427  0  3.65058  0  0  -0.029403  0  3.900673  0  0  -0.022838  0  3.915859  0  0  -0.055674  -0.033401  0  3.890437  0
C  C49  1  0.25979170  0.89654882  0.10700109  1  0  0.001351  0  3.652442  0  0  -0.030395  0  3.902809  0  0  -0.023838  0  3.918052  0  0  -0.056084  -0.034398  0  3.892525  0
C  C50  1  0.34987687  0.64678031  0.58930715  1  0  0.690856  0  3.917486  0  0  0.641044  0  4.215141  0  0  0.675942  0  4.205912  0  0  0.197789  0.617263  0  4.220589  0
C  C51  1  0.65014442  0.05768306  0.41061286  1  0  0.689984  0  3.920388  0  0  0.640786  0  4.217373  0  0  0.675666  0  4.208165  0  0  0.197451  0.617  0  4.22282  0
C  C52  1  0.46152245  0.68059425  0.52498136  1  0  -0.132045  0  3.638458  0  0  -0.153769  0  3.899263  0  0  -0.153323  0  3.908924  0  0  -0.077981  -0.154338  0  3.893084  0
C  C53  1  0.53860833  0.15604330  0.47503085  1  0  -0.130224  0  3.639941  0  0  -0.1522  0  3.900443  0  0  -0.151756  0  3.910129  0  0  -0.077827  -0.152773  0  3.894226  0
C  C54  1  0.41330205  0.75015931  0.44703621  1  0  -0.208616  0  3.698067  0  0  -0.225317  0  3.955011  0  0  -0.233626  0  3.969338  0  0  -0.104869  -0.220071  0  3.945686  0
C  C55  1  0.58663480  0.30369158  0.55295043  1  0  -0.209842  0  3.698958  0  0  -0.22634  0  3.955827  0  0  -0.234666  0  3.970187  0  0  -0.104674  -0.221073  0  3.946471  0
C  C56  1  0.23858119  0.80088844  0.40926149  1  0  0.681296  0  3.911851  0  0  0.636376  0  4.194417  0  0  0.671585  0  4.18649  0  0  0.193291  0.612488  0  4.199049  0
C  C57  1  0.76126678  0.39229712  0.59086107  1  0  0.68007  0  3.912793  0  0  0.636179  0  4.194092  0  0  0.67139  0  4.186177  0  0  0.193382  0.612302  0  4.198698  0
N  N58  1  0.25991895  0.36734426  0.72679611  1  0  -0.372912  0  3.271785  0  0  -0.298524  0  3.541264  0  0  -0.320509  0  3.560488  0  0  -0.342602  -0.283569  0  3.527706  0
N  N59  1  0.74059673  0.64036349  0.27311854  1  0  -0.373316  0  3.274209  0  0  -0.299092  0  3.543583  0  0  -0.321068  0  3.562794  0  0  -0.343107  -0.28415  0  3.530044  0
N  N60  1  0.56222990  0.04679441  0.83888922  1  0  -0.451385  0  3.300252  0  0  -0.392338  0  3.530337  0  0  -0.416968  0  3.538044  0  0  -0.387225  -0.375361  0  3.524457  0
N  N61  1  0.43781554  0.20819456  0.16118803  1  0  -0.45142  0  3.303176  0  0  -0.391832  0  3.533878  0  0  -0.416423  0  3.541532  0  0  -0.387353  -0.374941  0  3.528082  0
N  N62  1  0.82651277  0.83975325  0.12848147  1  0  -0.332773  0  3.281885  0  0  -0.252804  0  3.549745  0  0  -0.274158  0  3.569255  0  0  -0.328772  -0.238381  0  3.536076  0
N  N63  1  0.17331332  0.71155679  0.87145345  1  0  -0.332822  0  3.28437  0  0  -0.252941  0  3.552606  0  0  -0.274298  0  3.57213  0  0  -0.329235  -0.238509  0  3.538937  0
O  O64  1  0.75672304  0.21307581  0.01378951  1  0  -0.510746  0  1.892185  0  0  -0.473083  0  2.093791  0  0  -0.492031  0  2.088738  0  0  -0.284116  -0.459967  0  2.096901  0
O  O65  1  0.24282219  0.19976967  0.98654761  1  0  -0.511399  0  1.890168  0  0  -0.473738  0  2.091981  0  0  -0.492715  0  2.086954  0  0  -0.284341  -0.460595  0  2.095059  0
O  O66  1  0.23164040  0.52952762  0.53545021  1  0  -0.640742  0  1.943053  0  0  -0.577367  0  2.18081  0  0  -0.607823  0  2.170574  0  0  -0.333567  -0.555783  0  2.186966  0
O  O67  1  0.76841945  0.99430118  0.46446662  1  0  -0.640349  0  1.943441  0  0  -0.577193  0  2.180781  0  0  -0.607706  0  2.170668  0  0  -0.33322  -0.555554  0  2.186844  0
O  O68  1  0.38158311  0.73458532  0.69558779  1  0  -0.6524  0  1.932495  0  0  -0.590536  0  2.162625  0  0  -0.618986  0  2.154242  0  0  -0.320597  -0.570071  0  2.167397  0
O  O69  1  0.61835008  0.03907885  0.30434480  1  0  -0.652288  0  1.933223  0  0  -0.590672  0  2.162755  0  0  -0.619171  0  2.154532  0  0  -0.320753  -0.570245  0  2.167535  0
O  O70  1  0.19951075  0.83500548  0.31836171  1  0  -0.640375  0  1.925238  0  0  -0.579821  0  2.160769  0  0  -0.607998  0  2.151334  0  0  -0.327288  -0.560046  0  2.166466  0
O  O71  1  0.80022209  0.51735624  0.68179834  1  0  -0.639973  0  1.926053  0  0  -0.579793  0  2.160982  0  0  -0.607936  0  2.15155  0  0  -0.327267  -0.560054  0  2.1667  0
O  O72  1  0.13007728  0.81089570  0.46605320  1  0  -0.676005  0  2.031801  0  0  -0.597346  0  2.260784  0  0  -0.627256  0  2.250539  0  0  -0.324254  -0.576479  0  2.267172  0
O  O73  1  0.86995402  0.34559952  0.53413401  1  0  -0.674958  0  2.031247  0  0  -0.596812  0  2.25991  0  0  -0.626803  0  2.249697  0  0  -0.324299  -0.575916  0  2.266322  0
O  O74  1  0.99640857  0.78429898  0.62555834  1  0  -0.831608  0  1.821905  0  0  -0.777039  0  2.012601  0  0  -0.796828  0  1.98198  0  0  -0.582151  -0.763021  0  2.033531  0
O  O75  1  0.00348123  0.15878307  0.37461070  1  0  -0.831089  0  1.822416  0  0  -0.776752  0  2.013036  0  0  -0.796456  0  1.982762  0  0  -0.582369  -0.762803  0  2.033952  0
