# generated using pymatgen
data_V6Cu2H16C20N4O17
_symmetry_space_group_name_H-M   'P 1'
_cell_length_a   8.01074733
_cell_length_b   9.62492747
_cell_length_c   10.54678748
_cell_angle_alpha   98.89281014
_cell_angle_beta   102.66739139
_cell_angle_gamma   106.27426293
_symmetry_Int_Tables_number   1
_chemical_formula_structural   V6Cu2H16C20N4O17
_chemical_formula_sum   'V6 Cu2 H16 C20 N4 O17'
_cell_volume   741.06456533
_cell_formula_units_Z   1
loop_
 _symmetry_equiv_pos_site_id
 _symmetry_equiv_pos_as_xyz
  1  'x, y, z'
loop_
 _atom_site_type_symbol
 _atom_site_label
 _atom_site_symmetry_multiplicity
 _atom_site_fract_x
 _atom_site_fract_y
 _atom_site_fract_z
 _atom_site_occupancy
 _atom_site_hle17_ddec_charge
 _atom_site_hle17_ddec_spin_density
 _atom_site_hle17_ddec_sum_bond_order
 _atom_site_hle17_magmom
 _atom_site_hse06_10hf_ddec_charge
 _atom_site_hse06_10hf_ddec_spin_density
 _atom_site_hse06_10hf_ddec_sum_bond_order
 _atom_site_hse06_10hf_magmom
 _atom_site_hse06_ddec_charge
 _atom_site_hse06_ddec_spin_density
 _atom_site_hse06_ddec_sum_bond_order
 _atom_site_hse06_magmom
 _atom_site_pbe_cm5_charge
 _atom_site_pbe_ddec_charge
 _atom_site_pbe_ddec_spin_density
 _atom_site_pbe_ddec_sum_bond_order
 _atom_site_pbe_magmom
V  V0  1  0.23010448  0.01035971  0.56194081  1  2.004786  0.012818  2.995981  0.015  2.083651  -0.009471  3.37234  -0.015  2.178549  -0.006561  3.352129  -0.011  1.465563  2.009105  -0.011815  3.405126  -0.018
V  V1  1  0.76989381  0.98964641  0.43806119  1  2.00477  -0.01279  2.995978  -0.015  2.08362  0.009401  3.372341  0.015  2.178523  0.006591  3.352136  0.011  1.46562  2.009211  0.01181  3.404941  0.018
V  V2  1  0.76005114  0.05690983  0.83993670  1  2.005576  0.018734  2.990561  0.028  2.079004  0.021863  3.373547  0.035  2.17344  0.016975  3.350777  0.029  1.456037  2.00245  0.027034  3.413318  0.041
V  V3  1  0.23995952  0.94309841  0.16006863  1  2.005618  -0.018726  2.990454  -0.028  2.078938  -0.021844  3.373606  -0.035  2.173492  -0.016947  3.350656  -0.029  1.456051  2.00238  -0.027038  3.413358  -0.041
V  V4  1  0.22436134  0.09039978  0.88023617  1  2.021287  0.00163  3.016083  0.002  2.095937  0.000485  3.393577  0.001  2.190371  0.000348  3.370663  0.001  1.482174  2.019993  0.000924  3.430475  0.001
V  V5  1  0.77564368  0.90960405  0.11976664  1  2.021532  -0.001659  3.015702  -0.002  2.096069  -0.00045  3.393377  -0.001  2.190644  -0.000367  3.370234  -0.001  1.482245  2.020121  -0.000925  3.430273  -0.001
Cu  Cu6  1  0.47364197  0.75868322  0.55890622  1  0.996987  0.740314  1.903024  0.513  1.006792  0.808634  2.299414  0.621  1.085473  0.888422  2.230217  0.71  0.779243  0.960713  0.745344  2.345558  0.557
Cu  Cu7  1  0.52636724  0.24131833  0.44109507  1  0.996992  -0.740311  1.90318  -0.513  1.006792  -0.808627  2.299582  -0.621  1.085383  -0.888417  2.230423  -0.71  0.779261  0.960703  -0.74534  2.345736  -0.557
H  H8  1  0.42962338  0.79838389  0.84008582  1  0.096328  0.001762  0.948093  0.003  0.100978  0.001272  1.014513  0.002  0.102867  0.000868  1.011949  0.002  0.125504  0.099836  0.001631  1.015853  0.003
H  H9  1  0.57037673  0.20161105  0.15991113  1  0.096338  -0.001762  0.94815  -0.003  0.10095  -0.001272  1.014605  -0.002  0.102842  -0.000868  1.012041  -0.002  0.125479  0.099807  -0.001631  1.015944  -0.003
H  H10  1  0.02797216  0.29525402  0.59513443  1  0.11888  0.000878  0.975932  0.001  0.12694  0.000616  1.040974  0.001  0.129987  0.000392  1.039514  0.001  0.112457  0.125042  0.000838  1.04139  0.001
H  H11  1  0.97201912  0.70474436  0.40486057  1  0.118905  -0.000878  0.975929  -0.001  0.127013  -0.000615  1.040891  -0.001  0.130065  -0.000392  1.039421  -0.001  0.112456  0.125099  -0.000838  1.041351  -0.001
H  H12  1  0.04030911  0.37950122  0.83179160  1  0.104328  0.000331  0.940181  0.001  0.11436  1.8e-05  0.9995  0.0  0.116796  -1.5e-05  0.997711  0.0  0.114303  0.112419  7.8e-05  1.001224  0.0
H  H13  1  0.95969373  0.62050040  0.16820958  1  0.104338  -0.000331  0.940167  -0.001  0.114366  -1.8e-05  0.999479  0.0  0.116801  1.5e-05  0.997695  0.0  0.114307  0.112425  -7.8e-05  1.0012  0.0
H  H14  1  0.46562532  0.64620427  0.27365393  1  0.114138  0.002031  0.933008  0.003  0.123443  0.001406  0.988709  0.002  0.125642  0.000938  0.985693  0.002  0.128464  0.121841  0.001826  0.990945  0.003
H  H15  1  0.53436661  0.35380192  0.72634322  1  0.114225  -0.002032  0.932947  -0.003  0.123456  -0.001406  0.988702  -0.002  0.125654  -0.000939  0.985688  -0.002  0.128478  0.121854  -0.001826  0.99094  -0.003
H  H16  1  0.25007977  0.63809865  0.96092012  1  0.125042  0.000599  0.957996  0.001  0.135417  0.000484  1.014231  0.001  0.138489  0.00034  1.013419  0.0  0.113832  0.133449  0.000609  1.014472  0.001
H  H17  1  0.74993017  0.36189843  0.03908351  1  0.125074  -0.000598  0.957981  -0.001  0.135419  -0.000484  1.014238  -0.001  0.138488  -0.00034  1.01343  0.0  0.113851  0.133454  -0.000609  1.014474  -0.001
H  H18  1  0.29108537  0.40994793  0.09824512  1  0.124115  0.000638  0.952057  0.001  0.135521  0.000531  1.006294  0.001  0.138207  0.000365  1.006384  0.0  0.114783  0.133996  0.000664  1.005642  0.001
H  H19  1  0.70890146  0.59005830  0.90175118  1  0.124173  -0.000637  0.951987  -0.001  0.135544  -0.000531  1.006284  -0.001  0.138232  -0.000366  1.00637  0.0  0.114803  0.13402  -0.000664  1.005628  -0.001
H  H20  1  0.06716782  0.20728023  0.15841577  1  0.08641  0.000344  0.967822  0.001  0.088195  1.1e-05  1.045747  0.0  0.091077  -3.2e-05  1.042339  0.0  0.112539  0.086602  7.6e-05  1.047138  0.0
H  H21  1  0.93282820  0.79272033  0.84158033  1  0.086414  -0.000344  0.967813  -0.001  0.08821  -1.1e-05  1.045731  0.0  0.091095  3.2e-05  1.042314  0.0  0.112538  0.086618  -7.6e-05  1.04712  0.0
H  H22  1  0.03400215  0.24339165  0.38914805  1  0.112155  0.000968  0.962803  0.001  0.117548  0.000721  1.030408  0.001  0.120422  0.000468  1.029131  0.001  0.113885  0.115691  0.000952  1.031096  0.001
H  H23  1  0.96600260  0.75660213  0.61085235  1  0.112132  -0.000968  0.962817  -0.001  0.117541  -0.000721  1.030398  -0.001  0.120425  -0.000468  1.02911  -0.001  0.113883  0.115686  -0.000952  1.031084  -0.001
C  C24  1  0.23035426  0.46428407  0.45275770  1  0.167951  -0.003158  3.770908  -0.004  0.162466  0.001083  4.024267  0.0  0.170949  -0.000252  4.044581  -0.001  0.11828  0.15693  0.002114  4.010901  0.001
C  C25  1  0.76963867  0.53571205  0.54723631  1  0.167796  0.003162  3.771069  0.004  0.162318  -0.001083  4.024481  0.0  0.1708  0.000254  4.044799  0.001  0.118248  0.156784  -0.002114  4.011109  -0.001
C  C26  1  0.33959696  0.68622785  0.79025676  1  0.162347  -0.007105  3.646093  -0.008  0.137036  -0.000801  3.899175  -0.002  0.146959  -0.001922  3.917931  -0.003  0.063794  0.130237  0.00015  3.887105  -0.001
C  C27  1  0.66039423  0.31376717  0.20973870  1  0.162377  0.007104  3.646156  0.008  0.137114  0.000802  3.899168  0.002  0.147043  0.001923  3.917893  0.003  0.063895  0.130308  -0.000149  3.887112  0.001
C  C28  1  0.11745023  0.40545727  0.65171749  1  -0.118377  0.006593  3.648115  0.007  -0.136892  0.002602  3.89184  0.003  -0.144155  0.002283  3.913002  0.002  -0.067619  -0.131716  0.002914  3.876709  0.003
C  C29  1  0.88255999  0.59453422  0.34828351  1  -0.118475  -0.006586  3.648179  -0.007  -0.137051  -0.002602  3.892004  -0.003  -0.144316  -0.002283  3.913165  -0.002  -0.067629  -0.131883  -0.002914  3.876868  -0.003
C  C30  1  0.22358986  0.50126127  0.59179611  1  0.164111  -0.002576  3.764175  -0.003  0.162712  0.000864  4.011027  0.0  0.17008  -0.000286  4.033257  -0.001  0.11497  0.157685  0.001817  3.996523  0.001
C  C31  1  0.77640771  0.49873370  0.40819946  1  0.16419  0.002569  3.764088  0.003  0.162726  -0.000865  4.01104  0.0  0.17009  0.000287  4.033269  0.001  0.11495  0.157701  -0.001817  3.996531  -0.001
C  C32  1  0.12485622  0.45335881  0.78521909  1  0.022225  -0.008348  3.676364  -0.008  0.00482  -0.002701  3.921524  -0.003  0.009084  -0.002827  3.94034  -0.003  -0.052232  0.002145  -0.002532  3.908598  -0.002
C  C33  1  0.87514689  0.54663722  0.21478135  1  0.022266  0.008344  3.676503  0.008  0.004893  0.002701  3.921639  0.003  0.009156  0.002826  3.940454  0.003  -0.052243  0.00222  0.002532  3.908713  0.002
C  C34  1  0.36864460  0.55379460  0.29387983  1  0.171442  -0.00797  3.625255  -0.009  0.146227  -0.000709  3.873848  -0.002  0.158025  -0.002003  3.889056  -0.004  0.064192  0.138378  0.000399  3.864214  -0.001
C  C35  1  0.63134541  0.44620379  0.70611496  1  0.171337  0.007973  3.625164  0.009  0.146269  0.000709  3.873628  0.002  0.158063  0.002003  3.888838  0.004  0.064227  0.138418  -0.000398  3.863997  0.001
C  C36  1  0.23807908  0.59547305  0.85612534  1  -0.10039  0.010797  3.661623  0.011  -0.109323  0.004598  3.899057  0.005  -0.117818  0.003867  3.920862  0.005  -0.067622  -0.103798  0.00518  3.884536  0.006
C  C37  1  0.76192203  0.40452746  0.14387445  1  -0.100491  -0.010793  3.661725  -0.011  -0.109412  -0.004599  3.899135  -0.005  -0.117905  -0.003867  3.920949  -0.005  -0.067676  -0.103889  -0.00518  3.884611  -0.006
C  C38  1  0.26953871  0.42300213  0.19730126  1  -0.107443  0.012482  3.673557  0.013  -0.120822  0.005216  3.920776  0.006  -0.129922  0.00438  3.943176  0.005  -0.070693  -0.114968  0.005932  3.905216  0.007
C  C39  1  0.73046149  0.57699616  0.80269901  1  -0.107573  -0.012488  3.673576  -0.013  -0.12098  -0.005215  3.920787  -0.006  -0.130081  -0.004379  3.943182  -0.005  -0.070776  -0.115124  -0.005932  3.905231  -0.007
C  C40  1  0.14736044  0.31068523  0.23162712  1  0.000948  -0.009054  3.725508  -0.009  -0.021775  -0.00256  3.989611  -0.003  -0.017954  -0.00272  4.008744  -0.003  -0.057107  -0.02428  -0.002476  3.976463  -0.002
C  C41  1  0.85263213  0.68931313  0.76836715  1  0.000991  0.009059  3.725534  0.009  -0.021718  0.002559  3.989607  0.003  -0.017909  0.002719  4.008773  0.003  -0.057049  -0.024223  0.002475  3.97646  0.002
C  C42  1  0.12765670  0.33061027  0.36063966  1  -0.121763  0.0084  3.67565  0.008  -0.141236  0.003431  3.927976  0.003  -0.148161  0.003048  3.948484  0.003  -0.069103  -0.136746  0.003777  3.914849  0.004
C  C43  1  0.87233540  0.66938698  0.63935531  1  -0.121713  -0.008408  3.675678  -0.008  -0.141204  -0.00343  3.928024  -0.003  -0.148139  -0.003049  3.94853  -0.003  -0.069124  -0.136714  -0.003777  3.914895  -0.004
N  N44  1  0.34836197  0.57256766  0.41743830  1  -0.327125  0.105811  3.303022  0.128  -0.292379  0.069093  3.598753  0.09  -0.323692  0.055475  3.617638  0.076  -0.341662  -0.273555  0.07695  3.587481  0.097
N  N45  1  0.65163405  0.42743290  0.58256064  1  -0.326999  -0.105807  3.303082  -0.128  -0.292272  -0.06909  3.598751  -0.09  -0.323558  -0.055474  3.617611  -0.076  -0.341645  -0.273447  -0.076945  3.587489  -0.097
N  N46  1  0.33195274  0.64006911  0.66188039  1  -0.349023  0.093815  3.328728  0.114  -0.312545  0.061663  3.623813  0.081  -0.344086  0.04998  3.645416  0.069  -0.343046  -0.293785  0.068128  3.610883  0.086
N  N47  1  0.66804819  0.35992471  0.33811653  1  -0.349015  -0.09381  3.328707  -0.114  -0.312494  -0.061664  3.623762  -0.081  -0.344008  -0.049983  3.645347  -0.069  -0.343068  -0.293732  -0.068129  3.610827  -0.086
O  O48  1  0.26396070  0.86506752  0.48199769  1  -0.796494  -0.027551  1.408159  -0.032  -0.828703  -0.01122  1.69899  -0.014  -0.862044  -0.007553  1.687483  -0.01  -0.594972  -0.804218  -0.015522  1.708578  -0.019
O  O49  1  0.73604139  0.13493857  0.51801348  1  -0.79649  0.027538  1.408269  0.032  -0.828672  0.011245  1.699093  0.014  -0.861992  0.007524  1.687576  0.009  -0.595004  -0.804245  0.015523  1.708666  0.019
O  O50  1  0.26183093  0.00084591  0.73512638  1  -0.965292  0.000345  1.587779  0.0  -0.994209  0.000274  1.894001  0.001  -1.037375  0.000181  1.887091  0.0  -0.682648  -0.959113  0.000357  1.899769  0.001
O  O51  1  0.73817164  0.99916129  0.26487649  1  -0.965324  -0.000345  1.587679  0.0  -0.994206  -0.000274  1.893913  -0.001  -1.037414  -0.000177  1.886986  0.0  -0.682646  -0.959139  -0.000356  1.899645  -0.001
O  O52  1  0.63584968  0.82955434  0.45609111  1  -0.844356  0.080086  1.601337  0.101  -0.873419  0.043473  1.928874  0.059  -0.920126  0.033396  1.917946  0.047  -0.61792  -0.840291  0.051015  1.937161  0.066
O  O53  1  0.36415435  0.17044391  0.54390506  1  -0.84439  -0.080083  1.601492  -0.101  -0.873468  -0.043455  1.929061  -0.059  -0.920151  -0.033398  1.91812  -0.047  -0.617923  -0.84029  -0.051012  1.937373  -0.066
O  O54  1  0.61782210  0.91946556  0.71134887  1  -0.893192  0.045829  1.630222  0.06  -0.924634  0.030395  1.973887  0.042  -0.971584  0.023976  1.961458  0.035  -0.627388  -0.890859  0.034821  1.983274  0.046
O  O55  1  0.38219730  0.08053589  0.28866076  1  -0.893259  -0.045839  1.63029  -0.06  -0.924632  -0.030404  1.973917  -0.042  -0.971606  -0.023984  1.961456  -0.035  -0.627355  -0.890853  -0.034825  1.983303  -0.046
O  O56  1  0.00000026  0.00000463  0.50000277  1  -1.020798  -8e-06  1.624941  0.0  -1.046431  1.6e-05  1.931712  0.0  -1.090274  2e-06  1.924253  0.0  -0.703377  -1.011109  0.0  1.937955  0.0
O  O57  1  0.26952452  0.99265945  0.00505574  1  -0.988452  -0.000889  1.565948  -0.001  -1.012455  -0.000761  1.863369  -0.001  -1.056722  -0.000261  1.854558  0.0  -0.688784  -0.976548  -0.001278  1.872652  -0.001
O  O58  1  0.73046884  0.00733779  0.99494988  1  -0.988486  0.000887  1.56583  0.001  -1.012457  0.00076  1.863198  0.001  -1.056729  0.00026  1.854377  0.0  -0.688778  -0.976549  0.001278  1.872481  0.001
O  O59  1  0.72155209  0.21327748  0.83673281  1  -0.733621  0.003291  1.252316  0.004  -0.746915  0.001303  1.487724  0.002  -0.773667  0.000342  1.479144  0.0  -0.578642  -0.72563  0.002376  1.496995  0.003
O  O60  1  0.27843156  0.78672097  0.16325333  1  -0.733608  -0.003297  1.252268  -0.004  -0.746873  -0.001308  1.487699  -0.002  -0.773658  -0.000365  1.479081  0.0  -0.578684  -0.725587  -0.002374  1.496969  -0.003
O  O61  1  0.35180668  0.26254013  0.92737119  1  -0.725409  -0.001042  1.243562  -0.001  -0.73602  -0.000466  1.472876  -0.001  -0.761167  -0.000312  1.466644  0.0  -0.576599  -0.716683  -0.000416  1.479764  0.0
O  O62  1  0.64820671  0.73745914  0.07263523  1  -0.725547  0.001063  1.243513  0.001  -0.73615  0.000448  1.472896  0.001  -0.761337  0.000327  1.466625  0.0  -0.576672  -0.71681  0.000416  1.47978  0.0
O  O63  1  0.99549668  0.08035565  0.84463907  1  -1.017697  0.00051  1.593253  0.0  -1.046499  0.000417  1.899691  0.0  -1.092825  0.000132  1.892402  0.0  -0.692332  -1.008801  0.000673  1.907307  0.0
O  O64  1  0.00452106  0.91966368  0.15537943  1  -1.017722  -0.000508  1.593057  0.0  -1.04644  -0.000438  1.899498  0.0  -1.092837  -0.000133  1.892158  0.0  -0.692294  -1.008736  -0.000673  1.907111  0.0
