# generated using pymatgen
data_KSrTbH6C16N2O13
_symmetry_space_group_name_H-M   'P 1'
_cell_length_a   8.02367650
_cell_length_b   10.85190056
_cell_length_c   12.06922364
_cell_angle_alpha   75.38996432
_cell_angle_beta   71.19384051
_cell_angle_gamma   74.73559179
_symmetry_Int_Tables_number   1
_chemical_formula_structural   KSrTbH6C16N2O13
_chemical_formula_sum   'K2 Sr2 Tb2 H12 C32 N4 O26'
_cell_volume   943.44052885
_cell_formula_units_Z   2
loop_
 _symmetry_equiv_pos_site_id
 _symmetry_equiv_pos_as_xyz
  1  'x, y, z'
loop_
 _atom_site_type_symbol
 _atom_site_label
 _atom_site_symmetry_multiplicity
 _atom_site_fract_x
 _atom_site_fract_y
 _atom_site_fract_z
 _atom_site_occupancy
 _atom_site_hle17_bader_spin_density
 _atom_site_hle17_ddec_charge
 _atom_site_hle17_ddec_spin_density
 _atom_site_hle17_ddec_sum_bond_order
 _atom_site_hle17_magmom
 _atom_site_hse06_10hf_bader_spin_density
 _atom_site_hse06_10hf_ddec_charge
 _atom_site_hse06_10hf_ddec_spin_density
 _atom_site_hse06_10hf_ddec_sum_bond_order
 _atom_site_hse06_10hf_magmom
 _atom_site_hse06_bader_spin_density
 _atom_site_hse06_ddec_charge
 _atom_site_hse06_ddec_spin_density
 _atom_site_hse06_ddec_sum_bond_order
 _atom_site_hse06_magmom
 _atom_site_pbe_bader_spin_density
 _atom_site_pbe_cm5_charge
 _atom_site_pbe_ddec_charge
 _atom_site_pbe_ddec_spin_density
 _atom_site_pbe_ddec_sum_bond_order
 _atom_site_pbe_magmom
K  K0  1  0.27053456  0.58958768  0.40579437  1  0  0.938089  0  0.418652  0  0  0.889895  0  0.589868  0  0  0.906122  0  0.567577  0  0  0.761075  0.877332  0  0.606265  0
K  K1  1  0.72945969  0.41042283  0.59420904  1  0  0.938079  0  0.418634  0  0  0.889878  0  0.58987  0  0  0.906113  0  0.56757  0  0  0.761064  0.877314  0  0.60627  0
Sr  Sr2  1  0.07457784  0.89485895  0.15394882  1  0  1.654021  0  1.071238  0  0  1.512863  0  1.449698  0  0  1.551734  0  1.401614  0  0  0.947999  1.483869  0  1.484246  0
Sr  Sr3  1  0.92542335  0.10514091  0.84605133  1  0  1.65402  0  1.071225  0  0  1.512873  0  1.449665  0  0  1.551738  0  1.401585  0  0  0.948005  1.48388  0  1.484211  0
Tb  Tb4  1  0.18753150  0.25994909  0.28128814  1  0  2.187093  0  1.751959  0  0  2.012077  0  2.257564  0  0  2.064901  0  2.211497  0  0  1.535052  1.970848  0  2.29538  0
Tb  Tb5  1  0.81246734  0.74004978  0.71871357  1  0  2.187078  0  1.751988  0  0  2.01205  0  2.257594  0  0  2.064869  0  2.21154  0  0  1.535049  1.970822  0  2.295413  0
H  H6  1  0.44020164  0.86147128  0.95987618  1  0  0.430668  0  0.870261  0  0  0.40104  0  0.931566  0  0  0.412318  0  0.915143  0  0  0.298427  0.393005  0  0.943233  0
H  H7  1  0.55979720  0.13852760  0.04012470  1  0  0.43067  0  0.870259  0  0  0.401035  0  0.931575  0  0  0.412314  0  0.915151  0  0  0.298408  0.393  0  0.943243  0
H  H8  1  0.39408486  0.99605454  0.99395715  1  0  0.409265  0  0.866137  0  0  0.385995  0  0.933236  0  0  0.39495  0  0.922717  0  0  0.309932  0.379504  0  0.940946  0
H  H9  1  0.60591924  0.00394435  0.00604425  1  0  0.4093  0  0.866066  0  0  0.386004  0  0.933182  0  0  0.394959  0  0.922666  0  0  0.309939  0.379517  0  0.940884  0
H  H10  1  0.18073262  0.32909144  0.81185577  1  0  0.127292  0  0.955711  0  0  0.132845  0  1.024235  0  0  0.137809  0  1.020589  0  0  0.123373  0.129233  0  1.027014  0
H  H11  1  0.81926781  0.67090647  0.18814582  1  0  0.127182  0  0.955795  0  0  0.132753  0  1.024324  0  0  0.137716  0  1.02067  0  0  0.123331  0.129143  0  1.027101  0
H  H12  1  0.28925689  0.65994420  0.89782976  1  0  0.129178  0  0.940561  0  0  0.136782  0  1.003791  0  0  0.140959  0  1.001419  0  0  0.121761  0.133671  0  1.005735  0
H  H13  1  0.71074326  0.34005468  0.10217001  1  0  0.129162  0  0.940545  0  0  0.136766  0  1.003775  0  0  0.140941  0  1.001407  0  0  0.121757  0.133652  0  1.005722  0
H  H14  1  0.42534930  0.18801239  0.68076220  1  0  0.126298  0  0.929228  0  0  0.135881  0  0.989293  0  0  0.140105  0  0.986421  0  0  0.128651  0.132784  0  0.991565  0
H  H15  1  0.57465398  0.81198942  0.31923790  1  0  0.126292  0  0.929253  0  0  0.135881  0  0.989313  0  0  0.140109  0  0.986436  0  0  0.128645  0.132785  0  0.991586  0
H  H16  1  0.83903062  0.04556197  0.38370360  1  0  0.129124  0  0.94252  0  0  0.134535  0  1.009683  0  0  0.139757  0  1.005242  0  0  0.131088  0.130653  0  1.013129  0
H  H17  1  0.16097161  0.95443888  0.61629362  1  0  0.129129  0  0.942554  0  0  0.134555  0  1.009696  0  0  0.139752  0  1.005284  0  0  0.131087  0.130673  0  1.013141  0
C  C18  1  0.13747021  0.18629005  0.04377872  1  0  0.643496  0  3.933246  0  0  0.594143  0  4.226161  0  0  0.627768  0  4.216255  0  0  0.227087  0.571309  0  4.232118  0
C  C19  1  0.86252731  0.81370882  0.95622327  1  0  0.643445  0  3.933242  0  0  0.594125  0  4.226091  0  0  0.627752  0  4.216187  0  0  0.227058  0.571291  0  4.232051  0
C  C20  1  0.25925453  0.54859316  0.13705356  1  0  0.653726  0  3.93059  0  0  0.604672  0  4.230949  0  0  0.637608  0  4.222081  0  0  0.222082  0.582398  0  4.23607  0
C  C21  1  0.74074507  0.45140767  0.86294507  1  0  0.653743  0  3.930489  0  0  0.604667  0  4.230887  0  0  0.637603  0  4.22202  0  0  0.222117  0.582394  0  4.236003  0
C  C22  1  0.15944165  0.27328730  0.55969985  1  0  0.644202  0  3.937778  0  0  0.596413  0  4.235019  0  0  0.630302  0  4.224583  0  0  0.217764  0.573419  0  4.241471  0
C  C23  1  0.84056086  0.72671257  0.44029919  1  0  0.644145  0  3.937942  0  0  0.596321  0  4.23525  0  0  0.630209  0  4.224817  0  0  0.217638  0.573326  0  4.241705  0
C  C24  1  0.62016910  0.12028052  0.23073457  1  0  0.645082  0  3.912477  0  0  0.595322  0  4.209703  0  0  0.628297  0  4.2008  0  0  0.229573  0.572961  0  4.214962  0
C  C25  1  0.37982974  0.87971836  0.76926548  1  0  0.645133  0  3.912421  0  0  0.595452  0  4.209555  0  0  0.628427  0  4.200647  0  0  0.229635  0.57309  0  4.214817  0
C  C26  1  0.18865642  0.31680723  0.99179475  1  0  0.129238  0  3.751498  0  0  0.133675  0  3.997049  0  0  0.135422  0  4.013458  0  0  0.126193  0.132205  0  3.986121  0
C  C27  1  0.81134214  0.68319262  0.00820597  1  0  0.129282  0  3.751467  0  0  0.133732  0  3.996982  0  0  0.135477  0  4.01339  0  0  0.126213  0.132262  0  3.986054  0
C  C28  1  0.25019424  0.49298827  0.03631434  1  0  0.117419  0  3.741062  0  0  0.121729  0  3.988878  0  0  0.122971  0  4.006577  0  0  0.122293  0.120588  0  3.977179  0
C  C29  1  0.74980695  0.50701159  0.96368581  1  0  0.11745  0  3.740981  0  0  0.12176  0  3.988818  0  0  0.123001  0  4.006518  0  0  0.122302  0.120619  0  3.977117  0
C  C30  1  0.35650819  0.21526559  0.51620076  1  0  0.118074  0  3.752952  0  0  0.122986  0  3.999943  0  0  0.124036  0  4.016531  0  0  0.126986  0.121848  0  3.989066  0
C  C31  1  0.64349459  0.78473331  0.48379844  1  0  0.118001  0  3.752966  0  0  0.122901  0  4.00001  0  0  0.12395  0  4.016598  0  0  0.126924  0.12177  0  3.989117  0
C  C32  1  0.57866831  0.14046415  0.35640005  1  0  0.10718  0  3.764257  0  0  0.112347  0  4.010808  0  0  0.11222  0  4.029177  0  0  0.120233  0.112041  0  3.998654  0
C  C33  1  0.42133289  0.85953570  0.64360176  1  0  0.107183  0  3.764168  0  0  0.11224  0  4.010837  0  0  0.112111  0  4.0292  0  0  0.120179  0.111933  0  3.998684  0
C  C34  1  0.20346565  0.37701384  0.87355938  1  0  -0.112412  0  3.619254  0  0  -0.144996  0  3.865644  0  0  -0.147561  0  3.881085  0  0  -0.054881  -0.143256  0  3.855635  0
C  C35  1  0.79653346  0.62298407  0.12644165  1  0  -0.112312  0  3.619265  0  0  -0.144939  0  3.865607  0  0  -0.147499  0  3.881048  0  0  -0.054838  -0.143201  0  3.855601  0
C  C36  1  0.26410381  0.56161406  0.92023455  1  0  -0.099411  0  3.608151  0  0  -0.134486  0  3.859892  0  0  -0.136789  0  3.875949  0  0  -0.058109  -0.13291  0  3.84963  0
C  C37  1  0.73589503  0.43838481  0.07976632  1  0  -0.099374  0  3.608126  0  0  -0.134472  0  3.859841  0  0  -0.136774  0  3.875896  0  0  -0.058112  -0.132893  0  3.849582  0
C  C38  1  0.47318151  0.17436398  0.58845070  1  0  -0.114345  0  3.651854  0  0  -0.151055  0  3.90499  0  0  -0.152124  0  3.920566  0  0  -0.054441  -0.150252  0  3.894889  0
C  C39  1  0.52682072  0.82563686  0.41154901  1  0  -0.114253  0  3.651821  0  0  -0.150972  0  3.904976  0  0  -0.152041  0  3.920551  0  0  -0.054381  -0.150175  0  3.894874  0
C  C40  1  0.70268732  0.09391441  0.42269081  1  0  -0.075609  0  3.620236  0  0  -0.113099  0  3.874203  0  0  -0.113213  0  3.888802  0  0  -0.045856  -0.112992  0  3.864869  0
C  C41  1  0.29731596  0.90608739  0.57731012  1  0  -0.075618  0  3.620324  0  0  -0.113072  0  3.874272  0  0  -0.113167  0  3.888884  0  0  -0.045836  -0.112964  0  3.864939  0
C  C42  1  0.24203233  0.50204764  0.83678667  1  0  0.018361  0  3.661666  0  0  0.035401  0  3.904188  0  0  0.036059  0  3.91914  0  0  0.024239  0.034596  0  3.894372  0
C  C43  1  0.75796678  0.49795027  0.16321353  1  0  0.018328  0  3.661765  0  0  0.035459  0  3.904184  0  0  0.036117  0  3.919132  0  0  0.024268  0.034652  0  3.894374  0
C  C44  1  0.64937523  0.11221400  0.54051028  1  0  -0.002144  0  3.690608  0  0  0.015208  0  3.933862  0  0  0.013671  0  3.949342  0  0  0.018626  0.015927  0  3.923708  0
C  C45  1  0.35062410  0.88778780  0.45948984  1  0  -0.002238  0  3.69053  0  0  0.015118  0  3.933784  0  0  0.013581  0  3.949257  0  0  0.018592  0.015835  0  3.923618  0
C  C46  1  0.24718365  0.57043228  0.71049725  1  0  0.705362  0  3.90554  0  0  0.658813  0  4.201282  0  0  0.692534  0  4.190575  0  0  0.227276  0.635736  0  4.207737  0
C  C47  1  0.75281436  0.42956952  0.28950149  1  0  0.705397  0  3.905417  0  0  0.658805  0  4.201193  0  0  0.692526  0  4.190487  0  0  0.227291  0.635728  0  4.207652  0
C  C48  1  0.78032996  0.05959969  0.61425473  1  0  0.717231  0  3.878751  0  0  0.666632  0  4.173102  0  0  0.701906  0  4.160825  0  0  0.242845  0.642568  0  4.180512  0
C  C49  1  0.21966910  0.94040310  0.38574192  1  0  0.717383  0  3.878489  0  0  0.666784  0  4.172845  0  0  0.702058  0  4.160566  0  0  0.242918  0.642738  0  4.180224  0
N  N50  1  0.21495381  0.37284233  0.07028655  1  0  -0.43548  0  3.323384  0  0  -0.389368  0  3.574986  0  0  -0.400997  0  3.59369  0  0  -0.390497  -0.381126  0  3.562494  0
N  N51  1  0.78504606  0.62715753  0.92971306  1  0  -0.435511  0  3.3234  0  0  -0.389403  0  3.574994  0  0  -0.401032  0  3.593698  0  0  -0.390505  -0.381162  0  3.562502  0
N  N52  1  0.41010440  0.20097000  0.40203268  1  0  -0.434554  0  3.325486  0  0  -0.390046  0  3.578188  0  0  -0.401289  0  3.597478  0  0  -0.3824  -0.381908  0  3.565334  0
N  N53  1  0.58989915  0.79903084  0.59796758  1  0  -0.434528  0  3.325278  0  0  -0.38998  0  3.578007  0  0  -0.401221  0  3.597297  0  0  -0.382371  -0.381845  0  3.565151  0
O  O54  1  0.14533396  0.13755457  0.15045848  1  0  -0.727946  0  2.057555  0  0  -0.672604  0  2.310073  0  0  -0.697705  0  2.300865  0  0  -0.372266  -0.654616  0  2.315783  0
O  O55  1  0.85466592  0.86244528  0.84954279  1  0  -0.727895  0  2.05749  0  0  -0.672583  0  2.31001  0  0  -0.697675  0  2.300778  0  0  -0.372251  -0.654596  0  2.315721  0
O  O56  1  0.26056833  0.46693397  0.23496564  1  0  -0.772207  0  2.046811  0  0  -0.72472  0  2.310171  0  0  -0.750032  0  2.299778  0  0  -0.457256  -0.706351  0  2.316616  0
O  O57  1  0.73942519  0.53306975  0.76503530  1  0  -0.77218  0  2.046814  0  0  -0.724677  0  2.310163  0  0  -0.749986  0  2.299767  0  0  -0.457305  -0.706307  0  2.316607  0
O  O58  1  0.07874879  0.32286635  0.47798998  1  0  -0.751174  0  2.029501  0  0  -0.701795  0  2.280196  0  0  -0.725575  0  2.268787  0  0  -0.435374  -0.684732  0  2.287725  0
O  O59  1  0.92125113  0.67712866  0.52200822  1  0  -0.751188  0  2.029557  0  0  -0.701783  0  2.28026  0  0  -0.725565  0  2.268857  0  0  -0.435324  -0.684721  0  2.287788  0
O  O60  1  0.49151497  0.17172467  0.18052938  1  0  -0.723992  0  2.053355  0  0  -0.665625  0  2.297487  0  0  -0.692324  0  2.287951  0  0  -0.371337  -0.646362  0  2.303416  0
O  O61  1  0.50848365  0.82827033  0.81947158  1  0  -0.724028  0  2.053299  0  0  -0.665681  0  2.297402  0  0  -0.69238  0  2.287865  0  0  -0.371371  -0.646413  0  2.30332  0
O  O62  1  0.89093078  0.34111730  0.30087625  1  0  -0.75872  0  2.035976  0  0  -0.702729  0  2.299967  0  0  -0.731676  0  2.29048  0  0  -0.423535  -0.681277  0  2.305607  0
O  O63  1  0.10906515  0.65888255  0.69912337  1  0  -0.758729  0  2.036131  0  0  -0.702742  0  2.300092  0  0  -0.731688  0  2.290604  0  0  -0.423541  -0.68129  0  2.305733  0
O  O64  1  0.13976365  0.05845587  0.38845452  1  0  -0.728237  0  2.031064  0  0  -0.673459  0  2.292406  0  0  -0.700875  0  2.282066  0  0  -0.400942  -0.653299  0  2.298749  0
O  O65  1  0.86023332  0.94154496  0.61154550  1  0  -0.728215  0  2.031085  0  0  -0.673412  0  2.292399  0  0  -0.700826  0  2.282057  0  0  -0.400903  -0.653245  0  2.298751  0
O  O66  1  0.09192721  0.13024497  0.98139699  1  0  -0.713651  0  2.028411  0  0  -0.653509  0  2.278832  0  0  -0.678948  0  2.267407  0  0  -0.369795  -0.63543  0  2.286305  0
O  O67  1  0.90807031  0.86975389  0.01860583  1  0  -0.713645  0  2.028397  0  0  -0.653512  0  2.278786  0  0  -0.678953  0  2.26736  0  0  -0.369792  -0.635433  0  2.286262  0
O  O68  1  0.40090211  0.90428734  0.03095414  1  0  -0.860837  0  1.810566  0  0  -0.8089  0  1.990038  0  0  -0.827931  0  1.962228  0  0  -0.624102  -0.79518  0  2.009674  0
O  O69  1  0.59909936  0.09571154  0.96904700  1  0  -0.860883  0  1.810476  0  0  -0.808912  0  1.990035  0  0  -0.82793  0  1.962204  0  0  -0.624095  -0.795191  0  2.009669  0
O  O70  1  0.26013102  0.66706956  0.12102723  1  0  -0.647508  0  1.945876  0  0  -0.595346  0  2.183734  0  0  -0.619038  0  2.173775  0  0  -0.348093  -0.578881  0  2.190409  0
O  O71  1  0.73986963  0.33293225  0.87897095  1  0  -0.647549  0  1.945846  0  0  -0.59538  0  2.183719  0  0  -0.619073  0  2.173763  0  0  -0.3481  -0.578917  0  2.190397  0
O  O72  1  0.91097859  0.73239642  0.32988640  1  0  -0.672462  0  1.949901  0  0  -0.622356  0  2.190452  0  0  -0.646679  0  2.1796  0  0  -0.353814  -0.60528  0  2.197587  0
O  O73  1  0.08902501  0.26759956  0.67011327  1  0  -0.672538  0  1.949791  0  0  -0.622427  0  2.190295  0  0  -0.646751  0  2.179446  0  0  -0.353903  -0.60536  0  2.197449  0
O  O74  1  0.19906097  0.86578152  0.32874193  1  0  -0.695308  0  1.965755  0  0  -0.641454  0  2.208383  0  0  -0.667019  0  2.196539  0  0  -0.389403  -0.623131  0  2.216116  0
O  O75  1  0.80094658  0.13421448  0.67125523  1  0  -0.695215  0  1.965854  0  0  -0.641374  0  2.208488  0  0  -0.666942  0  2.196648  0  0  -0.389365  -0.623042  0  2.216228  0
O  O76  1  0.76969021  0.05638050  0.18413644  1  0  -0.640663  0  1.982775  0  0  -0.590232  0  2.227829  0  0  -0.613716  0  2.218185  0  0  -0.328465  -0.5738  0  2.234194  0
O  O77  1  0.23030994  0.94361840  0.81586084  1  0  -0.640667  0  1.982736  0  0  -0.590263  0  2.227766  0  0  -0.613745  0  2.218116  0  0  -0.328479  -0.573831  0  2.234131  0
O  O78  1  0.37887485  0.53564192  0.62736385  1  0  -0.663775  0  1.890743  0  0  -0.623506  0  2.114507  0  0  -0.647997  0  2.106813  0  0  -0.401957  -0.60576  0  2.119333  0
O  O79  1  0.62112267  0.46435696  0.37263649  1  0  -0.6638  0  1.890679  0  0  -0.623543  0  2.114479  0  0  -0.648035  0  2.106787  0  0  -0.401981  -0.60579  0  2.119291  0
