# generated using pymatgen
data_SmH6(C2N3)3
_symmetry_space_group_name_H-M   'P 1'
_cell_length_a   8.64980328
_cell_length_b   8.64954058
_cell_length_c   9.35538723
_cell_angle_alpha   62.46036379
_cell_angle_beta   62.46436426
_cell_angle_gamma   59.99684931
_symmetry_Int_Tables_number   1
_chemical_formula_structural   SmH6(C2N3)3
_chemical_formula_sum   'Sm2 H12 C12 N18'
_cell_volume   512.54689466
_cell_formula_units_Z   2
loop_
 _symmetry_equiv_pos_site_id
 _symmetry_equiv_pos_as_xyz
  1  'x, y, z'
loop_
 _atom_site_type_symbol
 _atom_site_label
 _atom_site_symmetry_multiplicity
 _atom_site_fract_x
 _atom_site_fract_y
 _atom_site_fract_z
 _atom_site_occupancy
 _atom_site_hle17_bader_spin_density
 _atom_site_hle17_ddec_charge
 _atom_site_hle17_ddec_spin_density
 _atom_site_hle17_ddec_sum_bond_order
 _atom_site_hle17_magmom
 _atom_site_hse06_10hf_bader_spin_density
 _atom_site_hse06_10hf_ddec_charge
 _atom_site_hse06_10hf_ddec_spin_density
 _atom_site_hse06_10hf_ddec_sum_bond_order
 _atom_site_hse06_10hf_magmom
 _atom_site_hse06_bader_spin_density
 _atom_site_hse06_ddec_charge
 _atom_site_hse06_ddec_spin_density
 _atom_site_hse06_ddec_sum_bond_order
 _atom_site_hse06_magmom
 _atom_site_pbe_bader_spin_density
 _atom_site_pbe_cm5_charge
 _atom_site_pbe_ddec_charge
 _atom_site_pbe_ddec_spin_density
 _atom_site_pbe_ddec_sum_bond_order
 _atom_site_pbe_magmom
Sm  Sm0  1  0.80684506  0.80683949  0.57946529  1  0  1.871508  0  2.103577  0  0  1.608518  0  2.664094  0  0  1.672303  0  2.599644  0  0  1.75787  1.563915  0  2.708221  0
Sm  Sm1  1  0.19315438  0.19316029  0.42053452  1  0  1.871503  0  2.103588  0  0  1.608492  0  2.664143  0  0  1.672282  0  2.599685  0  0  1.757854  1.563888  0  2.708267  0
H  H2  1  0.32387909  0.77446487  0.79540395  1  0  0.106808  0  0.969861  0  0  0.110394  0  1.040393  0  0  0.113068  0  1.038881  0  0  0.124901  0.10843  0  1.041558  0
H  H3  1  0.77460702  0.10611267  0.79536687  1  0  0.107614  0  0.969566  0  0  0.111231  0  1.040021  0  0  0.113862  0  1.038572  0  0  0.125589  0.109343  0  1.041065  0
H  H4  1  0.10620914  0.32390977  0.79535724  1  0  0.107275  0  0.97056  0  0  0.111141  0  1.040772  0  0  0.113847  0  1.039228  0  0  0.125534  0.109183  0  1.04193  0
H  H5  1  0.67611984  0.22553630  0.20459548  1  0  0.10681  0  0.969897  0  0  0.110384  0  1.040434  0  0  0.113067  0  1.038913  0  0  0.124904  0.108419  0  1.041602  0
H  H6  1  0.22539317  0.89388710  0.20463350  1  0  0.10763  0  0.969601  0  0  0.111246  0  1.04006  0  0  0.113876  0  1.038614  0  0  0.125582  0.109359  0  1.041099  0
H  H7  1  0.89379080  0.67608860  0.20464296  1  0  0.107291  0  0.970526  0  0  0.111135  0  1.040769  0  0  0.113842  0  1.039225  0  0  0.125531  0.10918  0  1.04193  0
H  H8  1  0.14900959  0.51280824  0.96374715  1  0  0.101078  0  0.974957  0  0  0.107589  0  1.043386  0  0  0.110454  0  1.041526  0  0  0.120278  0.10553  0  1.044782  0
H  H9  1  0.51286427  0.37430066  0.96370321  1  0  0.10092  0  0.974499  0  0  0.107768  0  1.04265  0  0  0.110562  0  1.040871  0  0  0.120061  0.105753  0  1.043984  0
H  H10  1  0.37446480  0.14915752  0.96359307  1  0  0.101107  0  0.973806  0  0  0.107589  0  1.042378  0  0  0.110434  0  1.040575  0  0  0.120216  0.105539  0  1.04374  0
H  H11  1  0.85099166  0.48719154  0.03625215  1  0  0.101085  0  0.974965  0  0  0.107602  0  1.043377  0  0  0.110468  0  1.041518  0  0  0.120273  0.105542  0  1.044779  0
H  H12  1  0.48713741  0.62569911  0.03629828  1  0  0.100924  0  0.974534  0  0  0.107774  0  1.04268  0  0  0.110567  0  1.040903  0  0  0.120058  0.105757  0  1.044019  0
H  H13  1  0.62553463  0.85084225  0.03640674  1  0  0.101136  0  0.973759  0  0  0.107593  0  1.042365  0  0  0.110439  0  1.040561  0  0  0.120214  0.105543  0  1.043728  0
C  C14  1  0.13031874  0.63618275  0.85509856  1  0  0.007071  0  3.716834  0  0  -0.020641  0  3.977404  0  0  -0.020459  0  3.995241  0  0  0.013001  -0.020839  0  3.965372  0
C  C15  1  0.63622916  0.37829508  0.85506534  1  0  0.008999  0  3.714509  0  0  -0.018938  0  3.97493  0  0  -0.018672  0  3.992754  0  0  0.01407  -0.019187  0  3.96292  0
C  C16  1  0.37844319  0.13046887  0.85496281  1  0  0.007945  0  3.71451  0  0  -0.019746  0  3.975212  0  0  -0.019536  0  3.992978  0  0  0.013268  -0.019964  0  3.963248  0
C  C17  1  0.86967995  0.36381703  0.14490069  1  0  0.00705  0  3.716841  0  0  -0.020669  0  3.977419  0  0  -0.020489  0  3.995263  0  0  0.012992  -0.020869  0  3.965396  0
C  C18  1  0.36377284  0.62170470  0.14493452  1  0  0.008952  0  3.714554  0  0  -0.018986  0  3.974975  0  0  -0.01872  0  3.992802  0  0  0.014034  -0.019234  0  3.962966  0
C  C19  1  0.62155624  0.86953091  0.14503701  1  0  0.007915  0  3.714389  0  0  -0.019762  0  3.975114  0  0  -0.019552  0  3.99288  0  0  0.013272  -0.019974  0  3.963148  0
C  C20  1  0.21696110  0.76657216  0.77199818  1  0  0.024183  0  3.682297  0  0  -0.008727  0  3.944805  0  0  -0.005561  0  3.961204  0  0  0.024137  -0.010736  0  3.933706  0
C  C21  1  0.76666053  0.24436529  0.77197760  1  0  0.020952  0  3.68264  0  0  -0.012051  0  3.94537  0  0  -0.008867  0  3.961814  0  0  0.022111  -0.0141  0  3.934252  0
C  C22  1  0.24444583  0.21704360  0.77192421  1  0  0.022019  0  3.682155  0  0  -0.011223  0  3.944674  0  0  -0.008102  0  3.961062  0  0  0.022741  -0.013228  0  3.933577  0
C  C23  1  0.78303814  0.23342902  0.22799963  1  0  0.024158  0  3.682291  0  0  -0.008733  0  3.944812  0  0  -0.005574  0  3.961204  0  0  0.024121  -0.010742  0  3.933717  0
C  C24  1  0.23334064  0.75563588  0.22802350  1  0  0.020943  0  3.682696  0  0  -0.012064  0  3.945428  0  0  -0.008881  0  3.96187  0  0  0.02215  -0.014111  0  3.934318  0
C  C25  1  0.75555305  0.78295477  0.22807705  1  0  0.021996  0  3.682123  0  0  -0.01123  0  3.944641  0  0  -0.008109  0  3.961027  0  0  0.022726  -0.013241  0  3.933553  0
N  N26  1  0.01912245  0.84526633  0.64855625  1  0  -0.226811  0  3.328886  0  0  -0.182825  0  3.614422  0  0  -0.191434  0  3.636006  0  0  -0.262358  -0.176813  0  3.599687  0
N  N27  1  0.84527421  0.48700408  0.64856846  1  0  -0.225757  0  3.328347  0  0  -0.181728  0  3.613807  0  0  -0.190334  0  3.635423  0  0  -0.262231  -0.175715  0  3.599037  0
N  N28  1  0.48704389  0.01914425  0.64853102  1  0  -0.225857  0  3.328978  0  0  -0.181817  0  3.614462  0  0  -0.190431  0  3.636084  0  0  -0.260991  -0.175799  0  3.59969  0
N  N29  1  0.98087773  0.15473345  0.35144412  1  0  -0.226795  0  3.32888  0  0  -0.182803  0  3.61441  0  0  -0.191412  0  3.635994  0  0  -0.262328  -0.176796  0  3.599676  0
N  N30  1  0.15472653  0.51299710  0.35143046  1  0  -0.225769  0  3.328435  0  0  -0.181738  0  3.613892  0  0  -0.190343  0  3.635507  0  0  -0.262241  -0.17572  0  3.599117  0
N  N31  1  0.51295554  0.98085553  0.35146880  1  0  -0.225963  0  3.329035  0  0  -0.181929  0  3.614535  0  0  -0.190545  0  3.63616  0  0  -0.261031  -0.175907  0  3.599759  0
N  N32  1  0.00713790  0.68919203  0.77528194  1  0  -0.335924  0  3.179108  0  0  -0.291369  0  3.458322  0  0  -0.301452  0  3.476625  0  0  -0.301785  -0.284189  0  3.445783  0
N  N33  1  0.68918172  0.52831239  0.77525928  1  0  -0.338196  0  3.17899  0  0  -0.293715  0  3.458461  0  0  -0.303766  0  3.476687  0  0  -0.302809  -0.286545  0  3.445949  0
N  N34  1  0.52842970  0.00726847  0.77516357  1  0  -0.336608  0  3.179578  0  0  -0.292016  0  3.458711  0  0  -0.302093  0  3.476998  0  0  -0.302751  -0.284836  0  3.446171  0
N  N35  1  0.99286229  0.31080775  0.22471843  1  0  -0.33593  0  3.179084  0  0  -0.29137  0  3.458301  0  0  -0.301455  0  3.476603  0  0  -0.301791  -0.284186  0  3.44576  0
N  N36  1  0.31081846  0.47168739  0.22474109  1  0  -0.338138  0  3.179016  0  0  -0.293652  0  3.45848  0  0  -0.303703  0  3.476707  0  0  -0.302776  -0.286484  0  3.445965  0
N  N37  1  0.47156848  0.99273271  0.22483531  1  0  -0.336529  0  3.179439  0  0  -0.291929  0  3.458557  0  0  -0.302006  0  3.476846  0  0  -0.302685  -0.28475  0  3.446017  0
N  N38  1  0.14529735  0.89528625  0.64314668  1  0  -0.300507  0  3.225114  0  0  -0.2509  0  3.505282  0  0  -0.262356  0  3.524062  0  0  -0.304177  -0.24301  0  3.492509  0
N  N39  1  0.89536227  0.31619090  0.64315518  1  0  -0.298231  0  3.225184  0  0  -0.248573  0  3.505184  0  0  -0.260044  0  3.524034  0  0  -0.302707  -0.240673  0  3.492373  0
N  N40  1  0.31622989  0.14527677  0.64315024  1  0  -0.299591  0  3.225088  0  0  -0.249953  0  3.505366  0  0  -0.261417  0  3.524215  0  0  -0.303974  -0.242055  0  3.492548  0
N  N41  1  0.85470316  0.10471353  0.35685207  1  0  -0.300468  0  3.225049  0  0  -0.250868  0  3.505222  0  0  -0.262325  0  3.524004  0  0  -0.304165  -0.242974  0  3.492447  0
N  N42  1  0.10463666  0.68381027  0.35684426  1  0  -0.29825  0  3.225215  0  0  -0.248593  0  3.505216  0  0  -0.260063  0  3.524063  0  0  -0.302726  -0.240697  0  3.492413  0
N  N43  1  0.68377030  0.85472300  0.35685013  1  0  -0.299546  0  3.225073  0  0  -0.249907  0  3.505345  0  0  -0.261369  0  3.524194  0  0  -0.303965  -0.242007  0  3.492529  0
