# generated using pymatgen
data_HgH11C16I2N2Cl
_symmetry_space_group_name_H-M   'P 1'
_cell_length_a   7.28997173
_cell_length_b   8.67814579
_cell_length_c   28.04372110
_cell_angle_alpha   89.99998361
_cell_angle_beta   90.00014914
_cell_angle_gamma   89.99968734
_symmetry_Int_Tables_number   1
_chemical_formula_structural   HgH11C16I2N2Cl
_chemical_formula_sum   'Hg4 H44 C64 I8 N8 Cl4'
_cell_volume   1774.14219588
_cell_formula_units_Z   4
loop_
 _symmetry_equiv_pos_site_id
 _symmetry_equiv_pos_as_xyz
  1  'x, y, z'
loop_
 _atom_site_type_symbol
 _atom_site_label
 _atom_site_symmetry_multiplicity
 _atom_site_fract_x
 _atom_site_fract_y
 _atom_site_fract_z
 _atom_site_occupancy
 _atom_site_hle17_bader_spin_density
 _atom_site_hle17_ddec_charge
 _atom_site_hle17_ddec_spin_density
 _atom_site_hle17_ddec_sum_bond_order
 _atom_site_hle17_magmom
 _atom_site_hse06_10hf_bader_charge
 _atom_site_hse06_10hf_bader_spin_density
 _atom_site_hse06_10hf_ddec_charge
 _atom_site_hse06_10hf_ddec_spin_density
 _atom_site_hse06_10hf_ddec_sum_bond_order
 _atom_site_hse06_10hf_magmom
 _atom_site_hse06_bader_spin_density
 _atom_site_hse06_ddec_charge
 _atom_site_hse06_ddec_spin_density
 _atom_site_hse06_ddec_sum_bond_order
 _atom_site_hse06_magmom
 _atom_site_pbe_bader_spin_density
 _atom_site_pbe_cm5_charge
 _atom_site_pbe_ddec_charge
 _atom_site_pbe_ddec_spin_density
 _atom_site_pbe_ddec_sum_bond_order
 _atom_site_pbe_magmom
Hg  Hg0  1  0.49243805  0.83431753  0.25256719  1  0  0.463866  0  2.288584  0  0.49486  0  0.34183  0  2.797775  0  0  0.383268  0  2.773618  0  0  0.337497  0.31433  0  2.813536  0
Hg  Hg1  1  0.49244375  0.33431671  0.24743201  1  0  0.463856  0  2.288569  0  0.494916  0  0.341806  0  2.797766  0  0  0.38325  0  2.773602  0  0  0.337479  0.314308  0  2.813524  0
Hg  Hg2  1  0.99243909  0.16568138  0.74743288  1  0  0.463847  0  2.288597  0  0.494876  0  0.341807  0  2.797791  0  0  0.383245  0  2.773633  0  0  0.337492  0.314307  0  2.813554  0
Hg  Hg3  1  0.99244162  0.66568104  0.75256735  1  0  0.463869  0  2.288537  0  0.494864  0  0.341831  0  2.797718  0  0  0.38327  0  2.773565  0  0  0.337492  0.314332  0  2.813481  0
H  H4  1  0.52307357  0.04032291  0.34748474  1  0  0.063387  0  0.981202  0  0.11351  0  0.066491  0  1.061151  0  0  0.068956  0  1.058821  0  0  0.094978  0.064625  0  1.062878  0
H  H5  1  0.52307511  0.54032267  0.15251522  1  0  0.063394  0  0.981208  0  0.113512  0  0.06647  0  1.06118  0  0  0.068951  0  1.058838  0  0  0.094977  0.064604  0  1.062906  0
H  H6  1  0.02307017  0.95968046  0.65251573  1  0  0.063367  0  0.981305  0  0.11351  0  0.066474  0  1.061248  0  0  0.068934  0  1.05892  0  0  0.094985  0.064607  0  1.062976  0
H  H7  1  0.02307548  0.45967840  0.84748452  1  0  0.063431  0  0.98121  0  0.113523  0  0.066477  0  1.061202  0  0  0.068973  0  1.058849  0  0  0.094978  0.064611  0  1.062928  0
H  H8  1  0.67204086  0.76823262  0.47017068  1  0  0.102064  0  0.941278  0  0.133133  0  0.10778  0  1.011153  0  0  0.111337  0  1.00768  0  0  0.109237  0.105205  0  1.013625  0
H  H9  1  0.67203755  0.26823546  0.02982829  1  0  0.102069  0  0.941296  0  0.133102  0  0.107761  0  1.011195  0  0  0.111326  0  1.007713  0  0  0.109207  0.105186  0  1.013667  0
H  H10  1  0.17202585  0.23176316  0.52982810  1  0  0.101992  0  0.94141  0  0.132855  0  0.107691  0  1.011289  0  0  0.111261  0  1.007779  0  0  0.109184  0.105117  0  1.013762  0
H  H11  1  0.17203052  0.73176493  0.97017192  1  0  0.102033  0  0.941348  0  0.132928  0  0.107709  0  1.011257  0  0  0.111289  0  1.007761  0  0  0.109185  0.105134  0  1.01373  0
H  H12  1  0.56710077  0.56640409  0.33195112  1  0  0.053682  0  0.998459  0  0.122907  0  0.057627  0  1.079186  0  0  0.059656  0  1.076578  0  0  0.088007  0.056089  0  1.081069  0
H  H13  1  0.56710432  0.06640220  0.16804815  1  0  0.053706  0  0.998431  0  0.122927  0  0.057629  0  1.079165  0  0  0.059658  0  1.07656  0  0  0.088006  0.056091  0  1.08105  0
H  H14  1  0.06711326  0.43359793  0.66804865  1  0  0.053706  0  0.998466  0  0.122894  0  0.057627  0  1.07919  0  0  0.059655  0  1.076585  0  0  0.088029  0.056089  0  1.081074  0
H  H15  1  0.06711109  0.93359752  0.83195163  1  0  0.053728  0  0.998445  0  0.122922  0  0.057645  0  1.07918  0  0  0.059673  0  1.076575  0  0  0.088034  0.056106  0  1.081065  0
H  H16  1  0.57363750  0.17096127  0.42192316  1  0  0.046112  0  0.963237  0  0.106061  0  0.050406  0  1.042767  0  0  0.053494  0  1.038851  0  0  0.096849  0.048114  0  1.045642  0
H  H17  1  0.57363282  0.67096225  0.07807647  1  0  0.046084  0  0.963259  0  0.106039  0  0.050381  0  1.042786  0  0  0.053468  0  1.038872  0  0  0.096828  0.048088  0  1.045662  0
H  H18  1  0.07362049  0.82903611  0.57807663  1  0  0.0461  0  0.963255  0  0.105995  0  0.050371  0  1.042793  0  0  0.053475  0  1.038866  0  0  0.096844  0.048079  0  1.04567  0
H  H19  1  0.07362516  0.32903859  0.92192438  1  0  0.046101  0  0.963253  0  0.106035  0  0.050389  0  1.042777  0  0  0.053481  0  1.038859  0  0  0.096852  0.048097  0  1.045652  0
H  H20  1  0.64878338  0.53164529  0.41749544  1  0  0.099373  0  0.961057  0  0.11658  0  0.108907  0  1.023874  0  0  0.111611  0  1.023679  0  0  0.102242  0.106981  0  1.024173  0
H  H21  1  0.64877648  0.03164578  0.08250283  1  0  0.099325  0  0.961082  0  0.116595  0  0.108856  0  1.023918  0  0  0.111558  0  1.023724  0  0  0.102214  0.10693  0  1.024217  0
H  H22  1  0.14877971  0.46835290  0.58250333  1  0  0.099331  0  0.961104  0  0.116554  0  0.108865  0  1.023935  0  0  0.111568  0  1.023741  0  0  0.102215  0.106939  0  1.024234  0
H  H23  1  0.14877701  0.96835356  0.91749701  1  0  0.099321  0  0.961023  0  0.116552  0  0.108852  0  1.023863  0  0  0.111556  0  1.023666  0  0  0.102214  0.106927  0  1.024162  0
H  H24  1  0.83321016  0.32707465  0.45164005  1  0  0.100925  0  0.9555  0  0.052088  0  0.110416  0  1.018799  0  0  0.113621  0  1.017399  0  0  0.099738  0.108131  0  1.019876  0
H  H25  1  0.83320931  0.82707681  0.04836188  1  0  0.10085  0  0.955513  0  0.052025  0  0.110353  0  1.018802  0  0  0.113549  0  1.017413  0  0  0.099681  0.108074  0  1.019873  0
H  H26  1  0.33320210  0.67292499  0.54836098  1  0  0.100847  0  0.955517  0  0.052089  0  0.110362  0  1.018787  0  0  0.113557  0  1.017399  0  0  0.09971  0.108078  0  1.019863  0
H  H27  1  0.33320844  0.17292399  0.95163773  1  0  0.100863  0  0.955505  0  0.05205  0  0.110364  0  1.018797  0  0  0.11356  0  1.017407  0  0  0.099693  0.108085  0  1.019867  0
H  H28  1  0.86350191  0.56907556  0.49873401  1  0  0.106209  0  0.953949  0  0.082712  0  0.117728  0  1.014748  0  0  0.119803  0  1.015038  0  0  0.101532  0.116222  0  1.014648  0
H  H29  1  0.86350108  0.06907843  0.00126867  1  0  0.10633  0  0.953969  0  0.082611  0  0.117847  0  1.014737  0  0  0.119923  0  1.015027  0  0  0.101578  0.116345  0  1.014631  0
H  H30  1  0.36349906  0.43092278  0.50126704  1  0  0.106223  0  0.953982  0  0.082753  0  0.117731  0  1.014784  0  0  0.119805  0  1.015077  0  0  0.101533  0.116227  0  1.014681  0
H  H31  1  0.36350264  0.93092107  0.99873202  1  0  0.106256  0  0.953929  0  0.082688  0  0.117782  0  1.014706  0  0  0.119857  0  1.014998  0  0  0.101553  0.116279  0  1.014603  0
H  H32  1  0.56649978  0.96440146  0.55855335  1  0  0.093729  0  0.972637  0  0.110973  0  0.097416  0  1.045802  0  0  0.101044  0  1.043491  0  0  0.094631  0.094885  0  1.047395  0
H  H33  1  0.56650602  0.46440738  0.94144692  1  0  0.093729  0  0.972678  0  0.111113  0  0.097421  0  1.045837  0  0  0.10105  0  1.043526  0  0  0.09465  0.094891  0  1.047428  0
H  H34  1  0.06650163  0.03559596  0.44144679  1  0  0.093752  0  0.972612  0  0.111096  0  0.097452  0  1.045764  0  0  0.101082  0  1.043454  0  0  0.094673  0.094922  0  1.047356  0
H  H35  1  0.06649814  0.53559580  0.05855286  1  0  0.093715  0  0.972663  0  0.111075  0  0.097398  0  1.045828  0  0  0.101027  0  1.043517  0  0  0.094622  0.094867  0  1.04742  0
H  H36  1  0.46617881  0.96965277  0.64352171  1  0  0.079874  0  0.981751  0  0.066418  0  0.08913  0  1.048642  0  0  0.092115  0  1.046901  0  0  0.079117  0.086913  0  1.050085  0
H  H37  1  0.46618833  0.46965877  0.85647849  1  0  0.07992  0  0.981748  0  0.066495  0  0.089183  0  1.048613  0  0  0.092166  0  1.046876  0  0  0.079151  0.086968  0  1.050056  0
H  H38  1  0.96618647  0.03034856  0.35647799  1  0  0.079892  0  0.981711  0  0.066446  0  0.089147  0  1.048605  0  0  0.092132  0  1.046865  0  0  0.07911  0.086932  0  1.050048  0
H  H39  1  0.96618107  0.53034486  0.14352156  1  0  0.079857  0  0.981782  0  0.066419  0  0.089118  0  1.048664  0  0  0.092102  0  1.046926  0  0  0.079119  0.086902  0  1.050107  0
H  H40  1  0.47990305  0.21510674  0.68951136  1  0  0.083781  0  0.967759  0  0.094185  0  0.091615  0  1.036848  0  0  0.094433  0  1.035351  0  0  0.081293  0.089544  0  1.038041  0
H  H41  1  0.47990341  0.71511326  0.81048887  1  0  0.083786  0  0.967709  0  0.093742  0  0.091638  0  1.036789  0  0  0.094457  0  1.035286  0  0  0.081307  0.089568  0  1.037981  0
H  H42  1  0.97990678  0.78489568  0.31048834  1  0  0.083827  0  0.967679  0  0.094153  0  0.091663  0  1.036766  0  0  0.094477  0  1.035274  0  0  0.08131  0.089592  0  1.037959  0
H  H43  1  0.97990231  0.28489030  0.18951084  1  0  0.08376  0  0.967797  0  0.093765  0  0.091624  0  1.036859  0  0  0.094443  0  1.03536  0  0  0.081301  0.089553  0  1.038051  0
H  H44  1  0.59847047  0.45176879  0.65211300  1  0  0.080979  0  1.007805  0  0.063442  0  0.085074  0  1.084191  0  0  0.08841  0  1.081947  0  0  0.076172  0.082638  0  1.085958  0
H  H45  1  0.59846708  0.95177874  0.84788729  1  0  0.080979  0  1.007725  0  0.063208  0  0.085104  0  1.084086  0  0  0.088443  0  1.081846  0  0  0.076174  0.082665  0  1.085856  0
H  H46  1  0.09846535  0.54822963  0.34788608  1  0  0.080973  0  1.00774  0  0.063404  0  0.085062  0  1.084126  0  0  0.088398  0  1.081882  0  0  0.076179  0.082627  0  1.08589  0
H  H47  1  0.09846874  0.04822544  0.15211323  1  0  0.08097  0  1.007751  0  0.063374  0  0.085058  0  1.084146  0  0  0.088395  0  1.081904  0  0  0.076154  0.082622  0  1.085912  0
C  C48  1  0.55159353  0.92970984  0.36457659  1  0  0.095656  0  3.667094  0  0.447867  0  0.057597  0  3.910624  0  0  0.064217  0  3.93077  0  0  0.049675  0.053411  0  3.897043  0
C  C49  1  0.55159539  0.42971143  0.13542264  1  0  0.09572  0  3.667116  0  0.447386  0  0.057699  0  3.910647  0  0  0.064305  0  3.930784  0  0  0.049693  0.053514  0  3.897066  0
C  C50  1  0.05159021  0.07028995  0.63542354  1  0  0.095621  0  3.66716  0  0.447737  0  0.057591  0  3.910707  0  0  0.064217  0  3.930854  0  0  0.049659  0.053405  0  3.897129  0
C  C51  1  0.05159658  0.57028836  0.86457784  1  0  0.095665  0  3.66713  0  0.447442  0  0.057701  0  3.91067  0  0  0.064292  0  3.930798  0  0  0.049693  0.053516  0  3.89709  0
C  C52  1  0.63544654  0.77607195  0.43259684  1  0  -0.011388  0  3.652158  0  -0.090945  0  -0.041634  0  3.902414  0  0  -0.036509  0  3.919274  0  0  -0.052282  -0.044696  0  3.890995  0
C  C53  1  0.63544361  0.27607591  0.06740210  1  0  -0.011422  0  3.652289  0  -0.09086  0  -0.041614  0  3.902527  0  0  -0.036494  0  3.919384  0  0  -0.052213  -0.044676  0  3.891109  0
C  C54  1  0.13543744  0.22392284  0.56740191  1  0  -0.0114  0  3.65229  0  -0.09056  0  -0.041546  0  3.902487  0  0  -0.036417  0  3.919354  0  0  -0.05218  -0.044611  0  3.891073  0
C  C55  1  0.13544037  0.72392464  0.93259808  1  0  -0.011458  0  3.652281  0  -0.090686  0  -0.041615  0  3.902527  0  0  -0.036511  0  3.919378  0  0  -0.052204  -0.044679  0  3.891112  0
C  C56  1  0.59971607  0.92165038  0.41278704  1  0  -0.00362  0  3.792284  0  0.078916  0  0.022084  0  4.020311  0  0  0.014784  0  4.044052  0  0  -0.002719  0.026587  0  4.004515  0
C  C57  1  0.59971608  0.42165086  0.08721187  1  0  -0.003641  0  3.792345  0  0.079437  0  0.022005  0  4.020414  0  0  0.014704  0  4.044159  0  0  -0.002757  0.026507  0  4.004623  0
C  C58  1  0.09970810  0.07834919  0.58721240  1  0  -0.003453  0  3.792151  0  0.07911  0  0.022101  0  4.020305  0  0  0.014798  0  4.044049  0  0  -0.002723  0.026604  0  4.004513  0
C  C59  1  0.09971084  0.57834986  0.91278829  1  0  -0.003528  0  3.79217  0  0.079348  0  0.022046  0  4.020311  0  0  0.014743  0  4.044064  0  0  -0.00274  0.026548  0  4.004521  0
C  C60  1  0.57612804  0.66525467  0.35581386  1  0  0.141936  0  3.685165  0  0.491584  0  0.108248  0  3.93452  0  0  0.116844  0  3.952902  0  0  0.04785  0.102736  0  3.92209  0
C  C61  1  0.57612861  0.16525625  0.14418505  1  0  0.141923  0  3.685087  0  0.491645  0  0.108251  0  3.934472  0  0  0.116848  0  3.952853  0  0  0.047917  0.102739  0  3.922044  0
C  C62  1  0.07613408  0.33474385  0.64418556  1  0  0.141891  0  3.685064  0  0.491815  0  0.108239  0  3.934445  0  0  0.116834  0  3.952828  0  0  0.047842  0.102726  0  3.922018  0
C  C63  1  0.07613351  0.83474342  0.85581438  1  0  0.141797  0  3.685194  0  0.491817  0  0.108138  0  3.934585  0  0  0.116733  0  3.952966  0  0  0.047803  0.102626  0  3.922156  0
C  C64  1  0.61633083  0.06396826  0.44007341  1  0  0.138387  0  3.696723  0  0.677253  0  0.103752  0  3.952159  0  0  0.115064  0  3.963908  0  0  0.082371  0.096243  0  3.944266  0
C  C65  1  0.61632872  0.56396925  0.05992733  1  0  0.138334  0  3.696764  0  0.677231  0  0.103714  0  3.952214  0  0  0.115027  0  3.963963  0  0  0.082371  0.096203  0  3.944322  0
C  C66  1  0.11632392  0.93602892  0.55992783  1  0  0.138361  0  3.696726  0  0.67719  0  0.103828  0  3.952134  0  0  0.115127  0  3.963883  0  0  0.08246  0.096317  0  3.944245  0
C  C67  1  0.11632055  0.43603139  0.94007213  1  0  0.138347  0  3.696728  0  0.677442  0  0.103788  0  3.952133  0  0  0.115097  0  3.963879  0  0  0.082421  0.096279  0  3.94424  0
C  C68  1  0.69780565  0.20182929  0.50778876  1  0  0.174702  0  3.82311  0  0.42454  0  0.169029  0  4.075943  0  0  0.175598  0  4.0978  0  0  0.094645  0.164739  0  4.061  0
C  C69  1  0.69779957  0.70182989  0.99221090  1  0  0.174683  0  3.822939  0  0.424592  0  0.169057  0  4.075808  0  0  0.17563  0  4.097656  0  0  0.094655  0.164753  0  4.060864  0
C  C70  1  0.19779760  0.79816637  0.49221182  1  0  0.174576  0  3.823076  0  0.42446  0  0.168959  0  4.07586  0  0  0.175526  0  4.097715  0  0  0.094712  0.164661  0  4.060912  0
C  C71  1  0.19779820  0.29817268  0.00778932  1  0  0.17471  0  3.822824  0  0.424578  0  0.169065  0  4.075684  0  0  0.175638  0  4.097533  0  0  0.094675  0.164774  0  4.060744  0
C  C72  1  0.62293922  0.64682895  0.40371052  1  0  -0.109895  0  3.736916  0  -0.02887  0  -0.119961  0  3.986497  0  0  -0.127951  0  4.008828  0  0  -0.080739  -0.115009  0  3.971676  0
C  C73  1  0.62293657  0.14683173  0.09628771  1  0  -0.109875  0  3.73692  0  -0.029157  0  -0.119963  0  3.986486  0  0  -0.127951  0  4.008819  0  0  -0.080801  -0.115012  0  3.971667  0
C  C74  1  0.12293780  0.35316821  0.59628823  1  0  -0.10987  0  3.737017  0  -0.029287  0  -0.119976  0  3.986577  0  0  -0.127966  0  4.008909  0  0  -0.080778  -0.115024  0  3.971759  0
C  C75  1  0.12293496  0.85316773  0.90371210  1  0  -0.109803  0  3.736934  0  -0.029271  0  -0.119883  0  3.986486  0  0  -0.127871  0  4.008823  0  0  -0.080762  -0.114932  0  3.971666  0
C  C76  1  0.77846937  0.33215880  0.48783708  1  0  -0.162698  0  3.751994  0  -0.027184  0  -0.179649  0  4.007446  0  0  -0.185486  0  4.029034  0  0  -0.099666  -0.175724  0  3.992719  0
C  C77  1  0.77846542  0.83215983  0.01216445  1  0  -0.162593  0  3.751893  0  -0.027097  0  -0.17954  0  4.007332  0  0  -0.185369  0  4.028919  0  0  -0.099597  -0.175623  0  3.992613  0
C  C78  1  0.27846098  0.66783649  0.51216355  1  0  -0.162534  0  3.751851  0  -0.027127  0  -0.179502  0  4.007266  0  0  -0.185327  0  4.028853  0  0  -0.099621  -0.175581  0  3.992547  0
C  C79  1  0.27846631  0.16784121  0.98783619  1  0  -0.162558  0  3.751817  0  -0.027001  0  -0.179508  0  4.007262  0  0  -0.185338  0  4.028849  0  0  -0.099563  -0.17559  0  3.992539  0
C  C80  1  0.79582715  0.46924333  0.51439989  1  0  -0.127222  0  3.800937  0  0.005377  0  -0.152654  0  4.061046  0  0  -0.153966  0  4.082972  0  0  -0.103107  -0.151451  0  4.045976  0
C  C81  1  0.79582512  0.96924969  0.98560196  1  0  -0.127485  0  3.801171  0  0.006003  0  -0.152881  0  4.061299  0  0  -0.154192  0  4.083218  0  0  -0.103216  -0.15168  0  4.046232  0
C  C82  1  0.29582213  0.53075072  0.48559969  1  0  -0.127236  0  3.800895  0  0.005478  0  -0.152662  0  4.061024  0  0  -0.153974  0  4.082946  0  0  -0.103177  -0.15146  0  4.045955  0
C  C83  1  0.29582691  0.03075127  0.01439940  1  0  -0.127313  0  3.800933  0  0.00596  0  -0.152721  0  4.06104  0  0  -0.154031  0  4.08296  0  0  -0.103166  -0.151522  0  4.045974  0
C  C84  1  0.64076040  0.20445669  0.55675728  1  0  -0.001699  0  3.730043  0  -0.007521  0  0.014601  0  3.953468  0  0  0.012361  0  3.977649  0  0  -0.005068  0.015976  0  3.937237  0
C  C85  1  0.64075520  0.70445733  0.94323914  1  0  -0.001637  0  3.729915  0  -0.007833  0  0.014516  0  3.95353  0  0  0.012276  0  3.977708  0  0  -0.005126  0.015929  0  3.937243  0
C  C86  1  0.14076011  0.79553923  0.44324183  1  0  -0.001646  0  3.730086  0  -0.007664  0  0.014632  0  3.953525  0  0  0.012394  0  3.977706  0  0  -0.005091  0.016035  0  3.937254  0
C  C87  1  0.14075570  0.29554435  0.05676140  1  0  -0.001684  0  3.729872  0  -0.00773  0  0.014526  0  3.953399  0  0  0.012285  0  3.977578  0  0  -0.00514  0.015899  0  3.937167  0
C  C88  1  0.57279223  0.07022194  0.57933558  1  0  -0.10233  0  3.745543  0  -0.108911  0  -0.124853  0  3.997204  0  0  -0.12723  0  4.018436  0  0  -0.095837  -0.123086  0  3.982772  0
C  C89  1  0.57278681  0.57022030  0.92066330  1  0  -0.102322  0  3.745623  0  -0.109004  0  -0.124804  0  3.99733  0  0  -0.127183  0  4.018562  0  0  -0.09584  -0.123046  0  3.982886  0
C  C90  1  0.07279223  0.92977545  0.42066456  1  0  -0.102285  0  3.745474  0  -0.108979  0  -0.124814  0  3.997144  0  0  -0.127193  0  4.018377  0  0  -0.095849  -0.123057  0  3.982705  0
C  C91  1  0.07278393  0.42978285  0.07933719  1  0  -0.10235  0  3.745524  0  -0.109017  0  -0.124837  0  3.99719  0  0  -0.127216  0  4.018423  0  0  -0.095835  -0.123068  0  3.982758  0
C  C92  1  0.65206465  0.34537270  0.58354010  1  0  0.003274  0  3.792929  0  0.003092  0  0.015161  0  4.015525  0  0  0.014311  0  4.041605  0  0  -0.017767  0.015817  0  3.997908  0
C  C93  1  0.65206467  0.84538143  0.91646023  1  0  0.003122  0  3.793107  0  0.003323  0  0.015086  0  4.015743  0  0  0.014236  0  4.041825  0  0  -0.017804  0.015732  0  3.998113  0
C  C94  1  0.15206226  0.65462202  0.41645938  1  0  0.00331  0  3.792937  0  0.003252  0  0.015193  0  4.015548  0  0  0.014342  0  4.041629  0  0  -0.017743  0.01584  0  3.997923  0
C  C95  1  0.15206635  0.15462135  0.08354031  1  0  0.003198  0  3.793215  0  0.003192  0  0.015153  0  4.015796  0  0  0.014303  0  4.041878  0  0  -0.01777  0.01581  0  3.998176  0
C  C96  1  0.72934836  0.47664366  0.56046045  1  0  0.076528  0  3.780436  0  0.018882  0  0.084146  0  4.047261  0  0  0.08512  0  4.069555  0  0  0.006547  0.083267  0  4.032157  0
C  C97  1  0.72934999  0.97665467  0.93954100  1  0  0.076708  0  3.780385  0  0.018315  0  0.084226  0  4.047324  0  0  0.085201  0  4.069618  0  0  0.006608  0.083348  0  4.032218  0
C  C98  1  0.22934430  0.52334955  0.43953873  1  0  0.076409  0  3.780524  0  0.018741  0  0.08402  0  4.04735  0  0  0.084994  0  4.069645  0  0  0.00655  0.083142  0  4.032243  0
C  C99  1  0.22935502  0.02334660  0.06046103  1  0  0.076556  0  3.780618  0  0.018258  0  0.0841  0  4.047526  0  0  0.085075  0  4.06982  0  0  0.006578  0.083223  0  4.03242  0
C  C100  1  0.51739305  0.07390716  0.62634002  1  0  -0.070422  0  3.788422  0  -0.018198  0  -0.081251  0  4.034031  0  0  -0.083992  0  4.056957  0  0  -0.100417  -0.07929  0  4.018356  0
C  C101  1  0.51739678  0.57390902  0.87365918  1  0  -0.070528  0  3.788498  0  -0.018122  0  -0.081361  0  4.034124  0  0  -0.084101  0  4.057044  0  0  -0.10047  -0.079404  0  4.018454  0
C  C102  1  0.01739261  0.92609048  0.37365972  1  0  -0.070567  0  3.788397  0  -0.018206  0  -0.081396  0  4.034018  0  0  -0.084136  0  4.056941  0  0  -0.100484  -0.079435  0  4.018344  0
C  C103  1  0.01739301  0.42609323  0.12634057  1  0  -0.070439  0  3.788445  0  -0.0181  0  -0.081261  0  4.03404  0  0  -0.084  0  4.056962  0  0  -0.100457  -0.079301  0  4.018365  0
C  C104  1  0.52514722  0.21278127  0.65242429  1  0  -0.052521  0  3.763839  0  -0.086397  0  -0.065409  0  4.010158  0  0  -0.067041  0  4.03291  0  0  -0.099199  -0.064114  0  3.994481  0
C  C105  1  0.52514795  0.71279007  0.84757740  1  0  -0.05249  0  3.763738  0  -0.085918  0  -0.065396  0  4.010092  0  0  -0.067025  0  4.03284  0  0  -0.099177  -0.064101  0  3.994413  0
C  C106  1  0.02515016  0.78721749  0.34757546  1  0  -0.052577  0  3.763834  0  -0.086464  0  -0.065473  0  4.010164  0  0  -0.067102  0  4.03291  0  0  -0.099211  -0.064178  0  3.994485  0
C  C107  1  0.02514807  0.28721445  0.15242378  1  0  -0.052476  0  3.763723  0  -0.085914  0  -0.065394  0  4.010062  0  0  -0.067027  0  4.032813  0  0  -0.099181  -0.064099  0  3.994383  0
C  C108  1  0.59094667  0.34567011  0.63149591  1  0  -0.117807  0  3.763469  0  0.005198  0  -0.134845  0  4.010743  0  0  -0.13877  0  4.033487  0  0  -0.104292  -0.132108  0  3.995271  0
C  C109  1  0.59094623  0.84567889  0.86850509  1  0  -0.117747  0  3.763494  0  0.005288  0  -0.134807  0  4.01073  0  0  -0.13874  0  4.033481  0  0  -0.104267  -0.13207  0  3.995259  0
C  C110  1  0.09094656  0.65432834  0.36850352  1  0  -0.117754  0  3.763374  0  0.005269  0  -0.134775  0  4.01064  0  0  -0.138698  0  4.033382  0  0  -0.104293  -0.132038  0  3.995165  0
C  C111  1  0.09094838  0.15432532  0.13149541  1  0  -0.117788  0  3.763431  0  0.005165  0  -0.13483  0  4.010713  0  0  -0.138757  0  4.033459  0  0  -0.104279  -0.132093  0  3.995238  0
I  I112  1  0.24265630  0.07736723  0.26096081  1  0  -0.229453  0  1.477213  0  -0.23677  0  -0.176081  0  1.885475  0  0  -0.195704  0  1.865095  0  0  -0.09508  -0.163327  0  1.900073  0
I  I113  1  0.24265732  0.57736691  0.23903752  1  0  -0.229433  0  1.477194  0  -0.236755  0  -0.176072  0  1.885476  0  0  -0.195696  0  1.865097  0  0  -0.095068  -0.163322  0  1.900077  0
I  I114  1  0.74265650  0.92263398  0.73903909  1  0  -0.229438  0  1.477213  0  -0.236737  0  -0.176067  0  1.88549  0  0  -0.195693  0  1.865113  0  0  -0.095068  -0.163315  0  1.900091  0
I  I115  1  0.74265547  0.42263545  0.76096095  1  0  -0.229435  0  1.477192  0  -0.23673  0  -0.176075  0  1.885477  0  0  -0.195698  0  1.8651  0  0  -0.095069  -0.163323  0  1.900078  0
I  I116  1  0.80222922  0.80334017  0.20006998  1  0  -0.341253  0  1.153716  0  -0.342766  0  -0.301645  0  1.494918  0  0  -0.31734  0  1.475505  0  0  -0.184526  -0.290588  0  1.508402  0
I  I117  1  0.80223132  0.30334161  0.29993015  1  0  -0.341247  0  1.153759  0  -0.342783  0  -0.301641  0  1.494977  0  0  -0.317341  0  1.475564  0  0  -0.184516  -0.290583  0  1.508457  0
I  I118  1  0.30222944  0.19665961  0.79992960  1  0  -0.341244  0  1.153717  0  -0.342772  0  -0.301641  0  1.494927  0  0  -0.317334  0  1.475513  0  0  -0.184529  -0.290581  0  1.508407  0
I  I119  1  0.30223008  0.69666048  0.70006979  1  0  -0.341247  0  1.153709  0  -0.342766  0  -0.301636  0  1.494919  0  0  -0.317332  0  1.475502  0  0  -0.184529  -0.290577  0  1.508402  0
N  N120  1  0.54181324  0.80423606  0.33686343  1  0  -0.267903  0  3.283409  0  -1.266612  0  -0.182237  0  3.537928  0  0  -0.203521  0  3.561491  0  0  -0.312709  -0.167993  0  3.521574  0
N  N121  1  0.54181537  0.30423648  0.16313544  1  0  -0.267909  0  3.283508  0  -1.266579  0  -0.182219  0  3.537966  0  0  -0.203504  0  3.561535  0  0  -0.312704  -0.167975  0  3.521612  0
N  N122  1  0.04181624  0.19576377  0.66313704  1  0  -0.267871  0  3.283411  0  -1.266603  0  -0.182205  0  3.537904  0  0  -0.203487  0  3.561463  0  0  -0.31271  -0.167962  0  3.521554  0
N  N123  1  0.04181823  0.69576336  0.83686467  1  0  -0.267879  0  3.283515  0  -1.266539  0  -0.182209  0  3.53797  0  0  -0.203494  0  3.561544  0  0  -0.31267  -0.167964  0  3.521616  0
N  N124  1  0.67649588  0.06384941  0.48312050  1  0  -0.309563  0  3.110465  0  -1.244756  0  -0.268203  0  3.379077  0  0  -0.283477  0  3.395086  0  0  -0.298736  -0.257783  0  3.367904  0
N  N125  1  0.67649335  0.56385160  0.01687992  1  0  -0.309495  0  3.110546  0  -1.244724  0  -0.268136  0  3.379147  0  0  -0.283412  0  3.395157  0  0  -0.298707  -0.257715  0  3.367977  0
N  N126  1  0.17648307  0.93615095  0.51687971  1  0  -0.309506  0  3.110371  0  -1.244599  0  -0.268204  0  3.378978  0  0  -0.283482  0  3.394994  0  0  -0.298823  -0.257785  0  3.367808  0
N  N127  1  0.17648834  0.43615107  0.98311886  1  0  -0.309553  0  3.110506  0  -1.244948  0  -0.268206  0  3.379092  0  0  -0.283483  0  3.395105  0  0  -0.298789  -0.257786  0  3.367918  0
Cl  Cl128  1  0.74622456  0.64962526  0.59144135  1  0  -0.096705  0  1.351002  0  -0.250644  0  -0.070622  0  1.58024  0  0  -0.075072  0  1.57543  0  0  0.009756  -0.067285  0  1.583709  0
Cl  Cl129  1  0.74622362  0.14963236  0.90856156  1  0  -0.096703  0  1.350959  0  -0.250693  0  -0.070592  0  1.580233  0  0  -0.075039  0  1.575417  0  0  0.009777  -0.06726  0  1.583711  0
Cl  Cl130  1  0.24621857  0.35037133  0.40856033  1  0  -0.096641  0  1.351046  0  -0.25068  0  -0.070559  0  1.580281  0  0  -0.075007  0  1.575465  0  0  0.009789  -0.067228  0  1.583762  0
Cl  Cl131  1  0.24622638  0.85037344  0.09143941  1  0  -0.096646  0  1.351133  0  -0.25067  0  -0.070556  0  1.58041  0  0  -0.075003  0  1.575594  0  0  0.009785  -0.067222  0  1.583884  0
