# generated using pymatgen
data_CuH18Au2(C2N)6
_symmetry_space_group_name_H-M   'P 1'
_cell_length_a   8.49712529
_cell_length_b   9.44850815
_cell_length_c   10.81738632
_cell_angle_alpha   89.99958057
_cell_angle_beta   90.00024003
_cell_angle_gamma   101.83804639
_symmetry_Int_Tables_number   1
_chemical_formula_structural   CuH18Au2(C2N)6
_chemical_formula_sum   'Cu2 H36 Au4 C24 N12'
_cell_volume   850.00428816
_cell_formula_units_Z   2
loop_
 _symmetry_equiv_pos_site_id
 _symmetry_equiv_pos_as_xyz
  1  'x, y, z'
loop_
 _atom_site_type_symbol
 _atom_site_label
 _atom_site_symmetry_multiplicity
 _atom_site_fract_x
 _atom_site_fract_y
 _atom_site_fract_z
 _atom_site_occupancy
 _atom_site_hle17_ddec_charge
 _atom_site_hle17_ddec_spin_density
 _atom_site_hle17_ddec_sum_bond_order
 _atom_site_hle17_magmom
 _atom_site_hse06_10hf_ddec_charge
 _atom_site_hse06_10hf_ddec_spin_density
 _atom_site_hse06_10hf_ddec_sum_bond_order
 _atom_site_hse06_10hf_magmom
 _atom_site_hse06_ddec_charge
 _atom_site_hse06_ddec_spin_density
 _atom_site_hse06_ddec_sum_bond_order
 _atom_site_hse06_magmom
 _atom_site_pbe_cm5_charge
 _atom_site_pbe_ddec_charge
 _atom_site_pbe_ddec_spin_density
 _atom_site_pbe_ddec_sum_bond_order
 _atom_site_pbe_magmom
Cu  Cu0  1  0.56461135  0.15593765  0.77231822  1  0.780949  -0.686059  2.004309  -0.467  0.743211  -0.771491  2.413011  -0.575  0.821718  -0.856436  2.352265  -0.666  0.79675  0.702772  -0.714872  2.451957  -0.521
Cu  Cu1  1  0.43539194  0.84406705  0.27232439  1  0.780805  0.686056  2.004324  0.467  0.743026  0.77149  2.413061  0.575  0.821507  0.856427  2.352291  0.666  0.796699  0.702591  0.714878  2.452001  0.521
H  H2  1  0.34606987  0.12989520  0.92819664  1  0.251801  0.001241  0.895253  0.002  0.245564  -0.000214  0.951193  0.0  0.247694  0.000229  0.95384  0.001  0.297778  0.243984  -0.000572  0.949936  0.0
H  H3  1  0.65394265  0.87010505  0.42819781  1  0.251742  -0.00124  0.89545  -0.002  0.245515  0.000214  0.951396  0.0  0.247646  -0.000229  0.954041  -0.001  0.297761  0.243932  0.000572  0.950142  0.0
H  H4  1  0.42865816  0.43927278  0.87303827  1  0.060016  0.000276  0.927392  0.0  0.072997  0.000252  0.987933  0.0  0.073464  0.000176  0.987523  0.0  0.113561  0.072468  0.000292  0.988345  0.0
H  H5  1  0.57133937  0.56073008  0.37304395  1  0.060026  -0.000275  0.927346  0.0  0.073002  -0.000253  0.987837  0.0  0.073456  -0.000175  0.987445  0.0  0.113546  0.072476  -0.000292  0.98825  0.0
H  H6  1  0.55147549  0.40176312  0.69494289  1  0.256555  0.000511  0.940986  0.001  0.244176  -0.000561  1.00705  0.0  0.250967  -0.00013  1.002918  0.0  0.289041  0.239281  -0.000946  1.010672  -0.001
H  H7  1  0.44852257  0.59824109  0.19495070  1  0.256552  -0.00051  0.941034  -0.001  0.24417  0.000561  1.007095  0.0  0.250963  0.000129  1.002957  0.0  0.289034  0.239272  0.000945  1.010718  0.001
H  H8  1  0.21522683  0.36548828  0.03125811  1  0.075334  0.000315  0.965932  0.0  0.091057  6.3e-05  1.028566  0.0  0.091533  5.3e-05  1.029781  0.0  0.086282  0.090829  6.7e-05  1.027657  0.0
H  H9  1  0.78477798  0.63450310  0.53125973  1  0.075435  -0.000316  0.965778  0.0  0.091075  -6.4e-05  1.028494  0.0  0.09155  -5.2e-05  1.02971  0.0  0.086265  0.090851  -6.7e-05  1.027585  0.0
H  H10  1  0.11070371  0.23079814  0.93119203  1  0.054923  0.000347  0.991595  0.0  0.067642  7.2e-05  1.070958  0.0  0.067462  5.9e-05  1.070645  0.0  0.068837  0.067914  8.8e-05  1.0712  0.0
H  H11  1  0.88930137  0.76919020  0.43119463  1  0.054978  -0.000347  0.991659  0.0  0.067738  -7.4e-05  1.070919  0.0  0.067563  -5.8e-05  1.070593  0.0  0.068812  0.067998  -8.8e-05  1.071196  0.0
H  H12  1  0.16818139  0.55904520  0.88852733  1  0.054756  8.9e-05  0.946254  0.0  0.070347  2.7e-05  1.014944  0.0  0.071171  1.9e-05  1.014699  0.0  0.079321  0.07019  3.4e-05  1.014565  0.0
H  H13  1  0.83181345  0.44094565  0.38852540  1  0.054814  -9e-05  0.946129  0.0  0.070394  -2.8e-05  1.014827  0.0  0.071218  -1.8e-05  1.014579  0.0  0.079344  0.070234  -3.4e-05  1.01445  0.0
H  H14  1  0.98365134  0.44234219  0.92426688  1  0.071015  -0.001074  0.925064  -0.001  0.091498  -0.000614  0.979396  -0.001  0.090673  -0.000336  0.981899  0.0  0.08943  0.091977  -0.000879  0.977881  -0.001
H  H15  1  0.01634640  0.55764514  0.42426522  1  0.071011  0.001072  0.924826  0.001  0.091453  0.000611  0.979201  0.001  0.090626  0.000337  0.981703  0.0  0.08943  0.091935  0.000879  0.977683  0.001
H  H16  1  0.00893313  0.49800306  0.69659459  1  0.063349  -0.001062  0.963564  -0.001  0.07721  -0.000554  1.032352  -0.001  0.077137  -0.000293  1.0331  0.0  0.077975  0.077293  -0.000794  1.031557  -0.001
H  H17  1  0.99105991  0.50199466  0.19659093  1  0.06333  0.001061  0.963528  0.001  0.077214  0.000553  1.032328  0.001  0.077142  0.000293  1.033076  0.0  0.077991  0.077296  0.000794  1.03153  0.001
H  H18  1  0.98905165  0.31161603  0.72573600  1  0.065932  0.000166  0.951263  0.0  0.082865  0.00011  1.013597  0.0  0.081474  0.000104  1.016569  0.0  0.083282  0.083761  0.00011  1.011574  0.0
H  H19  1  0.01093982  0.68837931  0.22573624  1  0.065959  -0.000167  0.951229  0.0  0.082909  -0.000113  1.013572  0.0  0.081516  -0.000103  1.016549  0.0  0.083317  0.083806  -0.00011  1.011545  0.0
H  H20  1  0.30666146  0.52772397  0.67958255  1  0.076434  0.000248  0.9379  0.0  0.098083  6.2e-05  0.994007  0.0  0.098671  4.5e-05  0.994905  0.0  0.09446  0.097902  7.3e-05  0.992695  0.0
H  H21  1  0.69332756  0.47227713  0.17958828  1  0.076521  -0.000247  0.937771  0.0  0.098105  -6.3e-05  0.993923  0.0  0.098692  -4.5e-05  0.99482  0.0  0.094453  0.097926  -7.3e-05  0.992611  0.0
H  H22  1  0.20594260  0.39890600  0.57120265  1  0.073454  0.00034  0.946527  0.0  0.088726  8.5e-05  1.012951  0.0  0.088967  7.1e-05  1.013746  0.0  0.089952  0.088566  8.6e-05  1.0124  0.0
H  H23  1  0.79404435  0.60109378  0.07120232  1  0.07337  -0.000339  0.946605  0.0  0.088654  -8.7e-05  1.012988  0.0  0.088893  -7e-05  1.013785  0.0  0.089947  0.088495  -8.6e-05  1.012436  0.0
H  H24  1  0.23881289  0.19904752  0.71147938  1  0.048431  -0.001036  0.930311  -0.002  0.056572  -0.000624  1.000362  -0.001  0.054375  -0.000377  1.002425  -0.001  0.100406  0.058001  -0.000803  0.998767  -0.001
H  H25  1  0.76118776  0.80095224  0.21148412  1  0.048546  0.001033  0.93044  0.002  0.056637  0.000622  1.00051  0.001  0.054439  0.000378  1.002576  0.001  0.100457  0.058052  0.000803  0.998901  0.001
H  H26  1  0.56039000  0.17667027  0.06721067  1  0.115686  -0.000391  0.95948  -0.001  0.133183  -0.000229  1.018988  0.0  0.131303  -0.000144  1.02266  0.0  0.102905  0.134409  -0.000301  1.01629  0.0
H  H27  1  0.43962673  0.82334137  0.56721363  1  0.115802  0.000386  0.959506  0.001  0.133258  0.000228  1.019033  0.0  0.131377  0.000144  1.022706  0.0  0.102958  0.134488  0.000301  1.016334  0.0
H  H28  1  0.44239847  0.30851554  0.09686971  1  0.099394  -0.007171  0.958689  -0.01  0.116854  -0.004376  1.023303  -0.006  0.11509  -0.002867  1.025559  -0.004  0.097157  0.117983  -0.005424  1.021606  -0.007
H  H29  1  0.55761627  0.69149696  0.59687669  1  0.099431  0.007167  0.95867  0.01  0.11684  0.004376  1.023338  0.006  0.115076  0.002868  1.025595  0.004  0.097126  0.117968  0.005425  1.02164  0.007
H  H30  1  0.62178489  0.35431544  0.00560936  1  0.094318  -0.001509  0.944082  -0.002  0.111274  -0.001098  1.014641  -0.002  0.110593  -0.000671  1.015093  -0.001  0.102125  0.111426  -0.001426  1.014587  -0.002
H  H31  1  0.37822356  0.64569235  0.50562067  1  0.094369  0.001504  0.944079  0.002  0.111332  0.001097  1.01459  0.002  0.11065  0.000672  1.015045  0.001  0.102165  0.111485  0.001426  1.014535  0.002
H  H32  1  0.59776386  0.28620889  0.50562681  1  0.105404  -0.000874  0.939704  -0.001  0.126202  -0.000561  0.996654  -0.001  0.125029  -0.000375  0.998704  0.0  0.103717  0.126762  -0.000708  0.995359  -0.001
H  H33  1  0.40222874  0.71379137  0.00563650  1  0.105345  0.000871  0.939759  0.001  0.126154  0.00056  0.996695  0.001  0.124979  0.000375  0.99875  0.0  0.103687  0.12671  0.000708  0.995403  0.001
H  H34  1  0.42774451  0.36840610  0.48685833  1  0.090994  -0.007213  0.968762  -0.01  0.106413  -0.004114  1.037918  -0.006  0.104713  -0.002653  1.040182  -0.004  0.094748  0.107436  -0.005113  1.036338  -0.007
H  H35  1  0.57224444  0.63159267  0.98686390  1  0.091037  0.007211  0.968742  0.01  0.106469  0.004113  1.03788  0.006  0.10477  0.002654  1.040144  0.004  0.094841  0.10749  0.005113  1.036299  0.007
H  H36  1  0.40031725  0.17898271  0.51283653  1  0.103579  -0.001071  0.953235  -0.002  0.119681  -0.000694  1.020175  -0.001  0.117414  -0.000439  1.02355  -0.001  0.098453  0.12106  -0.000897  1.017991  -0.001
H  H37  1  0.59967302  0.82101750  0.01283784  1  0.103491  0.001066  0.953245  0.002  0.119595  0.000692  1.020194  0.001  0.117329  0.000439  1.023565  0.001  0.098434  0.120976  0.000897  1.018007  0.001
Au  Au38  1  0.01473324  0.79624649  0.76642011  1  0.077499  -0.000204  2.517202  0.0  0.026769  -0.000199  3.016545  0.0  0.034487  -5.8e-05  2.980142  0.0  0.276402  0.021261  -0.000481  3.043585  0.0
Au  Au39  1  0.98526407  0.20375285  0.26642761  1  0.077423  0.000204  2.516619  0.0  0.026686  0.000205  3.015903  0.0  0.034404  6.1e-05  2.979504  0.0  0.276309  0.021176  0.000484  3.04294  0.0
Au  Au40  1  0.99255450  0.97225565  0.01333812  1  0.087421  0.000409  2.534804  0.0  0.036893  0.000589  3.0394  0.0  0.046003  0.000396  2.996571  0.0  0.297621  0.029022  0.000763  3.073448  0.0
Au  Au41  1  0.00744326  0.02774129  0.51333742  1  0.087388  -0.000408  2.534869  0.0  0.03685  -0.000585  3.039482  0.0  0.045962  -0.000397  2.996651  0.0  0.297599  0.029001  -0.000762  3.073497  0.0
C  C42  1  0.23727042  0.90818190  0.75487573  1  0.043138  0.002701  3.650122  0.003  0.055082  0.001824  4.000958  0.002  0.065568  0.001842  4.004763  0.002  -0.012727  0.049733  0.001729  3.997658  0.002
C  C43  1  0.76271142  0.09180675  0.25488785  1  0.042999  -0.002688  3.650862  -0.003  0.054941  -0.001822  4.001659  -0.002  0.065416  -0.001844  4.005467  -0.002  -0.012692  0.049601  -0.001727  3.998356  -0.002
C  C44  1  0.80153725  0.66448521  0.77243714  1  0.04097  0.00076  3.647956  0.001  0.046108  0.000555  3.998285  0.001  0.048806  0.000357  4.007744  0.0  -0.010657  0.044467  0.000448  3.992142  0.0
C  C45  1  0.19847142  0.33551731  0.27243011  1  0.040971  -0.000767  3.64817  -0.001  0.046125  -0.00055  3.998469  -0.001  0.04882  -0.00036  4.007929  0.0  -0.010633  0.044487  -0.000448  3.992321  0.0
C  C46  1  0.81034720  0.04047865  0.93750585  1  0.082999  0.008306  3.5825  0.004  0.094185  0.001358  3.917267  -0.002  0.107816  0.002787  3.921089  -0.001  0.014429  0.086095  6.5e-05  3.915743  -0.004
C  C47  1  0.18965284  0.95951831  0.43750862  1  0.082978  -0.008289  3.582541  -0.004  0.094155  -0.001357  3.917313  0.002  0.107779  -0.002784  3.921142  0.001  0.014448  0.086064  -6.3e-05  3.915791  0.004
C  C48  1  0.82267078  0.08844855  0.59123168  1  0.073642  0.006539  3.595492  0.002  0.083423  -0.000744  3.935675  -0.005  0.098193  0.001157  3.937179  -0.003  0.008308  0.074369  -0.002426  3.936536  -0.007
C  C49  1  0.17732658  0.91154996  0.09123750  1  0.073625  -0.006563  3.595459  -0.002  0.083391  0.000743  3.93565  0.005  0.098161  -0.001158  3.937151  0.003  0.008319  0.074338  0.002425  3.936504  0.007
C  C50  1  0.34362525  0.33482034  0.86367946  1  0.092188  0.001827  3.580978  0.004  0.079952  -0.000661  3.815996  0.002  0.08479  0.000172  3.832396  0.002  0.000178  0.077037  -0.001462  3.80495  0.001
C  C51  1  0.65637787  0.66518150  0.36368474  1  0.092122  -0.001841  3.580781  -0.004  0.080009  0.000662  3.815596  -0.002  0.08485  -0.000173  3.831997  -0.002  0.000178  0.077077  0.001461  3.804538  -0.001
C  C52  1  0.18868112  0.33984347  0.93356576  1  -0.156947  -0.008711  3.67007  -0.009  -0.198169  -0.005051  3.918827  -0.005  -0.200453  -0.00327  3.934665  -0.004  -0.171544  -0.196229  -0.006398  3.90733  -0.007
C  C53  1  0.81132454  0.66015243  0.43356788  1  -0.157179  0.008712  3.670112  0.009  -0.198377  0.005055  3.918799  0.005  -0.200658  0.003266  3.934633  0.004  -0.171533  -0.196447  0.006397  3.907312  0.007
C  C54  1  0.09854534  0.44783197  0.87576757  1  -0.095512  -0.001938  3.690041  -0.002  -0.133665  -0.001398  3.95077  -0.002  -0.13525  -0.000819  3.967685  -0.001  -0.167279  -0.132384  -0.001897  3.938578  -0.002
C  C55  1  0.90145205  0.55216006  0.37576514  1  -0.095508  0.001946  3.689772  0.002  -0.133566  0.001405  3.950422  0.002  -0.135148  0.000818  3.967334  0.001  -0.167261  -0.132281  0.001897  3.938226  0.002
C  C56  1  0.06993640  0.41769175  0.73807909  1  -0.109465  -0.001585  3.695974  -0.002  -0.144581  -0.001042  3.952578  -0.001  -0.145888  -0.000555  3.970341  -0.001  -0.174072  -0.143445  -0.001512  3.940052  -0.002
C  C57  1  0.93006056  0.58230673  0.23808026  1  -0.109436  0.00159  3.695992  0.002  -0.144707  0.001049  3.952696  0.001  -0.146014  0.000552  3.970455  0.001  -0.174139  -0.143572  0.001512  3.940171  0.002
C  C58  1  0.22834292  0.41991828  0.67026629  1  -0.158554  -0.008133  3.665026  -0.008  -0.203125  -0.004446  3.918939  -0.005  -0.20557  -0.002814  3.933671  -0.003  -0.167162  -0.201255  -0.005734  3.908323  -0.006
C  C59  1  0.77164985  0.58008397  0.17027065  1  -0.158497  0.008123  3.665013  0.008  -0.202942  0.004449  3.918786  0.005  -0.205385  0.002812  3.933519  0.003  -0.167074  -0.201097  0.005733  3.908148  0.006
C  C60  1  0.31448881  0.30757985  0.72565170  1  0.09775  0.000703  3.58728  0.003  0.08154  -0.001405  3.830068  0.0  0.086565  -0.000259  3.848506  0.001  -0.003763  0.078491  -0.002465  3.817582  -0.001
C  C61  1  0.68551691  0.69242628  0.22565136  1  0.097595  -0.000687  3.587423  -0.003  0.081408  0.001413  3.830098  0.0  0.086435  0.000254  3.84853  -0.001  -0.003818  0.078453  0.002465  3.817481  0.001
C  C62  1  0.51785415  0.26854390  0.02793002  1  -0.152908  0.002135  3.636321  0.006  -0.24666  -0.001595  3.899709  0.002  -0.240989  -0.000351  3.915245  0.003  -0.154632  -0.249579  -0.002599  3.889229  0.001
C  C63  1  0.48216127  0.73146804  0.52793372  1  -0.15317  -0.002113  3.636574  -0.006  -0.246846  0.001606  3.899972  -0.002  -0.241177  0.000352  3.915511  -0.003  -0.154715  -0.249759  0.0026  3.889485  -0.001
C  C64  1  0.47468448  0.28447128  0.53637434  1  -0.139756  0.002595  3.631781  0.007  -0.229566  -0.001162  3.890004  0.002  -0.224047  -7.7e-05  3.906864  0.003  -0.152146  -0.232464  -0.002058  3.878964  0.002
C  C65  1  0.52530637  0.71553091  0.03638072  1  -0.13964  -0.002573  3.63188  -0.007  -0.229467  0.001174  3.890087  -0.002  -0.22395  7.4e-05  3.906949  -0.003  -0.152223  -0.232369  0.002058  3.879044  -0.002
N  N66  1  0.37040573  0.97272661  0.74761244  1  -0.431176  -0.000166  3.015384  -0.002  -0.394158  -0.000338  3.29  -0.002  -0.412383  -0.000353  3.297976  -0.002  -0.378856  -0.384028  -0.000421  3.284499  -0.002
N  N67  1  0.62960435  0.02728258  0.24761713  1  -0.43095  0.000155  3.016455  0.002  -0.393911  0.000335  3.291015  0.002  -0.412123  0.000357  3.298982  0.002  -0.378846  -0.383779  0.00042  3.285509  0.002
N  N68  1  0.68177107  0.57669240  0.77162927  1  -0.433177  0.000745  2.817344  0.0  -0.388531  0.000523  3.053167  0.0  -0.399002  0.000393  3.067428  0.0  -0.349969  -0.381497  0.000875  3.043548  0.0
N  N69  1  0.31822772  0.42329284  0.27162207  1  -0.433143  -0.000737  2.817727  0.0  -0.388516  -0.00053  3.053552  0.0  -0.398986  -0.000389  3.067807  0.0  -0.349974  -0.381485  -0.000875  3.043934  0.0
N  N70  1  0.70683891  0.08486367  0.88991548  1  -0.402141  -0.043659  3.138982  -0.05  -0.358891  -0.034234  3.43098  -0.041  -0.381964  -0.031905  3.436374  -0.04  -0.382572  -0.346756  -0.034852  3.428521  -0.041
N  N71  1  0.29316499  0.91513580  0.38992258  1  -0.402114  0.043642  3.139028  0.05  -0.358851  0.034233  3.431028  0.041  -0.381917  0.031902  3.436413  0.04  -0.382584  -0.346719  0.034851  3.428569  0.041
N  N72  1  0.71328694  0.12185857  0.64047527  1  -0.395507  -0.049358  3.137668  -0.057  -0.353129  -0.040291  3.429095  -0.048  -0.376409  -0.036867  3.434642  -0.046  -0.378951  -0.340893  -0.041765  3.426835  -0.048
N  N73  1  0.28671228  0.87814173  0.14048351  1  -0.395498  0.049383  3.137689  0.057  -0.353104  0.040292  3.429131  0.048  -0.376378  0.036869  3.434661  0.046  -0.378958  -0.340865  0.041767  3.426858  0.048
N  N74  1  0.42845784  0.22410354  0.91313183  1  -0.322671  -0.146133  3.238575  -0.174  -0.288509  -0.097888  3.522825  -0.124  -0.32476  -0.076424  3.548145  -0.104  -0.474762  -0.268072  -0.108963  3.508094  -0.133
N  N75  1  0.57155192  0.77590549  0.41313797  1  -0.322464  0.146126  3.238776  0.174  -0.288363  0.097871  3.522931  0.124  -0.324609  0.076425  3.548256  0.104  -0.474728  -0.267936  0.108954  3.508205  0.133
N  N76  1  0.47423505  0.30574489  0.67099921  1  -0.340091  -0.144707  3.260912  -0.172  -0.308476  -0.091173  3.556665  -0.116  -0.344915  -0.070921  3.577916  -0.096  -0.484004  -0.287859  -0.101285  3.544604  -0.124
N  N77  1  0.52576150  0.69425843  0.17100388  1  -0.340092  0.144688  3.260811  0.172  -0.308497  0.091154  3.556604  0.116  -0.344921  0.070931  3.577831  0.096  -0.483969  -0.287902  0.101284  3.544524  0.124
