# generated using pymatgen
data_EuH22C24N3O8
_symmetry_space_group_name_H-M   'P 1'
_cell_length_a   9.50229070
_cell_length_b   12.61181035
_cell_length_c   21.11054243
_cell_angle_alpha   90.00093642
_cell_angle_beta   95.65644795
_cell_angle_gamma   90.00326830
_symmetry_Int_Tables_number   1
_chemical_formula_structural   EuH22C24N3O8
_chemical_formula_sum   'Eu4 H88 C96 N12 O32'
_cell_volume   2517.59167849
_cell_formula_units_Z   4
loop_
 _symmetry_equiv_pos_site_id
 _symmetry_equiv_pos_as_xyz
  1  'x, y, z'
loop_
 _atom_site_type_symbol
 _atom_site_label
 _atom_site_symmetry_multiplicity
 _atom_site_fract_x
 _atom_site_fract_y
 _atom_site_fract_z
 _atom_site_occupancy
 _atom_site_pbe_bader_charge
 _atom_site_pbe_bader_spin_density
 _atom_site_pbe_cm5_charge
 _atom_site_pbe_ddec_charge
 _atom_site_pbe_ddec_spin_density
 _atom_site_pbe_ddec_sum_bond_order
 _atom_site_pbe_magmom
Eu  Eu0  1  0.25215276  0.46086655  0.99893050  1  2.212863  0  1.476017  2.123186  0  2.10422  0
Eu  Eu1  1  0.24784768  0.96087110  0.50107004  1  2.21303  0  1.476049  2.123303  0  2.104088  0
Eu  Eu2  1  0.74784771  0.53913298  0.00106980  1  2.212849  0  1.476031  2.123233  0  2.104155  0
Eu  Eu3  1  0.75215284  0.03912843  0.49892884  1  2.213009  0  1.476066  2.123363  0  2.104027  0
H  H4  1  0.29744757  0.77619862  0.86075175  1  0.124439  0  0.108894  0.125077  0  1.000816  0
H  H5  1  0.20255418  0.27620267  0.63924857  1  0.123907  0  0.108942  0.125209  0  1.000691  0
H  H6  1  0.70254974  0.22380011  0.13924792  1  0.124375  0  0.108908  0.12514  0  1.000759  0
H  H7  1  0.79744632  0.72379845  0.36075078  1  0.123923  0  0.108918  0.125163  0  1.000722  0
H  H8  1  0.13858047  0.84183605  0.97509086  1  0.089613  0  0.108325  0.110681  0  0.996155  0
H  H9  1  0.36142752  0.34184141  0.52490942  1  0.089835  0  0.108305  0.110614  0  0.996154  0
H  H10  1  0.86141789  0.15816269  0.02490933  1  0.089634  0  0.108295  0.110611  0  0.996162  0
H  H11  1  0.63857404  0.65815813  0.47508998  1  0.089868  0  0.108325  0.110648  0  0.996148  0
H  H12  1  0.11614280  0.02623365  0.99432284  1  0.061879  0  0.107558  0.07108  0  1.039019  0
H  H13  1  0.38385620  0.52623862  0.50567596  1  0.061875  0  0.107554  0.071144  0  1.03898  0
H  H14  1  0.88385557  0.97376667  0.00567688  1  0.06192  0  0.107567  0.071103  0  1.038982  0
H  H15  1  0.61614747  0.47376249  0.49432355  1  0.061941  0  0.107561  0.071137  0  1.038958  0
H  H16  1  0.16904741  0.25826308  0.86067359  1  0.155532  0  0.122385  0.098059  0  1.011875  0
H  H17  1  0.33094661  0.75827421  0.63932522  1  0.155762  0  0.122339  0.09797  0  1.011985  0
H  H18  1  0.83095622  0.74173566  0.13932734  1  0.155579  0  0.122382  0.09807  0  1.011863  0
H  H19  1  0.66905389  0.24172611  0.36067413  1  0.156009  0  0.122382  0.098051  0  1.01194  0
H  H20  1  0.24101943  0.12430895  0.78189307  1  0.143046  0  0.108859  0.118522  0  1.012132  0
H  H21  1  0.25897566  0.62431677  0.71810598  1  0.142933  0  0.108849  0.118515  0  1.012203  0
H  H22  1  0.75898103  0.87569138  0.21810771  1  0.14303  0  0.108861  0.118526  0  1.012124  0
H  H23  1  0.74102484  0.37568197  0.28189338  1  0.142906  0  0.108865  0.118495  0  1.012149  0
H  H24  1  0.24745912  0.93133719  0.81269277  1  0.104874  0  0.113091  0.115474  0  0.988733  0
H  H25  1  0.25254219  0.43134312  0.68730660  1  0.104935  0  0.113104  0.115442  0  0.98878  0
H  H26  1  0.75253925  0.06866235  0.18730696  1  0.104867  0  0.113091  0.115443  0  0.988752  0
H  H27  1  0.74745831  0.56865641  0.31269275  1  0.10491  0  0.113107  0.115446  0  0.988816  0
H  H28  1  0.29655303  0.73825356  0.07803261  1  0.068919  0  0.105286  0.120282  0  1.02987  0
H  H29  1  0.20345431  0.23826225  0.42196963  1  0.068883  0  0.105286  0.120258  0  1.029873  0
H  H30  1  0.70344642  0.26174676  0.92196669  1  0.068925  0  0.105268  0.120276  0  1.029908  0
H  H31  1  0.79654514  0.76173649  0.57802920  1  0.068879  0  0.105279  0.120283  0  1.02986  0
H  H32  1  0.56780051  0.86589590  0.06316222  1  0.088119  0  0.104658  0.103707  0  1.027749  0
H  H33  1  0.93219932  0.36587598  0.43683752  1  0.08846  0  0.104655  0.103726  0  1.027843  0
H  H34  1  0.43219890  0.13410363  0.93683803  1  0.088123  0  0.104656  0.103698  0  1.027775  0
H  H35  1  0.06779907  0.63412276  0.56316125  1  0.088224  0  0.104655  0.103706  0  1.027862  0
H  H36  1  0.52829381  0.05951904  0.05547975  1  0.055311  0  0.105949  0.073694  0  1.040222  0
H  H37  1  0.97170837  0.55950655  0.44451822  1  0.055291  0  0.105972  0.073751  0  1.04018  0
H  H38  1  0.47170667  0.94048049  0.94452056  1  0.055266  0  0.105954  0.073718  0  1.040169  0
H  H39  1  0.02829214  0.44049457  0.55548067  1  0.055285  0  0.105967  0.073743  0  1.040178  0
H  H40  1  0.17846896  0.20447413  0.11870846  1  0.12397  0  0.114936  0.089443  0  1.027775  0
H  H41  1  0.32153587  0.70448199  0.38128813  1  0.124221  0  0.114931  0.089451  0  1.027874  0
H  H42  1  0.82153152  0.79552540  0.88129184  1  0.123953  0  0.114928  0.089438  0  1.027765  0
H  H43  1  0.67846462  0.29551675  0.61871170  1  0.124211  0  0.114971  0.08949  0  1.027855  0
H  H44  1  0.08262798  0.03115643  0.15358646  1  0.084146  0  0.102102  0.106259  0  1.027922  0
H  H45  1  0.41737373  0.53117063  0.34641121  1  0.084084  0  0.102175  0.106345  0  1.027787  0
H  H46  1  0.91737040  0.96884310  0.84641279  1  0.084023  0  0.102075  0.106206  0  1.027885  0
H  H47  1  0.58262675  0.46882811  0.65358909  1  0.084082  0  0.102174  0.106329  0  1.027782  0
H  H48  1  0.21099282  0.86423120  0.13118668  1  0.071855  0  0.105959  0.106618  0  1.013182  0
H  H49  1  0.28900649  0.36423417  0.36881444  1  0.071936  0  0.105996  0.106679  0  1.013123  0
H  H50  1  0.78900663  0.13576834  0.86881215  1  0.071868  0  0.105968  0.106637  0  1.013173  0
H  H51  1  0.71099504  0.63576378  0.63118592  1  0.071946  0  0.106007  0.106715  0  1.013155  0
H  H52  1  0.96369023  0.32612385  0.81274422  1  0.068011  0  0.099924  0.112253  0  1.024288  0
H  H53  1  0.53629474  0.82612680  0.68725241  1  0.068023  0  0.099923  0.112256  0  1.024372  0
H  H54  1  0.03631022  0.67387648  0.18725702  1  0.067989  0  0.099908  0.112228  0  1.024311  0
H  H55  1  0.46370363  0.17387590  0.31274732  1  0.068013  0  0.09989  0.112211  0  1.024338  0
H  H56  1  0.69209865  0.43293904  0.85027943  1  0.110522  0  0.115078  0.110776  0  1.022546  0
H  H57  1  0.80790728  0.93293677  0.64972350  1  0.110456  0  0.115103  0.110789  0  1.022518  0
H  H58  1  0.30790182  0.56706208  0.14972087  1  0.110471  0  0.115095  0.110777  0  1.022548  0
H  H59  1  0.19209423  0.06706355  0.35027733  1  0.110471  0  0.11509  0.110758  0  1.022573  0
H  H60  1  0.47185955  0.37514572  0.80080616  1  0.079019  0  0.117054  0.094125  0  0.968089  0
H  H61  1  0.02815106  0.87514786  0.69919457  1  0.078891  0  0.117105  0.09426  0  0.968023  0
H  H62  1  0.52813985  0.62485460  0.19919456  1  0.07904  0  0.117047  0.094114  0  0.968188  0
H  H63  1  0.97184937  0.12485167  0.30080715  1  0.078905  0  0.117073  0.094196  0  0.968032  0
H  H64  1  0.42553748  0.11991718  0.67693229  1  0.112139  0  0.114028  0.088421  0  0.995464  0
H  H65  1  0.07444676  0.61992867  0.82306381  1  0.112417  0  0.11404  0.088431  0  0.995473  0
H  H66  1  0.57446087  0.88008394  0.32306838  1  0.112137  0  0.114034  0.088405  0  0.99545  0
H  H67  1  0.92555263  0.38007086  0.17693739  1  0.112472  0  0.114036  0.088439  0  0.995474  0
H  H68  1  0.68707514  0.10088429  0.67653422  1  0.109219  0  0.110912  0.1218  0  1.031906  0
H  H69  1  0.81290368  0.60088860  0.82346333  1  0.109178  0  0.110869  0.121786  0  1.031897  0
H  H70  1  0.31292321  0.89911603  0.32346645  1  0.109189  0  0.110898  0.121767  0  1.031931  0
H  H71  1  0.18709361  0.39911172  0.17653729  1  0.109205  0  0.11087  0.121793  0  1.03181  0
H  H72  1  0.84605577  0.22071680  0.74453158  1  0.028511  0  0.109089  0.108737  0  0.984724  0
H  H73  1  0.65393977  0.72071241  0.75547123  1  0.028323  0  0.109141  0.10884  0  0.984728  0
H  H74  1  0.15394469  0.77928273  0.25546919  1  0.028485  0  0.109142  0.108794  0  0.984745  0
H  H75  1  0.34605861  0.27928791  0.24452802  1  0.028385  0  0.109134  0.1088  0  0.984741  0
H  H76  1  0.11728883  0.24562471  0.98372008  1  0.621048  0  0.282465  0.340103  0  1.025774  0
H  H77  1  0.38270423  0.74562993  0.51627762  1  0.621079  0  0.282453  0.340106  0  1.025802  0
H  H78  1  0.88271164  0.75437482  0.01628022  1  0.621113  0  0.282446  0.340037  0  1.025862  0
H  H79  1  0.61729734  0.25437040  0.48372131  1  0.621063  0  0.282423  0.340051  0  1.025876  0
H  H80  1  0.01409994  0.31950350  0.02131353  1  0.660217  0  0.294653  0.394905  0  0.943185  0
H  H81  1  0.48589284  0.81950683  0.47868116  1  0.660224  0  0.294679  0.394933  0  0.943125  0
H  H82  1  0.98590371  0.68049603  0.97868693  1  0.660161  0  0.294637  0.394892  0  0.943183  0
H  H83  1  0.51411083  0.18049270  0.52131835  1  0.66025  0  0.29468  0.394897  0  0.943173  0
H  H84  1  0.38948543  0.28195553  0.08088547  1  0.607378  0  0.284107  0.349418  0  1.008591  0
H  H85  1  0.11051271  0.78195615  0.41911483  1  0.607391  0  0.28413  0.349427  0  1.008577  0
H  H86  1  0.61051400  0.71804401  0.91911431  1  0.607376  0  0.28412  0.349427  0  1.008569  0
H  H87  1  0.88948356  0.21804339  0.58088432  1  0.607391  0  0.284112  0.349358  0  1.00865  0
H  H88  1  0.49445872  0.38087787  0.08912916  1  0.651886  0  0.29379  0.397655  0  0.934072  0
H  H89  1  0.00554088  0.88087455  0.41087071  1  0.651913  0  0.293802  0.397669  0  0.934049  0
H  H90  1  0.50554070  0.61912166  0.91087109  1  0.651883  0  0.293785  0.397643  0  0.934085  0
H  H91  1  0.99445752  0.11912736  0.58912807  1  0.651931  0  0.293808  0.397675  0  0.934047  0
C  C92  1  0.24151344  0.66317340  0.93270244  1  1.503551  0  0.194478  0.608638  0  4.228235  0
C  C93  1  0.25848573  0.16317629  0.56729812  1  1.503537  0  0.194467  0.60864  0  4.228193  0
C  C94  1  0.75848703  0.33682455  0.06729786  1  1.503457  0  0.194438  0.608536  0  4.22835  0
C  C95  1  0.74151687  0.83682404  0.43270181  1  1.503498  0  0.19452  0.608699  0  4.228169  0
C  C96  1  0.24399971  0.76994044  0.90398503  1  -0.041014  0  -0.090506  -0.219087  0  3.9054  0
C  C97  1  0.25600153  0.26994322  0.59601568  1  -0.040619  0  -0.090606  -0.219357  0  3.90545  0
C  C98  1  0.75599865  0.23005830  0.09601517  1  -0.040829  0  -0.090534  -0.219209  0  3.90555  0
C  C99  1  0.74400002  0.73005552  0.40398373  1  -0.04044  0  -0.090581  -0.219296  0  3.905492  0
C  C100  1  0.18663324  0.85451586  0.93070158  1  -0.076717  0  -0.074485  -0.072275  0  3.975336  0
C  C101  1  0.31337152  0.35452116  0.56929867  1  -0.076892  0  -0.074403  -0.072057  0  3.975076  0
C  C102  1  0.81336406  0.14548130  0.06929857  1  -0.076732  0  -0.074422  -0.072104  0  3.975341  0
C  C103  1  0.68663110  0.64547837  0.43070079  1  -0.076951  0  -0.07443  -0.072101  0  3.975245  0
C  C104  1  0.18405035  0.96284330  0.90690672  1  0.021  0  -0.0115  0.04149  0  4.063465  0
C  C105  1  0.31594918  0.46284699  0.59309380  1  0.020968  0  -0.011551  0.041363  0  4.063216  0
C  C106  1  0.81594588  0.03715702  0.09309384  1  0.020998  0  -0.011565  0.041423  0  4.063522  0
C  C107  1  0.68405239  0.53715254  0.40690513  1  0.021123  0  -0.011568  0.041364  0  4.06335  0
C  C108  1  0.14298954  0.04475272  0.94635134  1  0.493019  0  0.04698  0.026576  0  3.950698  0
C  C109  1  0.35700985  0.54475865  0.55364813  1  0.49308  0  0.046967  0.026489  0  3.950655  0
C  C110  1  0.85700882  0.95524602  0.05364886  1  0.493068  0  0.04698  0.026551  0  3.950704  0
C  C111  1  0.64299276  0.45524088  0.44635133  1  0.492828  0  0.046965  0.026494  0  3.95067  0
C  C112  1  0.17116386  0.17361088  0.87131395  1  0.430636  0  0.056059  0.095566  0  3.926757  0
C  C113  1  0.32882982  0.67361845  0.62868549  1  0.430642  0  0.05609  0.095663  0  3.926789  0
C  C114  1  0.82883659  0.82638945  0.12868730  1  0.430563  0  0.056107  0.095618  0  3.926814  0
C  C115  1  0.67117069  0.32638108  0.37131340  1  0.430276  0  0.056032  0.095566  0  3.926739  0
C  C116  1  0.21205482  0.09825005  0.82810477  1  0.005215  0  -0.081942  -0.127919  0  3.979287  0
C  C117  1  0.28793927  0.59825785  0.67189446  1  0.005011  0  -0.08195  -0.127956  0  3.979532  0
C  C118  1  0.78794460  0.90174948  0.17189548  1  0.004977  0  -0.081943  -0.127941  0  3.979408  0
C  C119  1  0.71206123  0.40174168  0.32810490  1  0.005116  0  -0.081954  -0.127919  0  3.979422  0
C  C120  1  0.21810702  0.99199127  0.84581957  1  -0.127359  0  -0.063252  -0.079604  0  3.917457  0
C  C121  1  0.28189272  0.49199834  0.65418028  1  -0.127098  0  -0.063224  -0.079464  0  3.917612  0
C  C122  1  0.78189133  0.00800747  0.15418110  1  -0.127159  0  -0.063269  -0.079574  0  3.917561  0
C  C123  1  0.71810884  0.50800277  0.34581912  1  -0.12712  0  -0.063217  -0.079476  0  3.917637  0
C  C124  1  0.49199009  0.66061677  0.05763838  1  1.549743  0  0.217857  0.664042  0  4.20093  0
C  C125  1  0.00801329  0.16060889  0.44236199  1  1.54957  0  0.217811  0.663766  0  4.201529  0
C  C126  1  0.50801144  0.33938356  0.94236197  1  1.54952  0  0.217838  0.663939  0  4.201106  0
C  C127  1  0.99198615  0.83939064  0.55763731  1  1.549521  0  0.217749  0.663796  0  4.20156  0
C  C128  1  0.40676648  0.75467141  0.07147605  1  -0.048172  0  -0.093132  -0.235097  0  3.903592  0
C  C129  1  0.09323899  0.25466840  0.42852577  1  -0.048345  0  -0.093207  -0.235052  0  3.903757  0
C  C130  1  0.59323295  0.24532812  0.92852372  1  -0.048193  0  -0.093172  -0.235166  0  3.903661  0
C  C131  1  0.90676151  0.74533113  0.57147358  1  -0.04832  0  -0.09316  -0.235113  0  3.903832  0
C  C132  1  0.45882406  0.85405322  0.07392509  1  -0.014382  0  -0.0763  -0.069822  0  3.971271  0
C  C133  1  0.04117763  0.35404553  0.42607605  1  -0.013841  0  -0.07628  -0.069871  0  3.971258  0
C  C134  1  0.54117431  0.14594631  0.92607463  1  -0.014404  0  -0.076259  -0.069757  0  3.971255  0
C  C135  1  0.95882180  0.64595401  0.57392373  1  -0.01375  0  -0.076273  -0.069781  0  3.971287  0
C  C136  1  0.37882227  0.94764731  0.08914704  1  -0.061928  0  -0.01155  0.048715  0  4.036471  0
C  C137  1  0.12117731  0.44764422  0.41085298  1  -0.062673  0  -0.01157  0.048668  0  4.03642  0
C  C138  1  0.62117507  0.05235222  0.91085169  1  -0.06222  0  -0.011515  0.048799  0  4.036478  0
C  C139  1  0.87882211  0.55235451  0.58914727  1  -0.062526  0  -0.011574  0.048657  0  4.036491  0
C  C140  1  0.42813096  0.04991189  0.07620035  1  0.520245  0  0.043902  0.030973  0  3.9388  0
C  C141  1  0.07187116  0.54990780  0.42379752  1  0.520407  0  0.043903  0.030938  0  3.938794  0
C  C142  1  0.57186742  0.95008764  0.92379890  1  0.520273  0  0.043897  0.030937  0  3.938795  0
C  C143  1  0.92812721  0.45009173  0.57620220  1  0.520385  0  0.043855  0.03087  0  3.938949  0
C  C144  1  0.23478646  0.13064684  0.11283887  1  0.450659  0  0.047036  0.094586  0  3.941269  0
C  C145  1  0.26521675  0.63065244  0.38715885  1  0.4502  0  0.046886  0.094343  0  3.941743  0
C  C146  1  0.76521296  0.86935269  0.88716138  1  0.450632  0  0.047021  0.094549  0  3.941257  0
C  C147  1  0.73478481  0.36934630  0.61284056  1  0.4502  0  0.046887  0.094265  0  3.941658  0
C  C148  1  0.18000335  0.03347667  0.13049712  1  -0.058078  0  -0.090509  -0.136806  0  4.010651  0
C  C149  1  0.32000063  0.53348652  0.36950163  1  -0.058062  0  -0.090445  -0.136688  0  4.010597  0
C  C150  1  0.81999504  0.96652207  0.86950213  1  -0.057935  0  -0.09047  -0.136682  0  4.010522  0
C  C151  1  0.68000089  0.46651301  0.63049919  1  -0.057906  0  -0.090461  -0.136629  0  4.010474  0
C  C152  1  0.25177087  0.94117089  0.11810810  1  0.036746  0  -0.067484  -0.078516  0  3.927585  0
C  C153  1  0.24823138  0.44117643  0.38189151  1  0.036822  0  -0.067567  -0.078636  0  3.927421  0
C  C154  1  0.74822752  0.05882785  0.88189068  1  0.037071  0  -0.067511  -0.07863  0  3.927596  0
C  C155  1  0.75176910  0.55882469  0.61810879  1  0.036683  0  -0.067568  -0.078697  0  3.927422  0
C  C156  1  0.96651982  0.44084364  0.89059433  1  1.582773  0  0.222923  0.679075  0  4.185839  0
C  C157  1  0.53347833  0.94083957  0.60940639  1  1.582872  0  0.22302  0.679216  0  4.186148  0
C  C158  1  0.03347959  0.55915668  0.10940639  1  1.58278  0  0.223047  0.679277  0  4.185754  0
C  C159  1  0.46652428  0.05916234  0.39059307  1  1.582866  0  0.222993  0.679083  0  4.186499  0
C  C160  1  0.89498029  0.37788134  0.83737538  1  -0.091248  0  -0.09848  -0.248345  0  3.896993  0
C  C161  1  0.60501928  0.87787943  0.66262388  1  -0.091267  0  -0.098461  -0.248428  0  3.897072  0
C  C162  1  0.10502017  0.62211899  0.16262539  1  -0.091225  0  -0.098461  -0.248363  0  3.897026  0
C  C163  1  0.39498015  0.12212248  0.33737589  1  -0.091315  0  -0.098437  -0.248344  0  3.897036  0
C  C164  1  0.75342009  0.37865277  0.82329340  1  -0.059036  0  -0.07073  -0.073367  0  3.996538  0
C  C165  1  0.74657952  0.87865020  0.67670682  1  -0.058995  0  -0.070808  -0.073305  0  3.996469  0
C  C166  1  0.24658038  0.62134755  0.17670690  1  -0.058973  0  -0.070784  -0.073374  0  3.996593  0
C  C167  1  0.25342096  0.12135012  0.32329349  1  -0.059014  0  -0.070814  -0.073308  0  3.996542  0
C  C168  1  0.67162108  0.30820612  0.77914176  1  0.043615  0  -0.013264  0.042331  0  4.047966  0
C  C169  1  0.82837404  0.80820669  0.72085805  1  0.043185  0  -0.013232  0.042359  0  4.047957  0
C  C170  1  0.32837938  0.69179420  0.22085901  1  0.043361  0  -0.013249  0.042307  0  4.048029  0
C  C171  1  0.17162644  0.19179443  0.27914225  1  0.043132  0  -0.013257  0.042367  0  4.047958  0
C  C172  1  0.52272515  0.31440973  0.77382749  1  0.458681  0  0.046231  0.042233  0  3.947333  0
C  C173  1  0.97727155  0.81441368  0.72617104  1  0.458653  0  0.046101  0.041866  0  3.947427  0
C  C174  1  0.47727533  0.68559139  0.22617281  1  0.458646  0  0.046239  0.042258  0  3.947477  0
C  C175  1  0.02272785  0.18558744  0.27382968  1  0.458705  0  0.046117  0.041945  0  3.947398  0
C  C176  1  0.49714505  0.17320725  0.70534619  1  0.441565  0  0.042852  0.089592  0  3.955539  0
C  C177  1  0.00284020  0.67321489  0.79465046  1  0.441505  0  0.042847  0.089576  0  3.955747  0
C  C178  1  0.50285331  0.82679386  0.29465401  1  0.441547  0  0.042885  0.089688  0  3.955511  0
C  C179  1  0.99716027  0.32678702  0.20534984  1  0.441337  0  0.042824  0.089544  0  3.955703  0
C  C180  1  0.64356417  0.16088387  0.70609630  1  0.021117  0  -0.083996  -0.126148  0  3.977184  0
C  C181  1  0.85641831  0.66088845  0.79390152  1  0.021344  0  -0.084109  -0.126315  0  3.977149  0
C  C182  1  0.35643523  0.83911725  0.29390442  1  0.021121  0  -0.084022  -0.126206  0  3.977286  0
C  C183  1  0.14357792  0.33911187  0.20609905  1  0.020897  0  -0.084114  -0.126296  0  3.977099  0
C  C184  1  0.73152097  0.22883608  0.74348894  1  -0.034162  0  -0.066687  -0.081467  0  3.940864  0
C  C185  1  0.76846895  0.72883664  0.75651035  1  -0.034111  0  -0.066706  -0.081499  0  3.940907  0
C  C186  1  0.26847739  0.77116425  0.25651126  1  -0.033885  0  -0.066712  -0.081456  0  3.940965  0
C  C187  1  0.23153045  0.27116369  0.24349037  1  -0.033691  0  -0.066666  -0.081425  0  3.940859  0
N  N188  1  0.13580135  0.14682332  0.92929660  1  -1.23103  0  -0.30292  -0.222933  0  3.416209  0
N  N189  1  0.36419340  0.64683003  0.57070264  1  -1.231212  0  -0.302865  -0.222894  0  3.416289  0
N  N190  1  0.86419913  0.85317542  0.07070370  1  -1.231013  0  -0.30289  -0.222903  0  3.416303  0
N  N191  1  0.63580815  0.35316950  0.42929724  1  -1.231201  0  -0.30286  -0.22288  0  3.416191  0
N  N192  1  0.35792198  0.13923395  0.08700267  1  -1.218368  0  -0.305056  -0.234272  0  3.382874  0
N  N193  1  0.14208297  0.63923417  0.41299474  1  -1.218312  0  -0.305002  -0.234165  0  3.382867  0
N  N194  1  0.64207850  0.86076638  0.91299715  1  -1.21837  0  -0.305067  -0.234279  0  3.38289  0
N  N195  1  0.85791752  0.36076457  0.58700509  1  -1.218325  0  -0.304995  -0.234078  0  3.382831  0
N  N196  1  0.43643031  0.24916853  0.73820981  1  -1.209281  0  -0.327412  -0.284926  0  3.363081  0
N  N197  1  0.06356197  0.74917629  0.76178789  1  -1.209004  0  -0.327237  -0.284638  0  3.363107  0
N  N198  1  0.56356911  0.75083258  0.26179044  1  -1.209239  0  -0.327442  -0.284991  0  3.363117  0
N  N199  1  0.93643741  0.25082324  0.23821378  1  -1.20893  0  -0.327195  -0.284671  0  3.362997  0
O  O200  1  0.32453541  0.59150561  0.91497056  1  -1.178856  0  -0.347909  -0.618562  0  2.199599  0
O  O201  1  0.17546234  0.09150225  0.58503021  1  -1.178881  0  -0.347924  -0.618586  0  2.199537  0
O  O202  1  0.67546403  0.40849313  0.08502874  1  -1.178884  0  -0.34788  -0.618485  0  2.199575  0
O  O203  1  0.82454025  0.90849649  0.41497019  1  -1.178934  0  -0.347932  -0.618594  0  2.199547  0
O  O204  1  0.15875497  0.64313861  0.97567230  1  -1.184623  0  -0.360383  -0.643401  0  2.295534  0
O  O205  1  0.34124160  0.14314387  0.52432700  1  -1.184565  0  -0.360427  -0.643435  0  2.295516  0
O  O206  1  0.84124761  0.35685934  0.02432811  1  -1.184627  0  -0.360396  -0.6434  0  2.295543  0
O  O207  1  0.65875681  0.85685645  0.47567130  1  -1.184515  0  -0.360434  -0.643458  0  2.295545  0
O  O208  1  0.42796451  0.57172558  0.04973039  1  -1.208296  0  -0.403669  -0.710778  0  2.34718  0
O  O209  1  0.07203293  0.07171909  0.45026934  1  -1.208247  0  -0.403586  -0.710598  0  2.347455  0
O  O210  1  0.57203601  0.42827553  0.95026802  1  -1.208036  0  -0.403619  -0.710676  0  2.347456  0
O  O211  1  0.92796544  0.92827965  0.54973038  1  -1.208184  0  -0.403559  -0.710608  0  2.347454  0
O  O212  1  0.62415525  0.67128893  0.05430562  1  -1.178239  0  -0.390124  -0.643496  0  2.24913  0
O  O213  1  0.87584514  0.17127951  0.44569329  1  -1.178139  0  -0.39014  -0.643426  0  2.249242  0
O  O214  1  0.37584416  0.32871061  0.94569510  1  -1.178231  0  -0.39016  -0.643503  0  2.248999  0
O  O215  1  0.12415326  0.82872002  0.55430549  1  -1.178117  0  -0.390126  -0.643451  0  2.249251  0
O  O216  1  0.09958885  0.42887050  0.90211439  1  -1.198569  0  -0.382653  -0.657594  0  2.241187  0
O  O217  1  0.40040680  0.92886761  0.59789130  1  -1.19865  0  -0.382667  -0.657663  0  2.241144  0
O  O218  1  0.90041054  0.57112903  0.09788680  1  -1.19858  0  -0.382677  -0.657686  0  2.241145  0
O  O219  1  0.59959478  0.07113588  0.40210716  1  -1.198717  0  -0.382625  -0.657608  0  2.241316  0
O  O220  1  0.89236674  0.50130565  0.92254216  1  -1.209518  0  -0.418534  -0.69739  0  2.341891  0
O  O221  1  0.60763067  0.00129996  0.57745586  1  -1.209484  0  -0.418587  -0.69751  0  2.342238  0
O  O222  1  0.10763374  0.49869626  0.07745767  1  -1.209521  0  -0.418607  -0.697456  0  2.341912  0
O  O223  1  0.39237299  0.99870275  0.42254412  1  -1.209408  0  -0.418572  -0.697427  0  2.342292  0
O  O224  1  0.11509176  0.30347618  0.01665240  1  -1.291223  0  -0.650416  -0.842584  0  2.135931  0
O  O225  1  0.38489755  0.80348165  0.48334576  1  -1.291481  0  -0.650416  -0.842601  0  2.135791  0
O  O226  1  0.88490869  0.69652176  0.98334884  1  -1.291251  0  -0.650403  -0.842527  0  2.135958  0
O  O227  1  0.61510401  0.19651868  0.51665365  1  -1.291488  0  -0.650382  -0.842509  0  2.135882  0
O  O228  1  0.39272079  0.36109733  0.08398271  1  -1.27098  0  -0.640513  -0.839695  0  2.077675  0
O  O229  1  0.10727721  0.86109693  0.41601831  1  -1.270984  0  -0.64055  -0.839703  0  2.077657  0
O  O230  1  0.60727861  0.63890379  0.91601801  1  -1.270972  0  -0.640537  -0.839696  0  2.077675  0
O  O231  1  0.89272228  0.13890339  0.58397910  1  -1.270977  0  -0.640564  -0.839679  0  2.077843  0
