# generated using pymatgen
data_CuH14C15(NO2)3
_symmetry_space_group_name_H-M   'P 1'
_cell_length_a   6.84878738
_cell_length_b   10.11290692
_cell_length_c   11.04400223
_cell_angle_alpha   104.19122202
_cell_angle_beta   99.85275225
_cell_angle_gamma   99.10337810
_symmetry_Int_Tables_number   1
_chemical_formula_structural   CuH14C15(NO2)3
_chemical_formula_sum   'Cu2 H28 C30 N6 O12'
_cell_volume   714.41639549
_cell_formula_units_Z   2
loop_
 _symmetry_equiv_pos_site_id
 _symmetry_equiv_pos_as_xyz
  1  'x, y, z'
loop_
 _atom_site_type_symbol
 _atom_site_label
 _atom_site_symmetry_multiplicity
 _atom_site_fract_x
 _atom_site_fract_y
 _atom_site_fract_z
 _atom_site_occupancy
 _atom_site_hle17_ddec_charge
 _atom_site_hle17_ddec_spin_density
 _atom_site_hle17_ddec_sum_bond_order
 _atom_site_hle17_magmom
 _atom_site_hse06_10hf_ddec_charge
 _atom_site_hse06_10hf_ddec_spin_density
 _atom_site_hse06_10hf_ddec_sum_bond_order
 _atom_site_hse06_10hf_magmom
 _atom_site_hse06_ddec_charge
 _atom_site_hse06_ddec_spin_density
 _atom_site_hse06_ddec_sum_bond_order
 _atom_site_hse06_magmom
 _atom_site_pbe_cm5_charge
 _atom_site_pbe_ddec_charge
 _atom_site_pbe_ddec_spin_density
 _atom_site_pbe_ddec_sum_bond_order
 _atom_site_pbe_magmom
Cu  Cu0  1  0.31431221  0.21667270  0.34002108  1  0.858058  0.66649  1.761029  0.474  0.85257  0.767177  2.142799  0.608  0.944998  0.841253  2.075346  0.701  0.716222  0.795896  0.714839  2.19057  0.549
Cu  Cu1  1  0.68568528  0.78332491  0.65997823  1  0.858137  0.666497  1.760955  0.474  0.852628  0.767171  2.142754  0.608  0.945046  0.841263  2.075222  0.701  0.716227  0.795917  0.714838  2.190544  0.549
H  H2  1  0.75166328  0.22096010  0.33199969  1  0.428425  -3.5e-05  0.864486  0.0  0.404553  4.2e-05  0.917953  0.0  0.415011  3.2e-05  0.902879  0.0  0.290476  0.397403  5.4e-05  0.92826  0.0
H  H3  1  0.24833903  0.77904379  0.66800154  1  0.428438  -3.5e-05  0.864466  0.0  0.404571  4.2e-05  0.917922  0.0  0.415028  3.2e-05  0.90285  0.0  0.2905  0.397421  5.4e-05  0.928231  0.0
H  H4  1  0.61095083  0.09432427  0.36276408  1  0.40838  -0.000219  0.889598  0.0  0.376625  -0.000216  0.961351  0.0  0.388132  -0.000222  0.944428  0.0  0.284549  0.368612  -0.000177  0.973147  0.0
H  H5  1  0.38904881  0.90568064  0.63723710  1  0.408404  -0.000219  0.889569  0.0  0.37666  -0.000216  0.961295  0.0  0.388167  -0.000222  0.944375  0.0  0.28456  0.368647  -0.000177  0.973092  0.0
H  H6  1  0.53146955  0.63197281  0.43745468  1  0.321316  -0.00135  0.868713  -0.002  0.309292  -0.00011  0.928992  0.0  0.315847  -0.000476  0.925122  -0.001  0.30616  0.304417  0.000235  0.932463  0.0
H  H7  1  0.46853211  0.36802899  0.56254329  1  0.321232  -0.001349  0.868774  -0.002  0.309245  -0.000111  0.929012  0.0  0.315801  -0.000477  0.92514  -0.001  0.306141  0.304371  0.000235  0.932473  0.0
H  H8  1  0.57037403  0.79734705  0.43092828  1  0.327638  -0.001294  0.897004  -0.001  0.310728  -0.000312  0.962124  0.0  0.318663  -0.000544  0.956929  -0.001  0.296982  0.305055  -8.5e-05  0.966129  0.0
H  H9  1  0.42962944  0.20265580  0.56907102  1  0.327576  -0.001289  0.897139  -0.001  0.31065  -0.000312  0.962278  0.0  0.318586  -0.000545  0.957083  -0.001  0.296945  0.304979  -8.5e-05  0.96628  0.0
H  H10  1  0.80271814  0.36976044  0.10343729  1  0.281811  -7.1e-05  0.925697  0.0  0.264789  -1.4e-05  0.991776  0.0  0.271165  -8e-06  0.988124  0.0  0.301914  0.26026  -1.5e-05  0.99437  0.0
H  H11  1  0.19727795  0.63024238  0.89656487  1  0.281862  -7.2e-05  0.925609  0.0  0.264832  -1.4e-05  0.991702  0.0  0.271209  -8e-06  0.988049  0.0  0.301943  0.260307  -1.5e-05  0.994295  0.0
H  H12  1  0.90091540  0.91919894  0.41533152  1  0.116522  -0.002067  0.947477  -0.002  0.126671  -0.00016  1.008881  0.0  0.12996  -0.000139  1.007016  0.0  0.109133  0.124133  -0.000119  1.010615  0.0
H  H13  1  0.09908653  0.08079869  0.58466644  1  0.116548  -0.002068  0.947431  -0.002  0.126676  -0.00016  1.008876  0.0  0.129974  -0.000139  1.007  0.0  0.109136  0.124141  -0.000119  1.010602  0.0
H  H14  1  0.75961521  0.48226586  0.39410911  1  0.120835  -0.002229  0.933845  -0.002  0.131551  -0.000252  0.994145  0.0  0.134004  -0.00023  0.993496  0.0  0.111938  0.129651  -0.000264  0.994914  0.0
H  H15  1  0.24038735  0.51773386  0.60589210  1  0.120877  -0.002232  0.933846  -0.002  0.131551  -0.000253  0.99419  0.0  0.134004  -0.00023  0.993542  0.0  0.111946  0.129649  -0.000264  0.99496  0.0
H  H16  1  0.30149118  0.65341387  0.28867636  1  0.107534  -0.001611  0.996739  -0.002  0.111796  0.000383  1.070403  0.0  0.115804  0.00024  1.067766  0.0  0.106527  0.10894  0.000448  1.072529  0.0
H  H17  1  0.69851135  0.34658584  0.71132123  1  0.107549  -0.001612  0.996713  -0.002  0.111833  0.000382  1.070345  0.0  0.115838  0.00024  1.067716  0.0  0.106544  0.108974  0.000447  1.072473  0.0
H  H18  1  0.49731347  0.36447402  0.18438665  1  0.098292  0.000851  0.946815  0.001  0.101894  0.000801  1.021754  0.001  0.105436  0.000585  1.017383  0.001  0.122906  0.099167  0.000966  1.025013  0.002
H  H19  1  0.50268349  0.63552672  0.81561603  1  0.098223  0.00085  0.946947  0.001  0.101875  0.000801  1.021816  0.001  0.105417  0.000585  1.017448  0.001  0.122886  0.099145  0.000966  1.025075  0.002
H  H20  1  0.92623761  0.61251077  0.09205795  1  0.065511  0.000176  0.936317  0.0  0.080762  6.1e-05  1.002043  0.0  0.080137  2.6e-05  1.004162  0.0  0.10213  0.081202  0.000112  1.000475  0.0
H  H21  1  0.07375784  0.38748996  0.90794186  1  0.065462  0.000175  0.936275  0.0  0.080747  6.1e-05  1.002007  0.0  0.080123  2.6e-05  1.004127  0.0  0.102124  0.081188  0.000112  1.000438  0.0
H  H22  1  0.82517326  0.54612676  0.92410499  1  0.0746  -3.4e-05  0.944048  0.0  0.089059  -2.8e-05  1.007947  0.0  0.089648  -3.3e-05  1.007824  0.0  0.110154  0.088534  -2.6e-05  1.00811  0.0
H  H23  1  0.17482220  0.45387396  0.07589573  1  0.074552  -3.4e-05  0.944098  0.0  0.089036  -2.8e-05  1.007995  0.0  0.089624  -3.2e-05  1.00787  0.0  0.110156  0.08851  -2.6e-05  1.008156  0.0
H  H24  1  0.36372220  0.09821845  0.79855160  1  0.113291  0.000367  0.962034  0.0  0.123158  9.4e-05  1.023523  0.0  0.126781  3.6e-05  1.020139  0.0  0.112944  0.120307  0.000141  1.026167  0.0
H  H25  1  0.63627536  0.90178437  0.20144981  1  0.113309  0.000367  0.962008  0.0  0.123189  9.4e-05  1.023478  0.0  0.126806  3.6e-05  1.020101  0.0  0.112933  0.120344  0.000141  1.026121  0.0
H  H26  1  0.16473314  0.91182604  0.87404790  1  0.123437  0.000296  0.96278  0.0  0.131553  0.000366  1.024124  0.0  0.135184  0.00026  1.022506  0.0  0.109675  0.128717  0.000475  1.025782  0.001
H  H27  1  0.83526228  0.08817468  0.12594919  1  0.123488  0.000296  0.962714  0.0  0.131576  0.000366  1.024089  0.0  0.135208  0.00026  1.022471  0.0  0.109679  0.128738  0.000475  1.025747  0.001
H  H28  1  0.15233531  0.96633150  0.10674271  1  0.084401  0.000702  0.950473  0.001  0.093911  0.000681  1.010785  0.001  0.096257  0.00049  1.009179  0.001  0.118178  0.09204  0.000852  1.012101  0.001
H  H29  1  0.84765919  0.03366609  0.89325448  1  0.084363  0.000702  0.950481  0.001  0.093849  0.000681  1.010813  0.001  0.096194  0.00049  1.009209  0.001  0.118173  0.091973  0.000852  1.012125  0.001
C  C30  1  0.26077203  0.92423680  0.34510020  1  0.647314  -0.005072  3.881191  -0.004  0.601818  -0.00171  4.178547  -0.002  0.639475  -0.002001  4.170726  -0.002  0.212104  0.576351  -0.001363  4.182956  -0.002
C  C31  1  0.73923053  0.07576291  0.65490012  1  0.647412  -0.00507  3.880979  -0.004  0.601868  -0.001711  4.178399  -0.002  0.63952  -0.002  4.170577  -0.002  0.212119  0.576397  -0.001363  4.182807  -0.002
C  C32  1  0.11711791  0.79958224  0.35282317  1  -0.045354  -0.028684  3.770507  -0.02  -0.020418  -0.001793  4.0105  0.0  -0.02746  -0.004303  4.032174  -0.002  -0.018419  -0.015593  0.001064  3.996092  0.002
C  C33  1  0.88288285  0.20041643  0.64717582  1  -0.045544  -0.028683  3.770376  -0.02  -0.020635  -0.001792  4.010451  0.0  -0.027662  -0.004306  4.032102  -0.002  -0.018502  -0.015791  0.001063  3.996002  0.002
C  C34  1  0.93868256  0.81667087  0.39440795  1  -0.135496  0.046177  3.636575  0.042  -0.177418  0.013724  3.896376  0.013  -0.179708  0.010626  3.915109  0.011  -0.080414  -0.175799  0.014947  3.883984  0.014
C  C35  1  0.06131965  0.18332780  0.60558847  1  -0.13539  0.046185  3.636301  0.042  -0.177314  0.013724  3.896157  0.013  -0.179615  0.010628  3.914879  0.011  -0.080364  -0.175705  0.014948  3.883769  0.014
C  C36  1  0.81159723  0.70333703  0.41168157  1  0.294186  -0.026484  3.755866  -0.023  0.290312  -0.009963  4.024432  -0.008  0.297815  -0.013002  4.047643  -0.01  0.091823  0.285569  -0.006525  4.008886  -0.006
C  C37  1  0.18840532  0.29666269  0.58831783  1  0.294234  -0.026486  3.755793  -0.023  0.290357  -0.009961  4.024374  -0.008  0.297859  -0.013005  4.047586  -0.01  0.091862  0.285613  -0.006525  4.00883  -0.006
C  C38  1  0.85918025  0.57138423  0.38224534  1  -0.143145  0.045218  3.639902  0.041  -0.183804  0.013588  3.899406  0.013  -0.187333  0.01054  3.921205  0.011  -0.082808  -0.181446  0.015329  3.884757  0.014
C  C39  1  0.14082589  0.42861759  0.61775581  1  -0.143148  0.045215  3.639716  0.041  -0.18376  0.013586  3.899213  0.013  -0.187288  0.010541  3.921007  0.011  -0.0828  -0.181405  0.015328  3.884568  0.014
C  C40  1  0.03683916  0.55439085  0.33956118  1  -0.053428  -0.027278  3.776442  -0.019  -0.026584  -0.001795  4.015967  -0.001  -0.034137  -0.004252  4.039317  -0.002  -0.020223  -0.021381  0.000649  4.00013  0.001
C  C41  1  0.96316433  0.44561200  0.66043993  1  -0.053557  -0.027279  3.776418  -0.019  -0.026725  -0.001794  4.015967  -0.001  -0.034279  -0.004255  4.039315  -0.002  -0.020255  -0.021522  0.000649  4.000137  0.001
C  C42  1  0.08924169  0.41348868  0.31279603  1  0.637914  -0.004001  3.906265  -0.003  0.592031  -0.001374  4.207761  -0.002  0.628737  -0.001706  4.199569  -0.002  0.20524  0.567489  -0.000605  4.211902  -0.002
C  C43  1  0.91076206  0.58651001  0.68720598  1  0.638045  -0.004003  3.906113  -0.003  0.592139  -0.001375  4.207638  -0.002  0.628844  -0.001706  4.199445  -0.002  0.205279  0.567597  -0.000605  4.211782  -0.002
C  C44  1  0.16635840  0.66820499  0.32531186  1  -0.081588  0.053245  3.702161  0.048  -0.130828  0.014607  3.964265  0.014  -0.131188  0.010792  3.9839  0.011  -0.087727  -0.131021  0.01856  3.951999  0.017
C  C45  1  0.83364502  0.33179265  0.67468717  1  -0.08152  0.053243  3.702101  0.048  -0.130744  0.014604  3.964179  0.014  -0.131109  0.010793  3.983809  0.011  -0.087739  -0.130938  0.018558  3.951913  0.017
C  C46  1  0.43035724  0.26433827  0.11368933  1  0.096766  -0.009956  3.680339  -0.007  0.057552  -0.002527  3.935071  -0.002  0.068288  -0.00403  3.950452  -0.003  0.048329  0.049936  -0.001439  3.92646  -0.001
C  C47  1  0.56964473  0.73565936  0.88631226  1  0.096827  -0.009958  3.680369  -0.007  0.057604  -0.002528  3.935114  -0.002  0.068334  -0.004028  3.950503  -0.003  0.048328  0.049991  -0.001439  3.926509  -0.001
C  C48  1  0.45151030  0.24118931  0.98745281  1  -0.090082  0.007951  3.761793  0.008  -0.060119  0.003545  3.991199  0.004  -0.070029  0.00324  4.01166  0.004  -0.002547  -0.054067  0.003761  3.977753  0.004
C  C49  1  0.54849018  0.75880832  0.01254863  1  -0.089985  0.007952  3.76176  0.008  -0.060105  0.003545  3.991235  0.004  -0.070011  0.00324  4.011693  0.004  -0.002568  -0.054053  0.003761  3.977803  0.004
C  C50  1  0.57608818  0.35215872  0.94856666  1  0.54494  9.1e-05  3.870211  0.0  0.49184  0.000349  4.16218  0.0  0.521388  0.000201  4.161739  0.0  0.239866  0.471956  0.000496  4.162028  0.0
C  C51  1  0.42391079  0.64783889  0.05143191  1  0.544809  9.3e-05  3.870385  0.0  0.49178  0.000348  4.162275  0.0  0.521329  0.000201  4.161832  0.0  0.239863  0.471895  0.000496  4.162128  0.0
C  C52  1  0.89975486  0.52052290  0.00899820  1  0.029065  0.000267  3.664347  0.0  -0.031387  0.0001  3.928181  0.0  -0.026816  5.5e-05  3.939607  0.0  -0.063317  -0.034344  0.000163  3.920304  0.0
C  C53  1  0.10024357  0.47947784  0.99100282  1  0.029226  0.000267  3.664296  0.0  -0.031346  0.000101  3.928227  0.0  -0.026775  5.4e-05  3.939652  0.0  -0.063311  -0.034314  0.000163  3.920351  0.0
C  C54  1  0.35069672  0.11487972  0.89783618  1  -0.009724  -0.011264  3.666981  -0.007  -0.038517  -0.004508  3.908959  -0.003  -0.031617  -0.005052  3.923041  -0.003  -0.05728  -0.04258  -0.004104  3.899314  -0.002
C  C55  1  0.64930020  0.88512101  0.10216288  1  -0.009814  -0.011264  3.667011  -0.007  -0.038576  -0.004509  3.908971  -0.003  -0.031668  -0.005051  3.923051  -0.003  -0.057249  -0.04264  -0.004103  3.899328  -0.002
C  C56  1  0.24304974  0.01288495  0.93984746  1  -0.121712  0.008585  3.717664  0.009  -0.131891  0.003681  3.966297  0.004  -0.140258  0.003357  3.986459  0.004  -0.082697  -0.126651  0.003897  3.952815  0.005
C  C57  1  0.75694451  0.98711682  0.06015065  1  -0.121719  0.008586  3.717591  0.009  -0.131885  0.003682  3.966221  0.004  -0.140253  0.003357  3.986377  0.004  -0.082672  -0.126641  0.003897  3.952735  0.005
C  C58  1  0.23401305  0.04227085  0.06864462  1  0.126537  -0.009835  3.690857  -0.007  0.097842  -0.002584  3.944077  -0.002  0.107614  -0.004096  3.962275  -0.003  0.048806  0.091819  -0.00145  3.931969  -0.001
C  C59  1  0.76598146  0.95772674  0.93135258  1  0.126596  -0.009835  3.690855  -0.007  0.097931  -0.002584  3.94407  -0.002  0.107704  -0.004094  3.962267  -0.003  0.048786  0.091912  -0.00145  3.931951  -0.001
N  N60  1  0.63797120  0.72322796  0.46240060  1  -0.611014  0.105682  3.15965  0.13  -0.597243  0.061795  3.425539  0.081  -0.632395  0.047577  3.428489  0.068  -0.605434  -0.576528  0.068768  3.425893  0.085
N  N61  1  0.36202956  0.27677071  0.53759838  1  -0.610886  0.105675  3.159736  0.13  -0.597152  0.061792  3.425624  0.081  -0.632313  0.047578  3.428595  0.068  -0.605409  -0.576448  0.068768  3.425981  0.085
N  N62  1  0.32083541  0.16689387  0.15298319  1  -0.306137  0.06244  3.359047  0.077  -0.253898  0.049903  3.653155  0.067  -0.284236  0.041448  3.674318  0.06  -0.348292  -0.235893  0.05464  3.640976  0.07
N  N63  1  0.67916239  0.83310478  0.84701640  1  -0.3062  0.062438  3.359114  0.077  -0.253974  0.049905  3.653242  0.067  -0.284308  0.041445  3.674379  0.06  -0.348277  -0.235961  0.054639  3.641056  0.07
N  N64  1  0.76188391  0.40609284  0.02605243  1  -0.422057  0.000219  3.335451  0.0  -0.361461  6.9e-05  3.584449  0.0  -0.383772  1.7e-05  3.595897  0.0  -0.420119  -0.346271  8.8e-05  3.576401  0.0
N  N65  1  0.23811124  0.59390685  0.97394892  1  -0.422083  0.00022  3.335436  0.0  -0.361468  6.9e-05  3.584412  0.0  -0.383788  1.6e-05  3.595879  0.0  -0.42012  -0.346274  8.8e-05  3.576367  0.0
O  O66  1  0.17814955  0.02746149  0.33330869  1  -0.614652  0.071408  2.096813  0.095  -0.586041  0.049683  2.388891  0.075  -0.627844  0.036991  2.378936  0.061  -0.330956  -0.558196  0.05859  2.396354  0.083
O  O67  1  0.82185003  0.97253821  0.66669041  1  -0.614657  0.071398  2.096753  0.095  -0.58602  0.049679  2.388842  0.075  -0.627817  0.036986  2.378867  0.061  -0.330946  -0.558173  0.058587  2.3963  0.083
O  O68  1  0.64842925  0.19671565  0.37945412  1  -0.844427  0.002845  1.887429  0.005  -0.801228  0.00305  2.073609  0.006  -0.823905  0.001589  2.041272  0.004  -0.596625  -0.785237  0.004312  2.096205  0.007
O  O69  1  0.35156891  0.80328926  0.62054691  1  -0.844466  0.002846  1.887388  0.005  -0.801297  0.003051  2.073592  0.006  -0.823968  0.001589  2.041243  0.004  -0.596667  -0.785278  0.004312  2.096152  0.007
O  O70  1  0.44680321  0.92280412  0.35200327  1  -0.61991  -0.001965  1.966442  0.0  -0.561271  -0.00068  2.183682  0.001  -0.587518  -0.00174  2.17516  -0.001  -0.305518  -0.542718  0.00016  2.189026  0.002
O  O71  1  0.55319405  0.07719766  0.64799968  1  -0.62002  -0.001966  1.966302  0.0  -0.561303  -0.000679  2.183495  0.001  -0.587555  -0.001741  2.17498  -0.001  -0.305528  -0.542754  0.000161  2.188836  0.002
O  O72  1  0.94959575  0.30583381  0.26170929  1  -0.65044  -0.002643  1.95902  -0.001  -0.608882  -0.00149  2.196018  0.0  -0.632955  -0.002317  2.183017  -0.001  -0.322143  -0.591481  0.000181  2.204793  0.002
O  O73  1  0.05040719  0.69416695  0.73829945  1  -0.65048  -0.002643  1.958981  -0.001  -0.608918  -0.001489  2.195992  0.0  -0.632988  -0.002319  2.182986  -0.001  -0.322148  -0.591519  0.000181  2.20477  0.002
O  O74  1  0.27906869  0.41216137  0.34611999  1  -0.610818  0.061437  2.025676  0.082  -0.570314  0.044668  2.299553  0.066  -0.609033  0.034055  2.28952  0.055  -0.324217  -0.544298  0.050752  2.30645  0.071
O  O75  1  0.72093382  0.58783834  0.65387579  1  -0.61086  0.061443  2.025534  0.082  -0.570349  0.044673  2.299429  0.066  -0.609065  0.034057  2.289378  0.055  -0.324223  -0.544325  0.050755  2.30632  0.071
O  O76  1  0.50982482  0.38868372  0.85257481  1  -0.546832  0.001647  1.931257  0.002  -0.499034  0.001155  2.154253  0.001  -0.520157  0.000739  2.149786  0.001  -0.29733  -0.483978  0.001698  2.156661  0.002
O  O77  1  0.49017267  0.61131389  0.14742451  1  -0.546796  0.001647  1.931294  0.002  -0.499001  0.001155  2.154227  0.001  -0.520133  0.000739  2.149782  0.001  -0.297346  -0.483941  0.001698  2.156636  0.002
