# generated using pymatgen
data_NaCdH21C14SN2O11
_symmetry_space_group_name_H-M   'P 1'
_cell_length_a   8.85764118
_cell_length_b   10.35617914
_cell_length_c   12.91000000
_cell_angle_alpha   106.45900297
_cell_angle_beta   109.71219008
_cell_angle_gamma   98.52087971
_symmetry_Int_Tables_number   1
_chemical_formula_structural   NaCdH21C14SN2O11
_chemical_formula_sum   'Na2 Cd2 H42 C28 S2 N4 O22'
_cell_volume   1029.46939532
_cell_formula_units_Z   2
loop_
 _symmetry_equiv_pos_site_id
 _symmetry_equiv_pos_as_xyz
  1  'x, y, z'
loop_
 _atom_site_type_symbol
 _atom_site_label
 _atom_site_symmetry_multiplicity
 _atom_site_fract_x
 _atom_site_fract_y
 _atom_site_fract_z
 _atom_site_occupancy
 _atom_site_hle17_bader_spin_density
 _atom_site_hle17_ddec_charge
 _atom_site_hle17_ddec_spin_density
 _atom_site_hle17_ddec_sum_bond_order
 _atom_site_hle17_magmom
 _atom_site_hse06_10hf_bader_spin_density
 _atom_site_hse06_10hf_ddec_charge
 _atom_site_hse06_10hf_ddec_spin_density
 _atom_site_hse06_10hf_ddec_sum_bond_order
 _atom_site_hse06_10hf_magmom
 _atom_site_hse06_bader_spin_density
 _atom_site_hse06_ddec_charge
 _atom_site_hse06_ddec_spin_density
 _atom_site_hse06_ddec_sum_bond_order
 _atom_site_hse06_magmom
 _atom_site_pbe_bader_charge
 _atom_site_pbe_bader_spin_density
 _atom_site_pbe_cm5_charge
 _atom_site_pbe_ddec_charge
 _atom_site_pbe_ddec_spin_density
 _atom_site_pbe_ddec_sum_bond_order
 _atom_site_pbe_magmom
Na  Na0  1  0.51008250  0.66962779  0.47074761  1  0  0.918517  0  0.358501  0  0  0.880545  0  0.504316  0  0  0.890854  0  0.48321  0  0.894114  0  0.661274  0.872692  0  0.519636  0
Na  Na1  1  0.48991753  0.33037127  0.52925226  1  0  0.918524  0  0.358514  0  0  0.880549  0  0.504335  0  0  0.890861  0  0.483227  0  0.894102  0  0.661274  0.872697  0  0.519655  0
Cd  Cd2  1  0.18346745  0.94603394  0.37346287  1  0  1.261144  0  1.525491  0  0  1.092556  0  1.957989  0  0  1.152555  0  1.896863  0  1.326951  0  0.776399  1.045723  0  2.003341  0
Cd  Cd3  1  0.81653172  0.05396616  0.62653550  1  0  1.261132  0  1.525504  0  0  1.092548  0  1.958009  0  0  1.152547  0  1.896883  0  1.326946  0  0.776406  1.045713  0  2.003364  0
H  H4  1  0.75684622  0.58553310  0.31420776  1  0  0.117076  0  0.95698  0  0  0.121148  0  1.02822  0  0  0.125755  0  1.023963  0  0.150286  0  0.112941  0.117754  0  1.031367  0
H  H5  1  0.24315516  0.41447014  0.68579337  1  0  0.11709  0  0.956889  0  0  0.12113  0  1.028174  0  0  0.12574  0  1.02392  0  0.150385  0  0.112913  0.117735  0  1.031325  0
H  H6  1  0.20001771  0.44254807  0.39860880  1  0  0.109587  0  0.960213  0  0  0.113204  0  1.034439  0  0  0.11854  0  1.028757  0  0.112231  0  0.116369  0.109392  0  1.038647  0
H  H7  1  0.79998454  0.55745413  0.60139385  1  0  0.109582  0  0.960234  0  0  0.113188  0  1.034472  0  0  0.118522  0  1.028792  0  0.112247  0  0.116381  0.109376  0  1.038679  0
H  H8  1  0.72722789  0.16731937  0.31679838  1  0  0.106844  0  0.966261  0  0  0.114526  0  1.033169  0  0  0.118679  0  1.029332  0  0.117409  0  0.109297  0.111519  0  1.035935  0
H  H9  1  0.27277435  0.83268283  0.68320039  1  0  0.106831  0  0.966241  0  0  0.114517  0  1.033151  0  0  0.11866  0  1.029329  0  0.117378  0  0.109283  0.111511  0  1.035918  0
H  H10  1  0.28599293  0.98414843  0.16242223  1  0  0.048786  0  0.989463  0  0  0.058246  0  1.059627  0  0  0.059859  0  1.054723  0  0.161409  0  0.122717  0.056801  0  1.063324  0
H  H11  1  0.71400317  0.01584958  0.83757649  1  0  0.048831  0  0.989373  0  0  0.058236  0  1.059604  0  0  0.059842  0  1.054696  0  0.161377  0  0.122745  0.056791  0  1.063301  0
H  H12  1  0.31165089  0.02698831  0.02006824  1  0  0.11131  0  0.94617  0  0  0.12999  0  1.009998  0  0  0.131328  0  1.009263  0  0.090511  0  0.11035  0.128873  0  1.010681  0
H  H13  1  0.68834982  0.97301284  0.97993227  1  0  0.111333  0  0.946161  0  0  0.130015  0  1.00998  0  0  0.131354  0  1.009242  0  0.090528  0  0.110362  0.128897  0  1.010664  0
H  H14  1  0.12973197  0.98662359  0.88892887  1  0  0.11213  0  0.938115  0  0  0.131287  0  1.000203  0  0  0.131984  0  1.001036  0  0.07731  0  0.106189  0.130664  0  0.99971  0
H  H15  1  0.87027233  0.01337756  0.11107015  1  0  0.112101  0  0.938154  0  0  0.131259  0  1.000242  0  0  0.131954  0  1.001077  0  0.077312  0  0.106183  0.130634  0  0.999747  0
H  H16  1  0.25644009  0.86862646  0.89651837  1  0  0.092664  0  0.952481  0  0  0.110672  0  1.020236  0  0  0.110967  0  1.020905  0  0.049064  0  0.097138  0.110289  0  1.019886  0
H  H17  1  0.74355942  0.13137469  0.10348341  1  0  0.092709  0  0.952434  0  0  0.110706  0  1.020202  0  0  0.111002  0  1.020869  0  0.04904  0  0.097162  0.110323  0  1.019851  0
H  H18  1  0.97766507  0.67425290  0.86315666  1  0  0.09323  0  0.941436  0  0  0.114241  0  1.005781  0  0  0.113854  0  1.007058  0  0.051912  0  0.101345  0.11432  0  1.005048  0
H  H19  1  0.02233272  0.32575035  0.13683977  1  0  0.093242  0  0.941369  0  0  0.114237  0  1.005714  0  0  0.113851  0  1.006987  0  0.051921  0  0.101342  0.114315  0  1.004982  0
H  H20  1  0.87691186  0.80959495  0.85566689  1  0  0.108411  0  0.938128  0  0  0.127092  0  1.003602  0  0  0.127347  0  1.003935  0  0.082798  0  0.106555  0.126734  0  1.00349  0
H  H21  1  0.12308832  0.19040829  0.14433087  1  0  0.108479  0  0.938097  0  0  0.127114  0  1.003587  0  0  0.127372  0  1.003914  0  0.082803  0  0.106559  0.126745  0  1.003488  0
H  H22  1  0.88792190  0.73601785  0.96670357  1  0  0.117784  0  0.944089  0  0  0.135612  0  1.00724  0  0  0.137958  0  1.004913  0  0.101027  0  0.109884  0.133816  0  1.008994  0
H  H23  1  0.11207281  0.26398331  0.03329322  1  0  0.117776  0  0.944075  0  0  0.13559  0  1.007219  0  0  0.137936  0  1.00489  0  0.101031  0  0.109876  0.133795  0  1.008971  0
H  H24  1  0.31774283  0.58749273  0.18946770  1  0  0.046609  0  0.919046  0  0  0.055535  0  0.985692  0  0  0.057533  0  0.980555  0  0.120571  0  0.128476  0.053856  0  0.989536  0
H  H25  1  0.68225721  0.41250633  0.81053217  1  0  0.046604  0  0.919038  0  0  0.055532  0  0.985681  0  0  0.05753  0  0.980544  0  0.120575  0  0.128482  0.053853  0  0.989525  0
H  H26  1  0.22353888  0.52464758  0.00120833  1  0  0.107707  0  0.923679  0  0  0.130813  0  0.980108  0  0  0.131856  0  0.979325  0  0.052745  0  0.113669  0.129989  0  0.980699  0
H  H27  1  0.77646115  0.47535148  0.99879154  1  0  0.107716  0  0.923661  0  0  0.130824  0  0.98009  0  0  0.131867  0  0.979307  0  0.052752  0  0.113673  0.129999  0  0.980682  0
H  H28  1  0.37181176  0.53806801  0.93612272  1  0  0.111896  0  0.943331  0  0  0.130956  0  1.005987  0  0  0.131537  0  1.006859  0  0.088487  0  0.107818  0.130393  0  1.005487  0
H  H29  1  0.62818708  0.46193105  0.06387765  1  0  0.11191  0  0.94328  0  0  0.130983  0  1.005924  0  0  0.131564  0  1.006797  0  0.088519  0  0.10784  0.130421  0  1.005425  0
H  H30  1  0.26495882  0.66907148  0.95551025  1  0  0.089694  0  0.962007  0  0  0.108137  0  1.029387  0  0  0.108016  0  1.031119  0  0.031357  0  0.098835  0.108119  0  1.028267  0
H  H31  1  0.73504241  0.33092758  0.04448990  1  0  0.089683  0  0.96205  0  0  0.108129  0  1.02943  0  0  0.108007  0  1.031161  0  0.031337  0  0.098829  0.10811  0  1.02831  0
H  H32  1  0.59522525  0.87519969  0.14487595  1  0  0.094567  0  0.925789  0  0  0.120004  0  0.981498  0  0  0.119995  0  0.981789  0  0.043949  0  0.102079  0.119796  0  0.981528  0
H  H33  1  0.40477565  0.12479832  0.85512389  1  0  0.094554  0  0.925732  0  0  0.120011  0  0.981436  0  0  0.120003  0  0.981726  0  0.043926  0  0.102082  0.119802  0  0.981468  0
H  H34  1  0.61213853  0.73301566  0.03584367  1  0  0.116595  0  0.953915  0  0  0.137243  0  1.015059  0  0  0.13871  0  1.014389  0  0.09911  0  0.108812  0.136043  0  1.015595  0
H  H35  1  0.38786323  0.26698131  0.96415690  1  0  0.116541  0  0.953963  0  0  0.137195  0  1.01511  0  0  0.138662  0  1.01444  0  0.099121  0  0.108798  0.135994  0  1.015647  0
H  H36  1  0.71257524  0.76032291  0.18946909  1  0  0.12223  0  0.934015  0  0  0.140713  0  0.997027  0  0  0.142498  0  0.995471  0  0.115786  0  0.113089  0.139261  0  0.998339  0
H  H37  1  0.28742533  0.23967406  0.81053043  1  0  0.122194  0  0.934009  0  0  0.140693  0  0.997015  0  0  0.142478  0  0.995458  0  0.11582  0  0.113084  0.139241  0  0.998327  0
H  H38  1  0.18550419  0.99053239  0.60728957  1  0  0.440994  0  0.857774  0  0  0.405984  0  0.92734  0  0  0.417371  0  0.911025  0  0.658534  0  0.293847  0.39779  0  0.939125  0
H  H39  1  0.81449652  0.00946876  0.39270938  1  0  0.441026  0  0.857724  0  0  0.406021  0  0.92728  0  0  0.417407  0  0.910966  0  0.658527  0  0.29385  0.397828  0  0.939064  0
H  H40  1  0.32114138  0.12763634  0.62458306  1  0  0.431426  0  0.872455  0  0  0.398025  0  0.939918  0  0  0.409757  0  0.923005  0  0.668283  0  0.298894  0.38972  0  0.951873  0
H  H41  1  0.67885899  0.87236377  0.37541635  1  0  0.431409  0  0.872479  0  0  0.39801  0  0.939939  0  0  0.409741  0  0.923026  0  0.668318  0  0.298891  0.389705  0  0.951893  0
H  H42  1  0.43855643  0.10932206  0.34028224  1  0  0.419039  0  0.893421  0  0  0.387376  0  0.959406  0  0  0.39835  0  0.943343  0  0.635735  0  0.289708  0.379458  0  0.970963  0
H  H43  1  0.56144394  0.89067805  0.65971872  1  0  0.419057  0  0.893395  0  0  0.387402  0  0.959366  0  0  0.398377  0  0.943303  0  0.635723  0  0.289712  0.379485  0  0.970923  0
H  H44  1  0.54486988  0.02028019  0.39992974  1  0  0.430287  0  0.871977  0  0  0.40128  0  0.932001  0  0  0.412091  0  0.916329  0  0.656683  0  0.290928  0.393495  0  0.94328  0
H  H45  1  0.45512862  0.97971783  0.60006954  1  0  0.430308  0  0.87195  0  0  0.401302  0  0.931971  0  0  0.412114  0  0.916299  0  0.656688  0  0.290934  0.393518  0  0.94325  0
C  C46  1  0.72401331  0.37288604  0.31179694  1  0  -0.135239  0  3.77257  0  0  -0.104775  0  4.022557  0  0  -0.114456  0  4.044345  0  -0.122919  0  -0.018602  -0.098869  0  4.007715  0
C  C47  1  0.27598706  0.62711407  0.68820402  1  0  -0.135268  0  3.772605  0  0  -0.104789  0  4.022579  0  0  -0.114467  0  4.04436  0  -0.123166  0  -0.0186  -0.098882  0  4.007734  0
C  C48  1  0.81635721  0.50304564  0.32656347  1  0  -0.04611  0  3.682199  0  0  -0.08556  0  3.932878  0  0  -0.080189  0  3.94893  0  -0.0604  0  -0.066874  -0.087866  0  3.921498  0
C  C49  1  0.18363990  0.49695552  0.67343620  1  0  -0.046153  0  3.682162  0  0  -0.085587  0  3.932899  0  0  -0.080219  0  3.948951  0  -0.060467  0  -0.06687  -0.087893  0  3.921518  0
C  C50  1  0.98855326  0.52871951  0.35804239  1  0  -0.063752  0  3.734073  0  0  -0.035091  0  3.965634  0  0  -0.045785  0  3.989221  0  0.001645  0  -0.013117  -0.028706  0  3.950832  0
C  C51  1  0.01144711  0.47128060  0.64195625  1  0  -0.063653  0  3.734102  0  0  -0.035032  0  3.96572  0  0  -0.045729  0  3.989311  0  0.001579  0  -0.013127  -0.028649  0  3.950923  0
C  C52  1  0.06655089  0.42414177  0.37573745  1  0  -0.052943  0  3.671694  0  0  -0.090521  0  3.920497  0  0  -0.085635  0  3.937046  0  -0.080993  0  -0.062677  -0.09411  0  3.910728  0
C  C53  1  0.93345034  0.57585729  0.62426347  1  0  -0.052914  0  3.671719  0  0  -0.090465  0  3.920536  0  0  -0.085576  0  3.937083  0  -0.08099  0  -0.062665  -0.09405  0  3.910762  0
C  C54  1  0.97302520  0.29429483  0.36194842  1  0  -0.072702  0  3.759472  0  0  -0.046047  0  3.996419  0  0  -0.056888  0  4.020057  0  0.020796  0  -0.017307  -0.039311  0  3.9812  0
C  C55  1  0.02697671  0.70570632  0.63805236  1  0  -0.072757  0  3.759444  0  0  -0.046106  0  3.996403  0  0  -0.056947  0  4.020038  0  0.020827  0  -0.017339  -0.039369  0  3.981183  0
C  C56  1  0.80088638  0.26861991  0.32942287  1  0  -0.062165  0  3.733757  0  0  -0.102831  0  3.984973  0  0  -0.097958  0  4.001992  0  -0.063943  0  -0.077401  -0.104895  0  3.972922  0
C  C57  1  0.19911433  0.73138124  0.67057841  1  0  -0.062149  0  3.733726  0  0  -0.10281  0  3.984927  0  0  -0.09793  0  4.001953  0  -0.063708  0  -0.077393  -0.104875  0  3.972874  0
C  C58  1  0.08582729  0.66870549  0.37111637  1  0  0.646208  0  3.94865  0  0  0.601436  0  4.233001  0  0  0.635063  0  4.22891  0  1.591799  0  0.196555  0.578555  0  4.234786  0
C  C59  1  0.91417428  0.33129461  0.62888487  1  0  0.646016  0  3.948794  0  0  0.601254  0  4.233158  0  0  0.634883  0  4.229069  0  1.591815  0  0.196513  0.578374  0  4.234941  0
C  C60  1  0.05386902  0.17993567  0.37509528  1  0  0.656294  0  3.91807  0  0  0.606537  0  4.205447  0  0  0.640561  0  4.200166  0  1.569517  0  0.206433  0.58332  0  4.208169  0
C  C61  1  0.94613083  0.82006653  0.62490526  1  0  0.656173  0  3.918223  0  0  0.606412  0  4.205611  0  0  0.640437  0  4.200331  0  1.569907  0  0.206409  0.583195  0  4.20833  0
C  C62  1  0.16681628  0.90277986  0.11367013  1  0  0.373308  0  3.828293  0  0  0.298078  0  4.115665  0  0  0.326414  0  4.116886  0  1.282697  0  0.16297  0.279109  0  4.114281  0
C  C63  1  0.83317963  0.09722129  0.88632926  1  0  0.373281  0  3.828095  0  0  0.298094  0  4.115527  0  0  0.326462  0  4.116749  0  1.282619  0  0.162957  0.27912  0  4.114141  0
C  C64  1  0.20784843  0.94225689  0.94792677  1  0  -0.182332  0  3.650311  0  0  -0.282778  0  3.898939  0  0  -0.280038  0  3.910149  0  0.250986  0  -0.134086  -0.284275  0  3.891406  0
C  C65  1  0.79215227  0.05774426  0.05207373  1  0  -0.182407  0  3.650258  0  0  -0.282835  0  3.898911  0  0  -0.280074  0  3.910136  0  0.250995  0  -0.134117  -0.284335  0  3.891373  0
C  C66  1  0.95451592  0.76679366  0.91624593  1  0  -0.171247  0  3.639533  0  0  -0.273442  0  3.888035  0  0  -0.26923  0  3.897421  0  0.254215  0  -0.136229  -0.275975  0  3.881844  0
C  C67  1  0.04547966  0.23320645  0.08375005  1  0  -0.171379  0  3.639554  0  0  -0.273453  0  3.887954  0  0  -0.269223  0  3.897362  0  0.254223  0  -0.136232  -0.275979  0  3.881765  0
C  C68  1  0.43650144  0.65816281  0.20706329  1  0  0.418768  0  3.817583  0  0  0.33828  0  4.11673  0  0  0.366987  0  4.115379  0  1.38154  0  0.179023  0.318869  0  4.117348  0
C  C69  1  0.56349946  0.34183521  0.79293655  1  0  0.418815  0  3.817548  0  0  0.338328  0  4.116692  0  0  0.367037  0  4.11534  0  1.381517  0  0.179039  0.318917  0  4.117312  0
C  C70  1  0.32052340  0.59715076  0.99470209  1  0  -0.168564  0  3.654795  0  0  -0.269807  0  3.902551  0  0  -0.266699  0  3.914027  0  0.298901  0  -0.128472  -0.271599  0  3.894674  0
C  C71  1  0.67947663  0.40284830  0.00529778  1  0  -0.168595  0  3.654779  0  0  -0.269856  0  3.902543  0  0  -0.266747  0  3.914018  0  0.298883  0  -0.128497  -0.271647  0  3.894664  0
C  C72  1  0.60188177  0.76594874  0.12116737  1  0  -0.176344  0  3.624438  0  0  -0.276026  0  3.865023  0  0  -0.272491  0  3.874514  0  0.212271  0  -0.134734  -0.278068  0  3.858691  0
C  C73  1  0.39811879  0.23404823  0.87883292  1  0  -0.176243  0  3.624323  0  0  -0.275973  0  3.864904  0  0  -0.272438  0  3.874396  0  0.21223  0  -0.13473  -0.278014  0  3.85857  0
S  S74  1  0.50508110  0.34049045  0.27077938  1  0  1.32054  0  5.67383  0  0  1.225861  0  6.190636  0  0  1.274212  0  6.165691  0  3.183551  0  0.513106  1.192285  0  6.207045  0
S  S75  1  0.49491860  0.65950757  0.72922095  1  0  1.320605  0  5.67395  0  0  1.225956  0  6.190719  0  0  1.274303  0  6.16578  0  3.183769  0  0.513146  1.192377  0  6.207131  0
N  N76  1  0.11059348  0.87144879  0.99694546  1  0  -0.08851  0  3.511715  0  0  0.015917  0  3.745944  0  0  -0.004298  0  3.771489  0  -1.192543  0  -0.285308  0.029268  0  3.728392  0
N  N77  1  0.88940363  0.12855237  0.00305421  1  0  -0.088395  0  3.511685  0  0  0.015976  0  3.745924  0  0  -0.004311  0  3.77155  0  -1.192571  0  -0.2853  0.029345  0  3.728348  0
N  N78  1  0.45183841  0.67374051  0.11146450  1  0  -0.098703  0  3.495432  0  0  0.005165  0  3.733338  0  0  -0.015399  0  3.758568  0  -1.197086  0  -0.283188  0.018934  0  3.715821  0
N  N79  1  0.54816163  0.32625855  0.88853615  1  0  -0.098701  0  3.495355  0  0  0.005171  0  3.733268  0  0  -0.015394  0  3.758499  0  -1.19708  0  -0.283188  0.01894  0  3.715752  0
O  O80  1  0.43917508  0.37904936  0.16729806  1  0  -0.66355  0  1.954749  0  0  -0.616967  0  2.203535  0  0  -0.639081  0  2.191809  0  -1.338772  0  -0.335488  -0.601068  0  2.21095  0
O  O81  1  0.56082515  0.62094656  0.83269959  1  0  -0.663561  0  1.954828  0  0  -0.617004  0  2.20362  0  0  -0.639118  0  2.191896  0  -1.338804  0  -0.335514  -0.601103  0  2.211032  0
O  O82  1  0.44369768  0.18911581  0.24467276  1  0  -0.705076  0  2.024887  0  0  -0.647744  0  2.27382  0  0  -0.66888  0  2.256909  0  -1.349539  0  -0.346645  -0.632575  0  2.285114  0
O  O83  1  0.55630202  0.81088220  0.75532679  1  0  -0.7051  0  2.024905  0  0  -0.647782  0  2.273853  0  0  -0.668913  0  2.256938  0  -1.349687  0  -0.346668  -0.632613  0  2.285149  0
O  O84  1  0.48475737  0.42664620  0.37533313  1  0  -0.752548  0  1.946785  0  0  -0.708496  0  2.212966  0  0  -0.728036  0  2.194992  0  -1.360646  0  -0.430909  -0.694513  0  2.225051  0
O  O85  1  0.51524593  0.57335181  0.62466804  1  0  -0.752554  0  1.946769  0  0  -0.708504  0  2.212944  0  0  -0.728045  0  2.194974  0  -1.36068  0  -0.430901  -0.694521  0  2.225029  0
O  O86  1  0.00215968  0.75806212  0.35696160  1  0  -0.639645  0  1.96973  0  0  -0.573032  0  2.208474  0  0  -0.603483  0  2.198697  0  -1.15109  0  -0.331325  -0.55054  0  2.215651  0
O  O87  1  0.99784309  0.24193799  0.64303914  1  0  -0.639574  0  1.969815  0  0  -0.572962  0  2.208552  0  0  -0.603415  0  2.198778  0  -1.151117  0  -0.331288  -0.550469  0  2.215727  0
O  O88  1  0.23995110  0.69266129  0.39373823  1  0  -0.707872  0  1.930099  0  0  -0.661207  0  2.170218  0  0  -0.68631  0  2.159085  0  -1.202826  0  -0.391669  -0.642527  0  2.176573  0
O  O89  1  0.76004995  0.30734091  0.60626337  1  0  -0.707795  0  1.930142  0  0  -0.661122  0  2.170257  0  0  -0.686228  0  2.159127  0  -1.202801  0  -0.391658  -0.642443  0  2.176611  0
O  O90  1  0.20990743  0.20376285  0.40672897  1  0  -0.676612  0  1.975759  0  0  -0.621658  0  2.220445  0  0  -0.648609  0  2.210623  0  -1.20595  0  -0.374989  -0.601961  0  2.226169  0
O  O91  1  0.79009327  0.79623831  0.59327153  1  0  -0.676602  0  1.975823  0  0  -0.621632  0  2.220489  0  0  -0.648583  0  2.210667  0  -1.206304  0  -0.375013  -0.601937  0  2.226211  0
O  O92  1  0.96083550  0.05723605  0.34794159  1  0  -0.675398  0  2.012916  0  0  -0.605404  0  2.249149  0  0  -0.634858  0  2.238627  0  -1.181384  0  -0.325286  -0.583519  0  2.257145  0
O  O93  1  0.03916641  0.94276510  0.65205842  1  0  -0.675238  0  2.012951  0  0  -0.605251  0  2.249183  0  0  -0.634705  0  2.238663  0  -1.181421  0  -0.325217  -0.583364  0  2.257175  0
O  O94  1  0.09259883  0.84838915  0.16483830  1  0  -0.554353  0  2.041372  0  0  -0.495791  0  2.292701  0  0  -0.521497  0  2.283467  0  -1.155139  0  -0.31532  -0.477891  0  2.298839  0
O  O95  1  0.90739967  0.15160887  0.83516098  1  0  -0.554378  0  2.041303  0  0  -0.495817  0  2.292624  0  0  -0.52152  0  2.283377  0  -1.155022  0  -0.31534  -0.477917  0  2.298763  0
O  O96  1  0.54578011  0.71665996  0.31011352  1  0  -0.588118  0  2.072549  0  0  -0.534258  0  2.321607  0  0  -0.557033  0  2.311893  0  -1.202276  0  -0.356345  -0.518451  0  2.328125  0
O  O97  1  0.45422026  0.28334014  0.68988667  1  0  -0.588165  0  2.072578  0  0  -0.534298  0  2.321626  0  0  -0.557075  0  2.311914  0  -1.202246  0  -0.356349  -0.518491  0  2.328146  0
O  O98  1  0.27394477  0.02412206  0.58128105  1  0  -0.8649  0  1.909477  0  0  -0.792167  0  2.105301  0  0  -0.817636  0  2.069654  0  -1.293943  0  -0.567968  -0.774237  0  2.130553  0
O  O99  1  0.72605527  0.97587700  0.41871805  1  0  -0.864907  0  1.909468  0  0  -0.792188  0  2.105312  0  0  -0.817657  0  2.069667  0  -1.29396  0  -0.56797  -0.774253  0  2.130551  0
O  O100  1  0.44426656  0.05534230  0.39373243  1  0  -0.87698  0  1.884381  0  0  -0.812862  0  2.086027  0  0  -0.836148  0  2.050594  0  -1.274733  0  -0.600751  -0.795894  0  2.110871  0
O  O101  1  0.55573347  0.94465676  0.60626744  1  0  -0.87702  0  1.884347  0  0  -0.812909  0  2.085987  0  0  -0.836194  0  2.050553  0  -1.274713  0  -0.600762  -0.79594  0  2.110833  0
