# generated using pymatgen
data_LiH6C6NO4
_symmetry_space_group_name_H-M   'P 1'
_cell_length_a   8.11125173
_cell_length_b   8.43953199
_cell_length_c   9.99019611
_cell_angle_alpha   90.00036867
_cell_angle_beta   90.00027534
_cell_angle_gamma   90.55864569
_symmetry_Int_Tables_number   1
_chemical_formula_structural   LiH6C6NO4
_chemical_formula_sum   'Li4 H24 C24 N4 O16'
_cell_volume   683.84805087
_cell_formula_units_Z   4
loop_
 _symmetry_equiv_pos_site_id
 _symmetry_equiv_pos_as_xyz
  1  'x, y, z'
loop_
 _atom_site_type_symbol
 _atom_site_label
 _atom_site_symmetry_multiplicity
 _atom_site_fract_x
 _atom_site_fract_y
 _atom_site_fract_z
 _atom_site_occupancy
 _atom_site_hle17_bader_spin_density
 _atom_site_hle17_ddec_charge
 _atom_site_hle17_ddec_spin_density
 _atom_site_hle17_ddec_sum_bond_order
 _atom_site_hle17_magmom
 _atom_site_hse06_10hf_bader_spin_density
 _atom_site_hse06_10hf_ddec_charge
 _atom_site_hse06_10hf_ddec_spin_density
 _atom_site_hse06_10hf_ddec_sum_bond_order
 _atom_site_hse06_10hf_magmom
 _atom_site_hse06_bader_spin_density
 _atom_site_hse06_ddec_charge
 _atom_site_hse06_ddec_spin_density
 _atom_site_hse06_ddec_sum_bond_order
 _atom_site_hse06_magmom
 _atom_site_pbe_bader_spin_density
 _atom_site_pbe_cm5_charge
 _atom_site_pbe_ddec_charge
 _atom_site_pbe_ddec_spin_density
 _atom_site_pbe_ddec_sum_bond_order
 _atom_site_pbe_magmom
Li  Li0  1  0.93838527  0.40955253  0.39916021  1  0  0.858423  0  0.399325  0  0  0.820465  0  0.50333  0  0  0.829976  0  0.486082  0  0  0.496415  0.81369  0  0.515588  0
Li  Li1  1  0.56161738  0.59044398  0.89916015  1  0  0.858399  0  0.399321  0  0  0.820441  0  0.503326  0  0  0.829956  0  0.486069  0  0  0.496397  0.813666  0  0.515585  0
Li  Li2  1  0.06161837  0.59044684  0.60083972  1  0  0.858422  0  0.399314  0  0  0.820472  0  0.503305  0  0  0.829982  0  0.486057  0  0  0.496419  0.813696  0  0.515563  0
Li  Li3  1  0.43838255  0.40955537  0.10083978  1  0  0.858397  0  0.399332  0  0  0.820433  0  0.50334  0  0  0.829946  0  0.486088  0  0  0.496415  0.81366  0  0.515599  0
H  H4  1  0.87693052  0.10808114  0.42498062  1  0  0.415705  0  0.892236  0  0  0.383386  0  0.959359  0  0  0.394345  0  0.943496  0  0  0.287288  0.375596  0  0.970666  0
H  H5  1  0.62306984  0.89191793  0.92497937  1  0  0.415693  0  0.892264  0  0  0.383352  0  0.959414  0  0  0.394317  0  0.943549  0  0  0.28728  0.375563  0  0.97072  0
H  H6  1  0.12307065  0.89191822  0.57502031  1  0  0.415665  0  0.892285  0  0  0.38335  0  0.959401  0  0  0.39431  0  0.943537  0  0  0.287281  0.37556  0  0.970708  0
H  H7  1  0.37692887  0.10808141  0.07502056  1  0  0.415685  0  0.892266  0  0  0.383343  0  0.959416  0  0  0.394308  0  0.943552  0  0  0.287277  0.375555  0  0.970722  0
H  H8  1  0.06763965  0.13396977  0.41521455  1  0  0.411914  0  0.895532  0  0  0.380445  0  0.960878  0  0  0.391074  0  0.945453  0  0  0.289062  0.373073  0  0.971581  0
H  H9  1  0.43236312  0.86602427  0.91521637  1  0  0.411848  0  0.895572  0  0  0.380353  0  0.960968  0  0  0.390983  0  0.945541  0  0  0.289044  0.372981  0  0.971672  0
H  H10  1  0.93236275  0.86602840  0.58478638  1  0  0.411811  0  0.895628  0  0  0.380315  0  0.961026  0  0  0.390945  0  0.9456  0  0  0.289017  0.372943  0  0.97173  0
H  H11  1  0.56763558  0.13397389  0.08478356  1  0  0.41185  0  0.895576  0  0  0.380346  0  0.960987  0  0  0.390976  0  0.94556  0  0  0.28904  0.372974  0  0.971691  0
H  H12  1  0.31825628  0.05959431  0.72540294  1  0  0.116547  0  0.93505  0  0  0.123194  0  1.000764  0  0  0.127265  0  0.996973  0  0  0.132223  0.11992  0  1.00367  0
H  H13  1  0.18174904  0.94039943  0.22540379  1  0  0.116562  0  0.935006  0  0  0.123193  0  1.00074  0  0  0.127291  0  0.996918  0  0  0.132202  0.119915  0  1.003659  0
H  H14  1  0.68174739  0.94040980  0.27459598  1  0  0.116599  0  0.935066  0  0  0.123239  0  1.000768  0  0  0.127325  0  0.996962  0  0  0.132252  0.119965  0  1.003678  0
H  H15  1  0.81824844  0.05960110  0.77459613  1  0  0.116614  0  0.934979  0  0  0.123242  0  1.000715  0  0  0.127345  0  0.996887  0  0  0.132243  0.119965  0  1.003629  0
H  H16  1  0.40213236  0.19278486  0.32997078  1  0  0.12129  0  0.960161  0  0  0.127615  0  1.025186  0  0  0.132005  0  1.020714  0  0  0.134576  0.124411  0  1.028545  0
H  H17  1  0.09786373  0.80720967  0.82997200  1  0  0.121303  0  0.960008  0  0  0.127629  0  1.025048  0  0  0.13202  0  1.020576  0  0  0.134586  0.124425  0  1.028407  0
H  H18  1  0.59787006  0.80721568  0.67002915  1  0  0.121342  0  0.960085  0  0  0.127666  0  1.025111  0  0  0.132057  0  1.020641  0  0  0.134576  0.124459  0  1.028474  0
H  H19  1  0.90213249  0.19278730  0.17002893  1  0  0.121324  0  0.960129  0  0  0.127651  0  1.025158  0  0  0.132042  0  1.020687  0  0  0.134588  0.124448  0  1.028516  0
H  H20  1  0.62797467  0.37979910  0.39613757  1  0  0.127439  0  0.985539  0  0  0.134281  0  1.047558  0  0  0.139006  0  1.044544  0  0  0.127114  0.130653  0  1.050031  0
H  H21  1  0.87202057  0.62019855  0.89614187  1  0  0.12743  0  0.985659  0  0  0.134275  0  1.047661  0  0  0.138989  0  1.044658  0  0  0.127112  0.130648  0  1.050134  0
H  H22  1  0.37202652  0.62020263  0.60385936  1  0  0.127395  0  0.98555  0  0  0.134263  0  1.047558  0  0  0.138968  0  1.044564  0  0  0.127115  0.130635  0  1.050029  0
H  H23  1  0.12797689  0.37979843  0.10386207  1  0  0.127425  0  0.985653  0  0  0.134278  0  1.047666  0  0  0.138997  0  1.044661  0  0  0.127109  0.130651  0  1.050139  0
H  H24  1  0.53732764  0.24785567  0.80834217  1  0  0.120285  0  0.938792  0  0  0.127327  0  1.001068  0  0  0.131695  0  0.99821  0  0  0.127739  0.124262  0  1.003129  0
H  H25  1  0.96267693  0.75214131  0.30834412  1  0  0.120303  0  0.938776  0  0  0.127346  0  1.001053  0  0  0.131716  0  0.998191  0  0  0.12773  0.12428  0  1.003114  0
H  H26  1  0.46267357  0.75214961  0.19165575  1  0  0.120304  0  0.938708  0  0  0.127343  0  1.001007  0  0  0.131714  0  0.998142  0  0  0.127722  0.124278  0  1.00307  0
H  H27  1  0.03732302  0.24785923  0.69165681  1  0  0.120282  0  0.938763  0  0  0.127327  0  1.001046  0  0  0.131698  0  0.998186  0  0  0.127731  0.12426  0  1.003107  0
C  C28  1  0.39072520  0.13467319  0.65875594  1  0  -0.000785  0  3.587598  0  0  -0.043192  0  3.856405  0  0  -0.037326  0  3.868771  0  0  0.041456  -0.045659  0  3.846372  0
C  C29  1  0.10927851  0.86532475  0.15876012  1  0  -0.000666  0  3.587293  0  0  -0.043091  0  3.856145  0  0  -0.037247  0  3.868502  0  0  0.041494  -0.045559  0  3.846117  0
C  C30  1  0.60927723  0.86532973  0.34124199  1  0  -0.000894  0  3.587566  0  0  -0.043304  0  3.856414  0  0  -0.037452  0  3.868775  0  0  0.041368  -0.045771  0  3.846384  0
C  C31  1  0.89071774  0.13467578  0.84123981  1  0  -0.000797  0  3.587355  0  0  -0.043233  0  3.856232  0  0  -0.037395  0  3.868586  0  0  0.041373  -0.0457  0  3.8462  0
C  C32  1  0.60171179  0.33009457  0.60900108  1  0  -0.033626  0  3.71327  0  0  -0.021878  0  3.954877  0  0  -0.023025  0  3.973238  0  0  0.007376  -0.020128  0  3.941628  0
C  C33  1  0.89828789  0.66990436  0.10900735  1  0  -0.033581  0  3.713176  0  0  -0.021807  0  3.954767  0  0  -0.022957  0  3.973127  0  0  0.0074  -0.020056  0  3.941521  0
C  C34  1  0.39829185  0.66990598  0.39099685  1  0  -0.033566  0  3.713438  0  0  -0.021802  0  3.955036  0  0  -0.02295  0  3.973395  0  0  0.007428  -0.020052  0  3.941788  0
C  C35  1  0.10171204  0.33009380  0.89099458  1  0  -0.03351  0  3.713174  0  0  -0.021731  0  3.954767  0  0  -0.022879  0  3.973128  0  0  0.007443  -0.01998  0  3.941517  0
C  C36  1  0.43764132  0.21083297  0.43402991  1  0  0.013482  0  3.580281  0  0  -0.028399  0  3.843945  0  0  -0.022282  0  3.855487  0  0  0.046922  -0.033531  0  3.837268  0
C  C37  1  0.06235664  0.78916358  0.93403390  1  0  0.013502  0  3.580126  0  0  -0.028397  0  3.843809  0  0  -0.022282  0  3.85535  0  0  0.046935  -0.033525  0  3.837126  0
C  C38  1  0.56235986  0.78916876  0.56596902  1  0  0.013416  0  3.580169  0  0  -0.028455  0  3.843825  0  0  -0.022341  0  3.855363  0  0  0.046891  -0.033584  0  3.837147  0
C  C39  1  0.93763958  0.21083221  0.06596803  1  0  0.013449  0  3.58027  0  0  -0.028436  0  3.84397  0  0  -0.02232  0  3.855511  0  0  0.046901  -0.033566  0  3.837293  0
C  C40  1  0.56300692  0.31219293  0.47342104  1  0  -0.0956  0  3.712902  0  0  -0.115533  0  3.962843  0  0  -0.11891  0  3.980329  0  0  -0.061165  -0.115061  0  3.952139  0
C  C41  1  0.93699001  0.68780296  0.97342093  1  0  -0.095662  0  3.712871  0  0  -0.115574  0  3.962763  0  0  -0.11894  0  3.980253  0  0  -0.06116  -0.115102  0  3.95206  0
C  C42  1  0.43699551  0.68780998  0.52657689  1  0  -0.095568  0  3.713001  0  0  -0.115542  0  3.962938  0  0  -0.1189  0  3.980435  0  0  -0.061173  -0.115068  0  3.952226  0
C  C43  1  0.06300868  0.31219402  0.02658300  1  0  -0.095627  0  3.712834  0  0  -0.115605  0  3.96282  0  0  -0.118978  0  3.980306  0  0  -0.061156  -0.115136  0  3.952125  0
C  C44  1  0.73039180  0.44888077  0.65338815  1  0  0.698936  0  3.922416  0  0  0.652397  0  4.220595  0  0  0.684073  0  4.211918  0  0  0.231951  0.630958  0  4.225416  0
C  C45  1  0.76960196  0.55111494  0.15337929  1  0  0.698937  0  3.922189  0  0  0.652326  0  4.220497  0  0  0.684005  0  4.211823  0  0  0.231973  0.630888  0  4.225323  0
C  C46  1  0.26960940  0.55112333  0.34660977  1  0  0.698769  0  3.922652  0  0  0.652225  0  4.220833  0  0  0.683902  0  4.212161  0  0  0.23191  0.630787  0  4.225655  0
C  C47  1  0.23039795  0.44888085  0.84662164  1  0  0.698829  0  3.922435  0  0  0.65229  0  4.220628  0  0  0.683968  0  4.211952  0  0  0.231878  0.630852  0  4.225449  0
C  C48  1  0.51318573  0.23813696  0.70145431  1  0  -0.087481  0  3.726257  0  0  -0.111451  0  3.986383  0  0  -0.114147  0  4.003167  0  0  -0.060811  -0.108853  0  3.974104  0
C  C49  1  0.98681082  0.76186388  0.20145439  1  0  -0.08755  0  3.726309  0  0  -0.111512  0  3.986433  0  0  -0.114208  0  4.003223  0  0  -0.060826  -0.108918  0  3.974162  0
C  C50  1  0.48681546  0.76186595  0.29854462  1  0  -0.087474  0  3.726183  0  0  -0.111456  0  3.986311  0  0  -0.114151  0  4.003099  0  0  -0.060795  -0.108859  0  3.974037  0
C  C51  1  0.01318665  0.23813546  0.79854653  1  0  -0.087483  0  3.726269  0  0  -0.111449  0  3.986407  0  0  -0.114146  0  4.003201  0  0  -0.060781  -0.108852  0  3.974131  0
N  N52  1  0.35179615  0.12457479  0.52608977  1  0  0.274767  0  3.719391  0  0  0.325055  0  3.983152  0  0  0.324948  0  4.00611  0  0  -0.109296  0.324465  0  3.966986  0
N  N53  1  0.14820427  0.87541853  0.02608915  1  0  0.274727  0  3.719201  0  0  0.325025  0  3.982976  0  0  0.324913  0  4.005942  0  0  -0.109303  0.324436  0  3.966811  0
N  N54  1  0.64820627  0.87542694  0.47390915  1  0  0.274731  0  3.719128  0  0  0.325021  0  3.982874  0  0  0.324913  0  4.005834  0  0  -0.109277  0.324431  0  3.966707  0
N  N55  1  0.85179320  0.12457963  0.97391178  1  0  0.274709  0  3.719297  0  0  0.32502  0  3.983054  0  0  0.32491  0  4.00602  0  0  -0.10923  0.324431  0  3.966889  0
O  O56  1  0.85064461  0.47686583  0.57427089  1  0  -0.778626  0  1.966977  0  0  -0.735436  0  2.213245  0  0  -0.755492  0  2.198491  0  0  -0.433198  -0.721234  0  2.222519  0
O  O57  1  0.64936956  0.52311866  0.07427343  1  0  -0.77852  0  1.967388  0  0  -0.735327  0  2.213737  0  0  -0.755379  0  2.198979  0  0  -0.433127  -0.72113  0  2.223019  0
O  O58  1  0.14935536  0.52313826  0.42572804  1  0  -0.778582  0  1.967032  0  0  -0.735405  0  2.213329  0  0  -0.755461  0  2.198574  0  0  -0.433199  -0.721201  0  2.222602  0
O  O59  1  0.35063035  0.47687714  0.92572850  1  0  -0.778488  0  1.967491  0  0  -0.735311  0  2.213786  0  0  -0.755364  0  2.199027  0  0  -0.433139  -0.721115  0  2.223066  0
O  O60  1  0.96144705  0.18153233  0.38694168  1  0  -0.899801  0  1.779556  0  0  -0.853145  0  1.946573  0  0  -0.870794  0  1.91401  0  0  -0.655065  -0.84014  0  1.969094  0
O  O61  1  0.53855799  0.81846408  0.88694373  1  0  -0.899713  0  1.779534  0  0  -0.853021  0  1.946593  0  0  -0.870686  0  1.914016  0  0  -0.655037  -0.840012  0  1.969113  0
O  O62  1  0.03855535  0.81846584  0.61305725  1  0  -0.899657  0  1.779625  0  0  -0.852986  0  1.946646  0  0  -0.870639  0  1.914082  0  0  -0.65502  -0.839981  0  1.969164  0
O  O63  1  0.46144194  0.18153527  0.11305520  1  0  -0.89969  0  1.779519  0  0  -0.852989  0  1.946583  0  0  -0.870653  0  1.914003  0  0  -0.655034  -0.839981  0  1.969101  0
O  O64  1  0.70950132  0.51379596  0.76578247  1  0  -0.696311  0  1.964071  0  0  -0.652626  0  2.201445  0  0  -0.674702  0  2.191156  0  0  -0.375468  -0.637055  0  2.208288  0
O  O65  1  0.79049930  0.48620186  0.26579838  1  0  -0.696419  0  1.963487  0  0  -0.652688  0  2.200852  0  0  -0.674785  0  2.1906  0  0  -0.375579  -0.637104  0  2.207679  0
O  O66  1  0.29049864  0.48620577  0.23421645  1  0  -0.696207  0  1.964165  0  0  -0.652512  0  2.201528  0  0  -0.674589  0  2.191243  0  0  -0.375438  -0.636939  0  2.208367  0
O  O67  1  0.20950062  0.51379513  0.73420155  1  0  -0.696411  0  1.963519  0  0  -0.6527  0  2.200845  0  0  -0.674792  0  2.190592  0  0  -0.375521  -0.637116  0  2.20767  0
O  O68  1  0.23112079  0.03051178  0.48414217  1  0  -0.566556  0  1.799747  0  0  -0.51251  0  2.010542  0  0  -0.537713  0  2.011391  0  0  -0.227105  -0.495377  0  2.010403  0
O  O69  1  0.26888116  0.96948163  0.98414290  1  0  -0.56661  0  1.799667  0  0  -0.51253  0  2.010472  0  0  -0.537719  0  2.011307  0  0  -0.227147  -0.4954  0  2.01034  0
O  O70  1  0.76888163  0.96948995  0.51585776  1  0  -0.566494  0  1.799658  0  0  -0.512425  0  2.010458  0  0  -0.53762  0  2.011292  0  0  -0.227059  -0.495295  0  2.010324  0
O  O71  1  0.73111753  0.03051535  0.01585603  1  0  -0.566556  0  1.799722  0  0  -0.512469  0  2.010515  0  0  -0.537662  0  2.011354  0  0  -0.227147  -0.495338  0  2.010376  0
