# generated using pymatgen
data_AgH20C18(NO)5
_symmetry_space_group_name_H-M   'P 1'
_cell_length_a   5.19078481
_cell_length_b   12.32859732
_cell_length_c   14.65855979
_cell_angle_alpha   90.00116679
_cell_angle_beta   90.00014117
_cell_angle_gamma   90.00088883
_symmetry_Int_Tables_number   1
_chemical_formula_structural   AgH20C18(NO)5
_chemical_formula_sum   'Ag2 H40 C36 N10 O10'
_cell_volume   938.07593648
_cell_formula_units_Z   2
loop_
 _symmetry_equiv_pos_site_id
 _symmetry_equiv_pos_as_xyz
  1  'x, y, z'
loop_
 _atom_site_type_symbol
 _atom_site_label
 _atom_site_symmetry_multiplicity
 _atom_site_fract_x
 _atom_site_fract_y
 _atom_site_fract_z
 _atom_site_occupancy
 _atom_site_pbe_bader_spin_density
 _atom_site_pbe_cm5_charge
 _atom_site_pbe_ddec_charge
 _atom_site_pbe_ddec_spin_density
 _atom_site_pbe_ddec_sum_bond_order
 _atom_site_pbe_magmom
Ag  Ag0  1  0.99998543  0.00001301  0.51950783  1  0  0.439768  0.355219  0  1.83763  0
Ag  Ag1  1  0.49998679  0.49999470  0.48049165  1  0  0.439763  0.355178  0  1.837754  0
H  H2  1  0.70568250  0.49441390  0.06646739  1  0  0.113358  0.067012  0  0.995691  0
H  H3  1  0.29431523  0.50557596  0.06646594  1  0  0.113347  0.066947  0  0.995815  0
H  H4  1  0.79432627  0.99442163  0.93353368  1  0  0.113334  0.066967  0  0.995796  0
H  H5  1  0.20569279  0.00557963  0.93352773  1  0  0.11337  0.06699  0  0.995809  0
H  H6  1  0.10603163  0.37897985  0.16931663  1  0  0.312329  0.286013  0  0.975979  0
H  H7  1  0.89397066  0.62101820  0.16931426  1  0  0.312341  0.286029  0  0.976046  0
H  H8  1  0.39397018  0.87898008  0.83068612  1  0  0.312365  0.286041  0  0.976018  0
H  H9  1  0.60604625  0.12101705  0.83068386  1  0  0.312406  0.286102  0  0.97594  0
H  H10  1  0.92168361  0.40376073  0.82863777  1  0  0.086652  0.080522  0  1.013605  0
H  H11  1  0.07831547  0.59623148  0.82863631  1  0  0.086658  0.080559  0  1.01359  0
H  H12  1  0.57832199  0.90377193  0.17136175  1  0  0.086639  0.080545  0  1.01363  0
H  H13  1  0.42166297  0.09623590  0.17136573  1  0  0.086639  0.080523  0  1.013587  0
H  H14  1  0.70529805  0.49325341  0.88380143  1  0  0.08418  0.074463  0  1.00772  0
H  H15  1  0.29468600  0.50673853  0.88380409  1  0  0.084216  0.074472  0  1.00779  0
H  H16  1  0.79468757  0.99327286  0.11619757  1  0  0.08418  0.074413  0  1.007783  0
H  H17  1  0.20529510  0.00673606  0.11619506  1  0  0.084194  0.074495  0  1.00774  0
H  H18  1  0.09545343  0.34113051  0.97625028  1  0  0.091451  0.091851  0  0.991943  0
H  H19  1  0.90454280  0.65886368  0.97625198  1  0  0.091505  0.091929  0  0.99206  0
H  H20  1  0.40456054  0.84113143  0.02374841  1  0  0.091459  0.09188  0  0.991989  0
H  H21  1  0.59543883  0.15887037  0.02375634  1  0  0.091434  0.091851  0  0.99202  0
H  H22  1  0.75695815  0.32595264  0.97683782  1  0  0.092163  0.093074  0  1.001537  0
H  H23  1  0.24304002  0.67404157  0.97684192  1  0  0.092169  0.093095  0  1.001523  0
H  H24  1  0.74305244  0.82596460  0.02316243  1  0  0.092199  0.093123  0  1.001545  0
H  H25  1  0.25694115  0.17403881  0.02316144  1  0  0.09217  0.093083  0  1.001541  0
H  H26  1  0.58844593  0.19589062  0.47685914  1  0  0.111017  0.084546  0  1.019781  0
H  H27  1  0.41153148  0.80412465  0.47685742  1  0  0.111003  0.084395  0  1.019893  0
H  H28  1  0.91156204  0.69587699  0.52314367  1  0  0.110988  0.084391  0  1.019867  0
H  H29  1  0.08845230  0.30411589  0.52314270  1  0  0.111045  0.084529  0  1.019859  0
H  H30  1  0.46310822  0.31918731  0.34723690  1  0  0.106823  0.117558  0  1.043178  0
H  H31  1  0.53687217  0.68081832  0.34723660  1  0  0.106836  0.117595  0  1.043152  0
H  H32  1  0.03689150  0.81918075  0.65276961  1  0  0.106832  0.117594  0  1.043181  0
H  H33  1  0.96311408  0.18081610  0.65276459  1  0  0.10683  0.117557  0  1.043141  0
H  H34  1  0.23341825  0.08727195  0.33867395  1  0  0.113029  0.082652  0  0.996142  0
H  H35  1  0.76657171  0.91273427  0.33866484  1  0  0.113025  0.082762  0  0.996122  0
H  H36  1  0.26656566  0.58727124  0.66132861  1  0  0.112999  0.082648  0  0.996122  0
H  H37  1  0.73344769  0.41272420  0.66132324  1  0  0.113004  0.082609  0  0.996181  0
H  H38  1  0.14281897  0.20838599  0.20601798  1  0  0.109799  0.112069  0  1.048222  0
H  H39  1  0.85718742  0.79162430  0.20600825  1  0  0.109852  0.112163  0  1.048087  0
H  H40  1  0.35717880  0.70838751  0.79398323  1  0  0.109839  0.112164  0  1.048218  0
H  H41  1  0.64283353  0.29161683  0.79398186  1  0  0.109809  0.112051  0  1.048178  0
C  C42  1  0.72234055  0.34229835  0.18582981  1  0  0.243795  0.483402  0  4.128133  0
C  C43  1  0.27765800  0.65770010  0.18582616  1  0  0.24362  0.483128  0  4.127912  0
C  C44  1  0.77765520  0.84229982  0.81417686  1  0  0.243744  0.483325  0  4.128054  0
C  C45  1  0.22234763  0.15769691  0.81417078  1  0  0.24378  0.483529  0  4.12786  0
C  C46  1  0.89656624  0.45555444  0.06220138  1  0  0.017338  0.107778  0  3.821889  0
C  C47  1  0.10343339  0.54443856  0.06220110  1  0  0.017239  0.107701  0  3.822239  0
C  C48  1  0.60344117  0.95556178  0.93780107  1  0  0.017316  0.107696  0  3.822051  0
C  C49  1  0.39656636  0.04444282  0.93779801  1  0  0.017272  0.107756  0  3.822107  0
C  C50  1  0.79263148  0.27250168  0.26597628  1  0  0.009144  0.031477  0  3.946212  0
C  C51  1  0.20736377  0.72751088  0.26597170  1  0  0.009144  0.03136  0  3.946286  0
C  C52  1  0.70737725  0.77249666  0.73402920  1  0  0.009102  0.031295  0  3.946152  0
C  C53  1  0.29264623  0.22749974  0.73402302  1  0  0.009103  0.0312  0  3.946318  0
C  C54  1  0.89760937  0.45560508  0.88900498  1  0  -0.16838  -0.140609  0  3.955786  0
C  C55  1  0.10238242  0.54438617  0.88900606  1  0  -0.168435  -0.1407  0  3.955908  0
C  C56  1  0.60238842  0.95561741  0.11099338  1  0  -0.168395  -0.140581  0  3.955894  0
C  C57  1  0.39760192  0.04438814  0.11099236  1  0  -0.168349  -0.140667  0  3.955808  0
C  C58  1  0.91246748  0.38647180  0.97525708  1  0  -0.163773  -0.199843  0  3.916659  0
C  C59  1  0.08751527  0.61352237  0.97526069  1  0  -0.16381  -0.199962  0  3.916912  0
C  C60  1  0.58753752  0.88647786  0.02474352  1  0  -0.163809  -0.199938  0  3.916786  0
C  C61  1  0.41246186  0.11352639  0.02474164  1  0  -0.16377  -0.199846  0  3.916754  0
C  C62  1  0.70504667  0.20083892  0.41519834  1  0  0.039783  0.085448  0  3.948738  0
C  C63  1  0.29493803  0.79916917  0.41519369  1  0  0.039756  0.085608  0  3.948627  0
C  C64  1  0.79495376  0.70083168  0.58480660  1  0  0.039735  0.085588  0  3.948547  0
C  C65  1  0.20504943  0.29916352  0.58480565  1  0  0.039679  0.085315  0  3.948698  0
C  C66  1  0.63494646  0.26857220  0.34328186  1  0  -0.080325  -0.151974  0  3.948906  0
C  C67  1  0.36504546  0.73144063  0.34328226  1  0  -0.080204  -0.151842  0  3.948792  0
C  C68  1  0.86506405  0.76856231  0.65671946  1  0  -0.080147  -0.151837  0  3.948902  0
C  C69  1  0.13494734  0.23143301  0.65672002  1  0  -0.08024  -0.151766  0  3.948898  0
C  C70  1  0.06504387  0.14023036  0.33833050  1  0  0.038549  0.081893  0  3.980712  0
C  C71  1  0.93493839  0.85977911  0.33832541  1  0  0.038486  0.081769  0  3.980871  0
C  C72  1  0.43494575  0.64022594  0.66167160  1  0  0.038584  0.081953  0  3.980708  0
C  C73  1  0.56507724  0.35976788  0.66166654  1  0  0.038621  0.08201  0  3.980491  0
C  C74  1  0.01236681  0.20691974  0.26412116  1  0  -0.083125  -0.160845  0  3.9564  0
C  C75  1  0.98764191  0.79309034  0.26411226  1  0  -0.083049  -0.160741  0  3.956536  0
C  C76  1  0.48763284  0.70691344  0.73588412  1  0  -0.083115  -0.16082  0  3.956419  0
C  C77  1  0.51238872  0.29307894  0.73587651  1  0  -0.083104  -0.160694  0  3.956368  0
N  N78  1  0.49999793  0.99999244  0.61907091  1  0  0.082055  0.681852  0  4.425133  0
N  N79  1  0.99999177  0.50000251  0.38092957  1  0  0.082036  0.681694  0  4.424975  0
N  N80  1  0.92439543  0.38824049  0.14314533  1  0  -0.411694  -0.380953  0  3.545979  0
N  N81  1  0.07561246  0.61175286  0.14314345  1  0  -0.411633  -0.380809  0  3.546036  0
N  N82  1  0.57561926  0.88824404  0.85685802  1  0  -0.411673  -0.380784  0  3.546096  0
N  N83  1  0.42440698  0.11175778  0.85685817  1  0  -0.411788  -0.381128  0  3.546185  0
N  N84  1  0.91606759  0.13709677  0.41330957  1  0  -0.335121  -0.227194  0  3.544165  0
N  N85  1  0.08389976  0.86291290  0.41330719  1  0  -0.335159  -0.227339  0  3.544043  0
N  N86  1  0.58391135  0.63708893  0.58668883  1  0  -0.335154  -0.227314  0  3.543876  0
N  N87  1  0.41609571  0.36290550  0.58668778  1  0  -0.335121  -0.227201  0  3.543803  0
O  O88  1  0.70811900  0.01781625  0.66137035  1  0  -0.18035  -0.403151  0  2.033144  0
O  O89  1  0.29190977  0.98215323  0.66138451  1  0  -0.180401  -0.40316  0  2.033043  0
O  O90  1  0.79189431  0.51782650  0.33861715  1  0  -0.180377  -0.403078  0  2.032784  0
O  O91  1  0.20810721  0.48218216  0.33862614  1  0  -0.180362  -0.403142  0  2.033174  0
O  O92  1  0.49348891  0.35190176  0.16072296  1  0  -0.302179  -0.503758  0  2.135567  0
O  O93  1  0.50652680  0.64809365  0.16072003  1  0  -0.302155  -0.503698  0  2.135436  0
O  O94  1  0.00652929  0.85190846  0.83929025  1  0  -0.302223  -0.503818  0  2.135186  0
O  O95  1  0.99349876  0.14808726  0.83927447  1  0  -0.302159  -0.503746  0  2.135526  0
O  O96  1  0.49996667  0.00000820  0.53160565  1  0  -0.210662  -0.459798  0  2.10138  0
O  O97  1  0.99997666  0.49999789  0.46839382  1  0  -0.210655  -0.459701  0  2.1014  0
