# generated using pymatgen
data_DyH6(C2N3)3
_symmetry_space_group_name_H-M   'P 1'
_cell_length_a   9.30954004
_cell_length_b   9.30953769
_cell_length_c   12.62104195
_cell_angle_alpha   91.69690489
_cell_angle_beta   91.69705228
_cell_angle_gamma   119.26540124
_symmetry_Int_Tables_number   1
_chemical_formula_structural   DyH6(C2N3)3
_chemical_formula_sum   'Dy4 H24 C24 N36'
_cell_volume   952.58383229
_cell_formula_units_Z   4
loop_
 _symmetry_equiv_pos_site_id
 _symmetry_equiv_pos_as_xyz
  1  'x, y, z'
loop_
 _atom_site_type_symbol
 _atom_site_label
 _atom_site_symmetry_multiplicity
 _atom_site_fract_x
 _atom_site_fract_y
 _atom_site_fract_z
 _atom_site_occupancy
 _atom_site_hle17_bader_spin_density
 _atom_site_hle17_ddec_charge
 _atom_site_hle17_ddec_spin_density
 _atom_site_hle17_ddec_sum_bond_order
 _atom_site_hle17_magmom
 _atom_site_hse06_10hf_bader_spin_density
 _atom_site_hse06_10hf_ddec_charge
 _atom_site_hse06_10hf_ddec_spin_density
 _atom_site_hse06_10hf_ddec_sum_bond_order
 _atom_site_hse06_10hf_magmom
 _atom_site_hse06_bader_spin_density
 _atom_site_hse06_ddec_charge
 _atom_site_hse06_ddec_spin_density
 _atom_site_hse06_ddec_sum_bond_order
 _atom_site_hse06_magmom
 _atom_site_pbe_bader_spin_density
 _atom_site_pbe_cm5_charge
 _atom_site_pbe_ddec_charge
 _atom_site_pbe_ddec_spin_density
 _atom_site_pbe_ddec_sum_bond_order
 _atom_site_pbe_magmom
Dy  Dy0  1  0.52050583  0.25777011  0.42804585  1  0  1.83381  0  2.145694  0  0  1.585215  0  2.720244  0  0  1.658372  0  2.646722  0  0  1.786831  1.531671  0  2.773103  0
Dy  Dy1  1  0.74223004  0.47949456  0.07195405  1  0  1.83386  0  2.145625  0  0  1.585283  0  2.720164  0  0  1.658437  0  2.646637  0  0  1.786848  1.531743  0  2.77303  0
Dy  Dy2  1  0.47949388  0.74222903  0.57195399  1  0  1.833803  0  2.145697  0  0  1.585206  0  2.720256  0  0  1.658363  0  2.646738  0  0  1.786834  1.531668  0  2.773129  0
Dy  Dy3  1  0.25777027  0.52050581  0.92804582  1  0  1.833805  0  2.14568  0  0  1.585241  0  2.720182  0  0  1.658369  0  2.646697  0  0  1.786827  1.531683  0  2.773065  0
H  H4  1  0.22352254  0.29312367  0.23454620  1  0  0.106372  0  0.959483  0  0  0.115179  0  1.021819  0  0  0.117157  0  1.02186  0  0  0.122339  0.113785  0  1.021816  0
H  H5  1  0.70687649  0.77647710  0.26545495  1  0  0.106396  0  0.959428  0  0  0.115177  0  1.021795  0  0  0.117156  0  1.021835  0  0  0.122338  0.113783  0  1.021791  0
H  H6  1  0.77647442  0.70687424  0.76545593  1  0  0.106392  0  0.959427  0  0  0.115177  0  1.021788  0  0  0.117157  0  1.021829  0  0  0.122338  0.113782  0  1.021784  0
H  H7  1  0.29312334  0.22352450  0.73454494  1  0  0.106425  0  0.959432  0  0  0.115207  0  1.02179  0  0  0.117186  0  1.021831  0  0  0.122354  0.113818  0  1.021783  0
H  H8  1  0.13261572  0.53513541  0.27126690  1  0  0.111889  0  0.952258  0  0  0.120571  0  1.011586  0  0  0.122907  0  1.011063  0  0  0.123002  0.119307  0  1.01137  0
H  H9  1  0.46486486  0.86738440  0.22873395  1  0  0.111906  0  0.952235  0  0  0.120574  0  1.011579  0  0  0.12291  0  1.011056  0  0  0.123005  0.11931  0  1.011361  0
H  H10  1  0.86738231  0.46486250  0.72873446  1  0  0.11193  0  0.952203  0  0  0.120577  0  1.011571  0  0  0.122913  0  1.011049  0  0  0.123011  0.119308  0  1.011355  0
H  H11  1  0.53513605  0.13261720  0.77126517  1  0  0.111925  0  0.9522  0  0  0.12059  0  1.011549  0  0  0.122928  0  1.011024  0  0  0.123017  0.119324  0  1.011333  0
H  H12  1  0.90103188  0.25385088  0.33691460  1  0  0.10127  0  0.970613  0  0  0.106785  0  1.039314  0  0  0.109191  0  1.038492  0  0  0.120858  0.10497  0  1.040351  0
H  H13  1  0.74614677  0.09896701  0.16308478  1  0  0.101305  0  0.970577  0  0  0.106822  0  1.03927  0  0  0.109227  0  1.038455  0  0  0.120876  0.105011  0  1.0403  0
H  H14  1  0.09896877  0.74614580  0.66308678  1  0  0.101333  0  0.970621  0  0  0.106885  0  1.039257  0  0  0.109301  0  1.038407  0  0  0.120918  0.105071  0  1.040294  0
H  H15  1  0.25385138  0.90103336  0.83691267  1  0  0.101356  0  0.970575  0  0  0.106868  0  1.039258  0  0  0.10927  0  1.038447  0  0  0.120911  0.105057  0  1.040289  0
H  H16  1  0.97110740  0.00803916  0.40025251  1  0  0.103248  0  0.961055  0  0  0.111298  0  1.02517  0  0  0.113763  0  1.024303  0  0  0.119674  0.10961  0  1.025854  0
H  H17  1  0.99196109  0.02889306  0.09974805  1  0  0.103306  0  0.960996  0  0  0.111343  0  1.025124  0  0  0.113807  0  1.024257  0  0  0.119691  0.109656  0  1.025811  0
H  H18  1  0.02889567  0.99196245  0.59975061  1  0  0.103222  0  0.960989  0  0  0.111283  0  1.025097  0  0  0.113747  0  1.02423  0  0  0.119644  0.109591  0  1.025788  0
H  H19  1  0.00803814  0.97110731  0.90025100  1  0  0.103291  0  0.960962  0  0  0.11131  0  1.025116  0  0  0.113775  0  1.024251  0  0  0.119673  0.109622  0  1.025798  0
H  H20  1  0.15824847  0.88936867  0.16039812  1  0  0.111639  0  0.964045  0  0  0.118667  0  1.028587  0  0  0.121487  0  1.027049  0  0  0.123375  0.116561  0  1.030012  0
H  H21  1  0.11063056  0.84175175  0.33960081  1  0  0.111644  0  0.964038  0  0  0.11867  0  1.028586  0  0  0.12149  0  1.027048  0  0  0.123366  0.116563  0  1.030004  0
H  H22  1  0.84174969  0.11063170  0.83960092  1  0  0.111665  0  0.964015  0  0  0.118654  0  1.028592  0  0  0.121473  0  1.027059  0  0  0.123385  0.116549  0  1.030013  0
H  H23  1  0.88936867  0.15824862  0.66039825  1  0  0.111643  0  0.96403  0  0  0.118661  0  1.028583  0  0  0.121481  0  1.027046  0  0  0.123376  0.116551  0  1.030007  0
H  H24  1  0.36030950  0.08170396  0.00408607  1  0  0.101769  0  0.981506  0  0  0.110199  0  1.045165  0  0  0.112109  0  1.045255  0  0  0.121462  0.108425  0  1.045918  0
H  H25  1  0.91829378  0.63969076  0.49591458  1  0  0.101747  0  0.981511  0  0  0.110185  0  1.04517  0  0  0.112093  0  1.045262  0  0  0.121449  0.108414  0  1.045919  0
H  H26  1  0.63969021  0.91829518  0.99591376  1  0  0.101761  0  0.981532  0  0  0.11019  0  1.04519  0  0  0.112099  0  1.045281  0  0  0.121459  0.108419  0  1.045936  0
H  H27  1  0.08170498  0.36031085  0.50408529  1  0  0.10176  0  0.981471  0  0  0.110189  0  1.045138  0  0  0.112098  0  1.045228  0  0  0.121458  0.108412  0  1.045894  0
C  C28  1  0.26451569  0.38977625  0.29661457  1  0  0.02374  0  3.672437  0  0  -0.011708  0  3.939867  0  0  -0.008592  0  3.956608  0  0  0.020416  -0.013594  0  3.928605  0
C  C29  1  0.61022387  0.73548460  0.20338496  1  0  0.023781  0  3.672391  0  0  -0.011638  0  3.939807  0  0  -0.008522  0  3.956546  0  0  0.020434  -0.013529  0  3.928548  0
C  C30  1  0.73548233  0.61022166  0.70338441  1  0  0.023705  0  3.672503  0  0  -0.011726  0  3.939938  0  0  -0.008612  0  3.956679  0  0  0.02041  -0.013617  0  3.928676  0
C  C31  1  0.38977704  0.26451701  0.79661495  1  0  0.023678  0  3.672515  0  0  -0.011748  0  3.939941  0  0  -0.008633  0  3.956679  0  0  0.020407  -0.013649  0  3.928684  0
C  C32  1  0.21899897  0.50995167  0.31511455  1  0  0.013124  0  3.694736  0  0  -0.015367  0  3.96319  0  0  -0.013907  0  3.978858  0  0  0.01374  -0.016321  0  3.95202  0
C  C33  1  0.49004883  0.78100027  0.18488559  1  0  0.013126  0  3.694738  0  0  -0.015355  0  3.96319  0  0  -0.013893  0  3.978852  0  0  0.013764  -0.01632  0  3.952031  0
C  C34  1  0.78099859  0.49004747  0.68488524  1  0  0.013131  0  3.69478  0  0  -0.015331  0  3.963222  0  0  -0.013877  0  3.978905  0  0  0.01375  -0.01628  0  3.95204  0
C  C35  1  0.50995041  0.21900010  0.81511426  1  0  0.013144  0  3.694701  0  0  -0.015336  0  3.963158  0  0  -0.013875  0  3.978821  0  0  0.013765  -0.016284  0  3.95199  0
C  C36  1  0.83064686  0.14641205  0.38229305  1  0  0.00524  0  3.722285  0  0  -0.025931  0  3.987174  0  0  -0.022993  0  4.003707  0  0  0.017822  -0.028131  0  3.976751  0
C  C37  1  0.85358841  0.16935418  0.11770648  1  0  0.005177  0  3.722344  0  0  -0.026004  0  3.987248  0  0  -0.023067  0  4.003778  0  0  0.017821  -0.028196  0  3.976816  0
C  C38  1  0.16935560  0.85358833  0.61770766  1  0  0.005092  0  3.722459  0  0  -0.026108  0  3.987353  0  0  -0.023168  0  4.003894  0  0  0.017784  -0.028304  0  3.976929  0
C  C39  1  0.14640974  0.83064619  0.88229176  1  0  0.005042  0  3.722512  0  0  -0.026124  0  3.987414  0  0  -0.023189  0  4.003949  0  0  0.017758  -0.028323  0  3.976988  0
C  C40  1  0.86532614  0.02407222  0.41385188  1  0  -0.000706  0  3.718495  0  0  -0.027868  0  3.981709  0  0  -0.027047  0  3.99794  0  0  0.010949  -0.028465  0  3.97067  0
C  C41  1  0.97592751  0.13467302  0.08614853  1  0  -0.000762  0  3.718403  0  0  -0.027911  0  3.981618  0  0  -0.027089  0  3.997848  0  0  0.010917  -0.028516  0  3.970584  0
C  C42  1  0.13467572  0.97592693  0.58615037  1  0  -0.000666  0  3.718354  0  0  -0.027835  0  3.981556  0  0  -0.027014  0  3.997789  0  0  0.010951  -0.028438  0  3.970521  0
C  C43  1  0.02407159  0.86532488  0.91385047  1  0  -0.000701  0  3.718439  0  0  -0.02784  0  3.981651  0  0  -0.027019  0  3.997884  0  0  0.010947  -0.028439  0  3.97061  0
C  C44  1  0.27582239  0.00242761  0.16766642  1  0  0.001118  0  3.698439  0  0  -0.026621  0  3.964388  0  0  -0.025729  0  3.980124  0  0  0.012081  -0.027234  0  3.954041  0
C  C45  1  0.99757075  0.72417781  0.33233344  1  0  0.001126  0  3.698404  0  0  -0.026619  0  3.964353  0  0  -0.025729  0  3.980091  0  0  0.012138  -0.027217  0  3.953993  0
C  C46  1  0.72417684  0.99757276  0.83233343  1  0  0.001123  0  3.698415  0  0  -0.026589  0  3.964377  0  0  -0.025696  0  3.980113  0  0  0.012129  -0.027193  0  3.954019  0
C  C47  1  0.00242741  0.27582256  0.66766638  1  0  0.0011  0  3.698456  0  0  -0.026638  0  3.964417  0  0  -0.025747  0  3.980153  0  0  0.012087  -0.027241  0  3.954056  0
C  C48  1  0.37705453  0.09724341  0.08959849  1  0  0.024219  0  3.687786  0  0  -0.012058  0  3.953355  0  0  -0.00859  0  3.970242  0  0  0.020736  -0.013949  0  3.941718  0
C  C49  1  0.90275606  0.62294599  0.41040220  1  0  0.024196  0  3.687771  0  0  -0.012084  0  3.953317  0  0  -0.008616  0  3.970205  0  0  0.020717  -0.013983  0  3.94168  0
C  C50  1  0.62294471  0.90275696  0.91040215  1  0  0.024141  0  3.687859  0  0  -0.012129  0  3.953413  0  0  -0.008661  0  3.970298  0  0  0.020694  -0.014029  0  3.941771  0
C  C51  1  0.09724317  0.37705438  0.58959765  1  0  0.024243  0  3.68769  0  0  -0.012026  0  3.953245  0  0  -0.008558  0  3.970131  0  0  0.020749  -0.013915  0  3.941604  0
N  N52  1  0.38063605  0.41235384  0.37267076  1  0  -0.315675  0  3.256263  0  0  -0.269179  0  3.547756  0  0  -0.28263  0  3.568683  0  0  -0.31215  -0.25971  0  3.533189  0
N  N53  1  0.58764677  0.61936338  0.12733043  1  0  -0.315776  0  3.256254  0  0  -0.269289  0  3.547756  0  0  -0.28274  0  3.568681  0  0  -0.312199  -0.259825  0  3.533191  0
N  N54  1  0.61936151  0.58764531  0.62733061  1  0  -0.315677  0  3.256247  0  0  -0.269179  0  3.547735  0  0  -0.282631  0  3.568665  0  0  -0.312177  -0.259716  0  3.533172  0
N  N55  1  0.41235401  0.38063576  0.87267022  1  0  -0.315655  0  3.25626  0  0  -0.269162  0  3.547747  0  0  -0.28261  0  3.568674  0  0  -0.312164  -0.259688  0  3.533178  0
N  N56  1  0.40549343  0.54233648  0.43406574  1  0  -0.222688  0  3.357289  0  0  -0.178779  0  3.642325  0  0  -0.189083  0  3.667492  0  0  -0.269258  -0.171238  0  3.624657  0
N  N57  1  0.45766453  0.59450671  0.06593458  1  0  -0.222635  0  3.3572  0  0  -0.178724  0  3.642232  0  0  -0.189025  0  3.667396  0  0  -0.269232  -0.171174  0  3.624548  0
N  N58  1  0.59450580  0.45766389  0.56593411  1  0  -0.222714  0  3.35727  0  0  -0.178805  0  3.642307  0  0  -0.189108  0  3.667473  0  0  -0.26928  -0.171265  0  3.624639  0
N  N59  1  0.54233625  0.40549243  0.93406607  1  0  -0.222738  0  3.357256  0  0  -0.178832  0  3.642302  0  0  -0.189134  0  3.667463  0  0  -0.26928  -0.171287  0  3.624628  0
N  N60  1  0.30962603  0.60340040  0.40171222  1  0  -0.314562  0  3.163212  0  0  -0.272856  0  3.441013  0  0  -0.283686  0  3.461015  0  0  -0.301708  -0.265397  0  3.427626  0
N  N61  1  0.39660119  0.69037504  0.09828798  1  0  -0.314603  0  3.163192  0  0  -0.272906  0  3.440997  0  0  -0.283733  0  3.460996  0  0  -0.301738  -0.265445  0  3.4276  0
N  N62  1  0.69037475  0.39659874  0.59828684  1  0  -0.314556  0  3.163177  0  0  -0.272845  0  3.440962  0  0  -0.283676  0  3.460963  0  0  -0.301676  -0.265387  0  3.427565  0
N  N63  1  0.60340019  0.30962533  0.90171191  1  0  -0.314593  0  3.163153  0  0  -0.272893  0  3.440954  0  0  -0.283724  0  3.460953  0  0  -0.301721  -0.265441  0  3.427567  0
N  N64  1  0.68350625  0.11286100  0.42044993  1  0  -0.310062  0  3.248233  0  0  -0.265027  0  3.539082  0  0  -0.277887  0  3.558894  0  0  -0.310468  -0.25565  0  3.525644  0
N  N65  1  0.88713882  0.31649427  0.07954946  1  0  -0.310058  0  3.248323  0  0  -0.265026  0  3.539172  0  0  -0.277882  0  3.558983  0  0  -0.310479  -0.25565  0  3.525739  0
N  N66  1  0.31649500  0.88713691  0.57954991  1  0  -0.310046  0  3.248277  0  0  -0.265025  0  3.539151  0  0  -0.277885  0  3.558964  0  0  -0.310515  -0.255655  0  3.52572  0
N  N67  1  0.11286149  0.68350610  0.92044882  1  0  -0.309991  0  3.248238  0  0  -0.264962  0  3.539093  0  0  -0.277817  0  3.558906  0  0  -0.310476  -0.255583  0  3.525659  0
N  N68  1  0.63098636  0.97507302  0.47300026  1  0  -0.218663  0  3.335799  0  0  -0.17849  0  3.628454  0  0  -0.188432  0  3.651859  0  0  -0.260475  -0.170882  0  3.611685  0
N  N69  1  0.02492700  0.36901375  0.02699906  1  0  -0.218653  0  3.33583  0  0  -0.178481  0  3.62848  0  0  -0.18842  0  3.651885  0  0  -0.260486  -0.170875  0  3.611719  0
N  N70  1  0.36901442  0.02492612  0.52700039  1  0  -0.218669  0  3.33573  0  0  -0.178491  0  3.628374  0  0  -0.188434  0  3.65178  0  0  -0.260482  -0.170879  0  3.611601  0
N  N71  1  0.97507330  0.63098662  0.97300002  1  0  -0.218722  0  3.335791  0  0  -0.178558  0  3.628462  0  0  -0.188498  0  3.651865  0  0  -0.260495  -0.170951  0  3.6117  0
N  N72  1  0.73793077  0.91882862  0.47063600  1  0  -0.312634  0  3.14919  0  0  -0.275234  0  3.433435  0  0  -0.285018  0  3.452067  0  0  -0.295697  -0.268107  0  3.420977  0
N  N73  1  0.08117118  0.26206889  0.02936504  1  0  -0.312627  0  3.149205  0  0  -0.275229  0  3.43344  0  0  -0.285013  0  3.452076  0  0  -0.295688  -0.268098  0  3.420988  0
N  N74  1  0.26207062  0.08117176  0.52936548  1  0  -0.312573  0  3.149084  0  0  -0.275171  0  3.433317  0  0  -0.284956  0  3.451951  0  0  -0.29566  -0.268042  0  3.420854  0
N  N75  1  0.91882913  0.73793149  0.97063562  1  0  -0.312569  0  3.149133  0  0  -0.275156  0  3.43335  0  0  -0.284941  0  3.451985  0  0  -0.29566  -0.268027  0  3.420892  0
N  N76  1  0.35332298  0.07457244  0.26281776  1  0  -0.322701  0  3.147801  0  0  -0.281273  0  3.42737  0  0  -0.29111  0  3.445079  0  0  -0.296023  -0.274518  0  3.41606  0
N  N77  1  0.92542659  0.64667562  0.23718209  1  0  -0.322633  0  3.147763  0  0  -0.2812  0  3.427327  0  0  -0.291036  0  3.445036  0  0  -0.296004  -0.274448  0  3.416021  0
N  N78  1  0.64667458  0.92542670  0.73718202  1  0  -0.322622  0  3.147812  0  0  -0.281177  0  3.427356  0  0  -0.291015  0  3.445067  0  0  -0.296018  -0.274423  0  3.416048  0
N  N79  1  0.07457311  0.35332352  0.76281775  1  0  -0.322676  0  3.147832  0  0  -0.281236  0  3.42738  0  0  -0.29107  0  3.445089  0  0  -0.296007  -0.274484  0  3.416071  0
N  N80  1  0.49564665  0.20708552  0.24277510  1  0  -0.214493  0  3.329523  0  0  -0.172006  0  3.614685  0  0  -0.181692  0  3.638414  0  0  -0.260288  -0.165277  0  3.598634  0
N  N81  1  0.79291462  0.50435243  0.25722559  1  0  -0.214603  0  3.32967  0  0  -0.172126  0  3.614847  0  0  -0.181811  0  3.638575  0  0  -0.260341  -0.165404  0  3.598809  0
N  N82  1  0.50435198  0.79291363  0.75722550  1  0  -0.21462  0  3.329709  0  0  -0.17214  0  3.614886  0  0  -0.181827  0  3.638618  0  0  -0.260325  -0.165422  0  3.598849  0
N  N83  1  0.20708676  0.49564794  0.74277431  1  0  -0.214571  0  3.32968  0  0  -0.172096  0  3.614856  0  0  -0.181778  0  3.638586  0  0  -0.260325  -0.165369  0  3.598814  0
N  N84  1  0.51330488  0.22467294  0.13854583  1  0  -0.305263  0  3.231114  0  0  -0.255522  0  3.514723  0  0  -0.268593  0  3.535118  0  0  -0.307215  -0.245854  0  3.499963  0
N  N85  1  0.77532681  0.48669599  0.36145410  1  0  -0.305196  0  3.231151  0  0  -0.255451  0  3.514754  0  0  -0.268523  0  3.535149  0  0  -0.307189  -0.245781  0  3.499999  0
N  N86  1  0.48669603  0.77532867  0.86145409  1  0  -0.305151  0  3.231184  0  0  -0.255413  0  3.514782  0  0  -0.268479  0  3.535177  0  0  -0.307183  -0.245735  0  3.500018  0
N  N87  1  0.22467242  0.51330438  0.63854575  1  0  -0.305216  0  3.231154  0  0  -0.255473  0  3.514757  0  0  -0.268547  0  3.535154  0  0  -0.307204  -0.245811  0  3.500006  0
