# generated using pymatgen
data_Zr3H10C26(S5O16)2
_symmetry_space_group_name_H-M   'P 1'
_cell_length_a   16.52662705
_cell_length_b   16.49419502
_cell_length_c   16.54335784
_cell_angle_alpha   60.79870435
_cell_angle_beta   59.83633678
_cell_angle_gamma   60.12956512
_symmetry_Int_Tables_number   1
_chemical_formula_structural   Zr3H10C26(S5O16)2
_chemical_formula_sum   'Zr6 H20 C52 S20 O64'
_cell_volume   3206.69911785
_cell_formula_units_Z   2
loop_
 _symmetry_equiv_pos_site_id
 _symmetry_equiv_pos_as_xyz
  1  'x, y, z'
loop_
 _atom_site_type_symbol
 _atom_site_label
 _atom_site_symmetry_multiplicity
 _atom_site_fract_x
 _atom_site_fract_y
 _atom_site_fract_z
 _atom_site_occupancy
 _atom_site_pbe_bader_charge
 _atom_site_pbe_bader_spin_density
 _atom_site_pbe_cm5_charge
 _atom_site_pbe_ddec_charge
 _atom_site_pbe_ddec_spin_density
 _atom_site_pbe_ddec_sum_bond_order
 _atom_site_pbe_magmom
Zr  Zr0  1  0.89143370  0.89604495  0.59682096  1  2.642825  0  1.644765  2.381893  0  2.748675  0
Zr  Zr1  1  0.11570976  0.10009941  0.39269330  1  2.640665  0  1.645023  2.381967  0  2.74958  0
Zr  Zr2  1  0.10637167  0.88801923  0.60441270  1  2.634153  0  1.628263  2.370723  0  2.732521  0
Zr  Zr3  1  0.90124736  0.10771683  0.38470027  1  2.635248  0  1.62923  2.371547  0  2.732384  0
Zr  Zr4  1  0.11050311  0.89113063  0.38786755  1  2.627981  0  1.62347  2.367133  0  2.757659  0
Zr  Zr5  1  0.89692040  0.10471994  0.60144445  1  2.623745  0  1.621379  2.365232  0  2.761569  0
H  H6  1  0.08011599  0.74764185  0.57902432  1  0.611329  0  0.335297  0.429764  0  0.849907  0
H  H7  1  0.09322276  0.08229526  0.24435224  1  0.596932  0  0.335215  0.429596  0  0.848347  0
H  H8  1  0.08741091  0.07697349  0.58485085  1  0.619302  0  0.332014  0.425587  0  0.857336  0
H  H9  1  0.75075268  0.08818231  0.57365521  1  0.618074  0  0.331778  0.425484  0  0.857604  0
H  H10  1  0.08726943  0.65049698  0.88014313  1  0.135771  0  0.104742  0.117554  0  1.056185  0
H  H11  1  0.82502143  0.66894953  0.86722981  1  0.103157  0  0.114886  0.144237  0  0.984724  0
H  H12  1  0.88161971  0.38394225  0.14787633  1  0.119754  0  0.104715  0.117406  0  1.056434  0
H  H13  1  0.13940298  0.37003472  0.16522200  1  0.138934  0  0.11485  0.1441  0  0.984531  0
H  H14  1  0.88527878  0.24922907  0.69333334  1  0.648805  0  0.315053  0.370306  0  0.947257  0
H  H15  1  0.19164524  0.67211830  0.37901461  1  0.642949  0  0.313345  0.368267  0  0.957141  0
H  H16  1  0.25649116  0.88278840  0.16823778  1  0.641622  0  0.313587  0.368528  0  0.95506  0
H  H17  1  0.67192727  0.19664794  0.74639225  1  0.650702  0  0.31525  0.37027  0  0.947828  0
H  H18  1  0.18807783  0.86901597  0.75355300  1  0.643213  0  0.317771  0.372435  0  0.946797  0
H  H19  1  0.88152508  0.29809050  0.02337880  1  0.642496  0  0.358013  0.411151  0  0.827985  0
H  H20  1  0.29740894  0.52703230  0.79510933  1  0.654493  0  0.357909  0.410655  0  0.828012  0
H  H21  1  0.68968959  0.25688669  0.36583091  1  0.669791  0  0.317815  0.373363  0  0.947465  0
H  H22  1  0.30970178  0.30219147  0.35579240  1  0.650181  0  0.349569  0.414769  0  0.838463  0
H  H23  1  0.53189002  0.86026213  0.79849249  1  0.653123  0  0.349097  0.413903  0  0.83918  0
H  H24  1  0.14241391  0.60150472  0.98624123  1  0.640906  0  0.312257  0.363911  0  0.944993  0
H  H25  1  0.76937055  0.49018462  0.09883183  1  0.645602  0  0.311989  0.363898  0  0.944943  0
C  C26  1  0.00357820  0.73136263  0.48021034  1  1.541833  0  0.233487  0.650151  0  4.120903  0
C  C27  1  0.28483549  0.98325006  0.22811239  1  1.529348  0  0.233055  0.648709  0  4.12342  0
C  C28  1  0.99470227  0.27068379  0.50502663  1  1.546239  0  0.232163  0.649179  0  4.123245  0
C  C29  1  0.72953067  0.00830148  0.76740347  1  1.548088  0  0.232535  0.651006  0  4.12086  0
C  C30  1  0.97775469  0.74123326  0.76872071  1  1.492186  0  0.240132  0.650346  0  4.06401  0
C  C31  1  0.73187706  0.00024477  0.49058444  1  1.570054  0  0.230792  0.648143  0  4.135802  0
C  C32  1  0.01230222  0.27203948  0.23795797  1  1.497473  0  0.239618  0.649045  0  4.064788  0
C  C33  1  0.27725102  0.99428504  0.49671050  1  1.566872  0  0.230817  0.648681  0  4.135507  0
C  C34  1  0.27503101  0.72696463  0.49668015  1  1.581399  0  0.232696  0.652872  0  4.127594  0
C  C35  1  0.00140547  0.98817071  0.77580573  1  1.545918  0  0.231295  0.650736  0  4.115047  0
C  C36  1  0.73451299  0.27901683  0.48511082  1  1.567058  0  0.23178  0.651549  0  4.114815  0
C  C37  1  0.00145449  0.99996868  0.22361717  1  1.590025  0  0.233692  0.655645  0  4.125606  0
C  C38  1  0.92412452  0.42116410  0.56330964  1  -0.011267  0  -0.018594  -0.133216  0  3.969906  0
C  C39  1  0.06768096  0.58494548  0.41842962  1  -0.034834  0  -0.022511  -0.143239  0  3.982297  0
C  C40  1  0.98961454  0.36385627  0.50073359  1  -0.142715  0  -0.0176  -0.145998  0  3.942463  0
C  C41  1  0.00186638  0.64311072  0.48036238  1  -0.167123  0  -0.016691  -0.150921  0  3.934288  0
C  C42  1  0.03735909  0.50576931  0.44725338  1  -0.139848  0  -0.012553  -0.023362  0  4.074181  0
C  C43  1  0.95110305  0.50354187  0.53203886  1  -0.197016  0  -0.010591  -0.028081  0  4.057429  0
C  C44  1  0.42882386  0.92146720  0.08166355  1  -0.057285  0  -0.022069  -0.142389  0  3.982286  0
C  C45  1  0.59153073  0.06613478  0.91820688  1  -0.032802  0  -0.018504  -0.133093  0  3.971072  0
C  C46  1  0.37466650  0.98329876  0.13990945  1  -0.144829  0  -0.016953  -0.150446  0  3.935133  0
C  C47  1  0.64579671  0.00380540  0.86066629  1  -0.179502  0  -0.01741  -0.146022  0  3.941502  0
C  C48  1  0.51345626  0.03480475  0.00053777  1  -0.12064  0  -0.011214  -0.028408  0  4.059258  0
C  C49  1  0.50963104  0.95017298  0.00258241  1  -0.151878  0  -0.012999  -0.024564  0  4.075708  0
C  C50  1  0.06353976  0.91927146  0.92113473  1  -0.068502  0  -0.023044  -0.144921  0  3.986846  0
C  C51  1  0.93368549  0.06695840  0.08290429  1  -0.074083  0  -0.02145  -0.139765  0  3.965661  0
C  C52  1  0.00040242  0.98624281  0.86624344  1  -0.141964  0  -0.018941  -0.155515  0  3.928818  0
C  C53  1  0.99720441  0.99924070  0.13718722  1  -0.158125  0  -0.012176  -0.139156  0  3.918297  0
C  C54  1  0.95752948  0.03742613  0.00394102  1  -0.158657  0  -0.012  -0.03468  0  4.062756  0
C  C55  1  0.03873508  0.94862593  0.00025802  1  -0.113848  0  -0.012818  -0.030897  0  4.069339  0
C  C56  1  0.41647042  0.58627506  0.56377336  1  -0.063599  0  -0.02133  -0.140132  0  3.965368  0
C  C57  1  0.59576768  0.42418037  0.41641591  1  -0.09221  0  -0.02287  -0.144791  0  3.988846  0
C  C58  1  0.36637696  0.64045537  0.49605596  1  -0.150378  0  -0.012123  -0.138526  0  3.918144  0
C  C59  1  0.64683122  0.36928796  0.48337314  1  -0.179712  0  -0.019445  -0.156297  0  3.930043  0
C  C60  1  0.51217711  0.50336899  0.44569687  1  -0.134265  0  -0.012985  -0.031362  0  4.068855  0
C  C61  1  0.50100407  0.50717516  0.53438939  1  -0.150079  0  -0.011609  -0.034066  0  4.062126  0
C  C62  1  0.02657551  0.62238722  0.91398978  1  -0.032835  0  -0.095033  -0.154546  0  3.974841  0
C  C63  1  0.87789111  0.63316225  0.90528166  1  0.038937  0  -0.103409  -0.232402  0  3.944066  0
C  C64  1  0.86522725  0.55646516  0.99281326  1  0.488504  0  0.089779  0.282458  0  4.064131  0
C  C65  1  0.93758406  0.50585121  0.04059480  1  -0.026997  0  -0.014576  -0.01959  0  4.008454  0
C  C66  1  0.93686812  0.41755962  0.11942793  1  0.037396  0  -0.095563  -0.15619  0  3.974843  0
C  C67  1  0.08410806  0.40823919  0.12960241  1  -0.040456  0  -0.103482  -0.233118  0  3.943176  0
C  C68  1  0.08603981  0.49568318  0.05277442  1  0.495502  0  0.089821  0.283197  0  4.061692  0
C  C69  1  0.01625913  0.54368534  0.00240258  1  0.022453  0  -0.015305  -0.022147  0  4.009006  0
C  C70  1  0.96017204  0.66399007  0.86525785  1  -0.027673  0  -0.024843  -0.032898  0  4.048092  0
C  C71  1  0.01062876  0.36858699  0.16077987  1  -0.041808  0  -0.024127  -0.030329  0  4.045913  0
C  C72  1  0.41831157  0.06387371  0.42713558  1  -0.043907  0  -0.021649  -0.136304  0  3.948772  0
C  C73  1  0.59064712  0.93095711  0.56014701  1  -0.064944  0  -0.021611  -0.13572  0  3.949373  0
C  C74  1  0.36695743  0.99680920  0.49309118  1  -0.143882  0  -0.013388  -0.137724  0  3.911329  0
C  C75  1  0.64331130  0.99671568  0.49293157  1  -0.154122  0  -0.013921  -0.138466  0  3.911659  0
C  C76  1  0.50876815  0.95531059  0.53555646  1  -0.115045  0  -0.015249  -0.039141  0  4.073882  0
C  C77  1  0.50049951  0.03924782  0.45142087  1  -0.159641  0  -0.014884  -0.03855  0  4.072781  0
S  S78  1  0.08368361  0.40938360  0.40496283  1  0.388254  0  0.140302  0.225581  0  2.883382  0
S  S79  1  0.90541631  0.59980606  0.57441743  1  0.430673  0  0.16096  0.266049  0  2.851734  0
S  S80  1  0.42056214  0.07713545  0.09681407  1  0.4206  0  0.161415  0.266307  0  2.856218  0
S  S81  1  0.60190613  0.90810279  0.90602551  1  0.377829  0  0.140566  0.225957  0  2.882947  0
S  S82  1  0.91122123  0.08362393  0.91184076  1  0.433849  0  0.1592  0.282068  0  2.901657  0
S  S83  1  0.08516195  0.90150216  0.09241021  1  0.4411  0  0.162582  0.277766  0  2.892414  0
S  S84  1  0.42076219  0.59551145  0.39850337  1  0.440396  0  0.162874  0.278118  0  2.890931  0
S  S85  1  0.59319581  0.41504060  0.58062741  1  0.450398  0  0.158895  0.281315  0  2.900213  0
S  S86  1  0.41793614  0.90558426  0.58339892  1  0.42303  0  0.155492  0.268793  0  2.892933  0
S  S87  1  0.59342949  0.08686788  0.40152642  1  0.434767  0  0.156037  0.269496  0  2.892131  0
S  S88  1  0.81937015  0.40126114  0.67062770  1  3.140179  0  0.543772  1.181905  0  6.025463  0
S  S89  1  0.17968410  0.59522176  0.31781885  1  3.162496  0  0.544046  1.189121  0  6.022128  0
S  S90  1  0.40670502  0.82124154  0.09179097  1  3.162601  0  0.544353  1.188843  0  6.02352  0
S  S91  1  0.60907125  0.17322269  0.89856229  1  3.168471  0  0.543576  1.181876  0  6.026441  0
S  S92  1  0.16420130  0.80916070  0.90495838  1  3.134275  0  0.552316  1.184694  0  6.01711  0
S  S93  1  0.83119913  0.17535961  0.10204918  1  3.110799  0  0.549196  1.17193  0  5.984109  0
S  S94  1  0.39157592  0.60571629  0.67192862  1  3.101148  0  0.549201  1.17271  0  5.985693  0
S  S95  1  0.62143977  0.40815069  0.30621404  1  3.174742  0  0.552543  1.186814  0  6.015095  0
S  S96  1  0.39831789  0.16741619  0.32174214  1  3.080853  0  0.550277  1.185921  0  5.966941  0
S  S97  1  0.61218246  0.82584831  0.66393739  1  3.099614  0  0.550567  1.185611  0  5.966308  0
O  O98  1  0.93174194  0.77191436  0.54395349  1  -1.161877  0  -0.328862  -0.575834  0  2.281721  0
O  O99  1  0.25245181  0.04701562  0.26861723  1  -1.154464  0  -0.32857  -0.57494  0  2.281357  0
O  O100  1  0.06362463  0.23509044  0.43667689  1  -1.169316  0  -0.328969  -0.57992  0  2.28483  0
O  O101  1  0.76451007  0.94006756  0.73167552  1  -1.166288  0  -0.329356  -0.581153  0  2.286485  0
O  O102  1  0.05048455  0.77100070  0.73467061  1  -1.175918  0  -0.355073  -0.611049  0  2.276738  0
O  O103  1  0.76769758  0.06790806  0.42144161  1  -1.175699  0  -0.339172  -0.601899  0  2.245063  0
O  O104  1  0.94380911  0.23804113  0.26774935  1  -1.174831  0  -0.355517  -0.611261  0  2.276163  0
O  O105  1  0.24302155  0.92508410  0.56438381  1  -1.172597  0  -0.338535  -0.601597  0  2.244245  0
O  O106  1  0.24335860  0.76113509  0.42578139  1  -1.172169  0  -0.349258  -0.612828  0  2.257457  0
O  O107  1  0.93260734  0.05572315  0.74170116  1  -1.18174  0  -0.333509  -0.592174  0  2.246783  0
O  O108  1  0.76992344  0.24493510  0.55261246  1  -1.171789  0  -0.333787  -0.592914  0  2.246483  0
O  O109  1  0.06982191  0.92903965  0.25783664  1  -1.176081  0  -0.349898  -0.614915  0  2.258609  0
O  O110  1  0.07396665  0.92212225  0.73525381  1  -1.192078  0  -0.352867  -0.628778  0  2.328393  0
O  O111  1  0.76865211  0.23856517  0.41895155  1  -1.189617  0  -0.352771  -0.628636  0  2.329592  0
O  O112  1  0.93755831  0.07146832  0.25751696  1  -1.166574  0  -0.355182  -0.595704  0  2.318006  0
O  O113  1  0.23354124  0.76094858  0.56812374  1  -1.167427  0  -0.355219  -0.595092  0  2.318586  0
O  O114  1  0.91816820  0.77355529  0.72295650  1  -1.179006  0  -0.377235  -0.627762  0  2.302728  0
O  O115  1  0.23930137  0.06402394  0.43122602  1  -1.172669  0  -0.363953  -0.602347  0  2.329972  0
O  O116  1  0.08542857  0.22615684  0.27017224  1  -1.175326  0  -0.377166  -0.627684  0  2.304415  0
O  O117  1  0.76543162  0.93481060  0.56041716  1  -1.172793  0  -0.363429  -0.601579  0  2.329874  0
O  O118  1  0.76115921  0.08198639  0.72675515  1  -1.189712  0  -0.362643  -0.637903  0  2.328255  0
O  O119  1  0.07884271  0.76102488  0.41639632  1  -1.18741  0  -0.355857  -0.630312  0  2.327019  0
O  O120  1  0.24360535  0.91957250  0.25769924  1  -1.188038  0  -0.356194  -0.630415  0  2.327749  0
O  O121  1  0.93014166  0.22992198  0.57872540  1  -1.193333  0  -0.362544  -0.637196  0  2.331235  0
O  O122  1  0.82271433  0.06355511  0.55094806  1  -1.246545  0  -0.698277  -1.078688  0  2.37997  0
O  O123  1  0.06280751  0.05424848  0.56021974  1  -1.246261  0  -0.698583  -1.078989  0  2.380931  0
O  O124  1  0.06944460  0.05578440  0.31570215  1  -1.221893  0  -0.697177  -1.076506  0  2.371495  0
O  O125  1  0.05906890  0.81898868  0.55249696  1  -1.235714  0  -0.697094  -1.076862  0  2.372238  0
O  O126  1  0.13766150  0.94965374  0.45316643  1  -1.197248  0  -0.789922  -1.148003  0  2.128432  0
O  O127  1  0.95951687  0.95646580  0.44636449  1  -1.200866  0  -0.790364  -1.148028  0  2.127499  0
O  O128  1  0.96208513  0.13035649  0.45239529  1  -1.189365  0  -0.789967  -1.143498  0  2.131389  0
O  O129  1  0.95517548  0.95568237  0.62704655  1  -1.193344  0  -0.789665  -1.143319  0  2.131552  0
O  O130  1  0.86522839  0.29084432  0.73266411  1  -1.223771  0  -0.358304  -0.527279  0  2.233562  0
O  O131  1  0.74709311  0.40767246  0.64188683  1  -1.278401  0  -0.305033  -0.527468  0  2.192752  0
O  O132  1  0.79568496  0.46240635  0.72341955  1  -1.271878  0  -0.295278  -0.490177  0  2.116985  0
O  O133  1  0.23558929  0.60936460  0.36213473  1  -1.217594  0  -0.35554  -0.523903  0  2.244184  0
O  O134  1  0.15614416  0.68104680  0.23748147  1  -1.287103  0  -0.302447  -0.520958  0  2.165424  0
O  O135  1  0.23558673  0.49921684  0.30541371  1  -1.294923  0  -0.305666  -0.516374  0  2.128535  0
O  O136  1  0.29241487  0.86623518  0.10531984  1  -1.217339  0  -0.355948  -0.5243  0  2.244503  0
O  O137  1  0.42404315  0.74089472  0.17787856  1  -1.285392  0  -0.302324  -0.520386  0  2.165798  0
O  O138  1  0.45944313  0.80868780  0.99584653  1  -1.295084  0  -0.305714  -0.516157  0  2.128491  0
O  O139  1  0.61110188  0.23567632  0.78832369  1  -1.229029  0  -0.358265  -0.526586  0  2.233087  0
O  O140  1  0.70390943  0.14427374  0.90459323  1  -1.277253  0  -0.305361  -0.52776  0  2.194271  0
O  O141  1  0.51908005  0.22580664  0.96009462  1  -1.287061  0  -0.29459  -0.490156  0  2.118418  0
O  O142  1  0.23038109  0.84359444  0.79351006  1  -1.221502  0  -0.346984  -0.511509  0  2.256457  0
O  O143  1  0.12537901  0.73954972  0.91971416  1  -1.300815  0  -0.299988  -0.543929  0  2.225504  0
O  O144  1  0.21979333  0.78321508  0.96318221  1  -1.265865  0  -0.285953  -0.478563  0  2.131701  0
O  O145  1  0.88201183  0.24623746  0.08704907  1  -1.183915  0  -0.353966  -0.531111  0  2.154733  0
O  O146  1  0.76590131  0.15416173  0.20196314  1  -1.282096  0  -0.286756  -0.493881  0  2.223881  0
O  O147  1  0.79718803  0.21840682  0.02029730  1  -1.280551  0  -0.295623  -0.509953  0  2.142526  0
O  O148  1  0.28503956  0.59048469  0.74301200  1  -1.199483  0  -0.353529  -0.530445  0  2.155728  0
O  O149  1  0.37796143  0.70571991  0.65060422  1  -1.271456  0  -0.286851  -0.494533  0  2.224389  0
O  O150  1  0.46448849  0.52417547  0.71483642  1  -1.282068  0  -0.295897  -0.510229  0  2.143251  0
O  O151  1  0.63289805  0.29659497  0.34031310  1  -1.24658  0  -0.34733  -0.513402  0  2.257498  0
O  O152  1  0.71486142  0.42347973  0.23654003  1  -1.315917  0  -0.300314  -0.544825  0  2.223519  0
O  O153  1  0.53343276  0.46607860  0.28048422  1  -1.278897  0  -0.28582  -0.478949  0  2.13156  0
O  O154  1  0.29583581  0.24401526  0.37038260  1  -1.190256  0  -0.360045  -0.554765  0  2.201654  0
O  O155  1  0.38096942  0.14305346  0.26124727  1  -1.274058  0  -0.290124  -0.507219  0  2.233223  0
O  O156  1  0.47639093  0.20660487  0.28217941  1  -1.274497  0  -0.297666  -0.512458  0  2.142386  0
O  O157  1  0.58921885  0.87498790  0.74023199  1  -1.197508  0  -0.359825  -0.554457  0  2.201726  0
O  O158  1  0.71434034  0.76516275  0.63990577  1  -1.286584  0  -0.290057  -0.507144  0  2.231234  0
O  O159  1  0.53438512  0.78640413  0.70315788  1  -1.276463  0  -0.297901  -0.511902  0  2.14305  0
O  O160  1  0.15835503  0.53081986  0.02419004  1  -1.150476  0  -0.353048  -0.440424  0  2.264995  0
O  O161  1  0.78602515  0.52830395  0.02818759  1  -1.148841  0  -0.352835  -0.440313  0  2.264186  0
