# generated using pymatgen
data_ZnH24C24(N3O2)2
_symmetry_space_group_name_H-M   'P 1'
_cell_length_a   10.32922988
_cell_length_b   10.50904677
_cell_length_c   12.53400000
_cell_angle_alpha   113.18008902
_cell_angle_beta   97.01518192
_cell_angle_gamma   105.23878066
_symmetry_Int_Tables_number   1
_chemical_formula_structural   ZnH24C24(N3O2)2
_chemical_formula_sum   'Zn2 H48 C48 N12 O8'
_cell_volume   1167.07044153
_cell_formula_units_Z   2
loop_
 _symmetry_equiv_pos_site_id
 _symmetry_equiv_pos_as_xyz
  1  'x, y, z'
loop_
 _atom_site_type_symbol
 _atom_site_label
 _atom_site_symmetry_multiplicity
 _atom_site_fract_x
 _atom_site_fract_y
 _atom_site_fract_z
 _atom_site_occupancy
 _atom_site_hle17_bader_spin_density
 _atom_site_hle17_ddec_charge
 _atom_site_hle17_ddec_spin_density
 _atom_site_hle17_ddec_sum_bond_order
 _atom_site_hle17_magmom
 _atom_site_hse06_10hf_bader_spin_density
 _atom_site_hse06_10hf_ddec_charge
 _atom_site_hse06_10hf_ddec_spin_density
 _atom_site_hse06_10hf_ddec_sum_bond_order
 _atom_site_hse06_10hf_magmom
 _atom_site_hse06_bader_spin_density
 _atom_site_hse06_ddec_charge
 _atom_site_hse06_ddec_spin_density
 _atom_site_hse06_ddec_sum_bond_order
 _atom_site_hse06_magmom
 _atom_site_pbe_bader_charge
 _atom_site_pbe_bader_spin_density
 _atom_site_pbe_cm5_charge
 _atom_site_pbe_ddec_charge
 _atom_site_pbe_ddec_spin_density
 _atom_site_pbe_ddec_sum_bond_order
 _atom_site_pbe_magmom
Zn  Zn0  1  0.89654344  0.88931540  0.68773325  1  0  1.00409  0  1.8888  0  0  0.814769  0  2.369384  0  0  0.861381  0  2.314728  0  1.260087  0  0.694482  0.778961  0  2.410048  0
Zn  Zn1  1  0.10345696  0.11068713  0.31226842  1  0  1.004124  0  1.888718  0  0  0.814786  0  2.369246  0  0  0.861399  0  2.314591  0  1.260155  0  0.694485  0.778981  0  2.40991  0
H  H2  1  0.48730767  0.57679390  0.44822153  1  0  0.099457  0  0.951818  0  0  0.108638  0  1.01562  0  0  0.111574  0  1.014148  0  0.097112  0  0.104839  0.106461  0  1.01676  0
H  H3  1  0.51269593  0.42320643  0.55178373  1  0  0.099464  0  0.951775  0  0  0.108628  0  1.015605  0  0  0.111565  0  1.014135  0  0.097093  0  0.104829  0.106455  0  1.016743  0
H  H4  1  0.23255438  0.45104475  0.35977464  1  0  0.088333  0  0.96165  0  0  0.098409  0  1.021892  0  0  0.101453  0  1.021104  0  0.068036  0  0.097162  0.09624  0  1.022691  0
H  H5  1  0.76744824  0.54895558  0.64023052  1  0  0.088374  0  0.961632  0  0  0.098454  0  1.021854  0  0  0.101499  0  1.021068  0  0.068231  0  0.097203  0.096283  0  1.022655  0
H  H6  1  0.06848792  0.57300307  0.44803196  1  0  0.098787  0  0.949935  0  0  0.106407  0  1.01685  0  0  0.11004  0  1.013753  0  0.082854  0  0.102536  0.103813  0  1.018945  0
H  H7  1  0.93151400  0.42699506  0.55197320  1  0  0.098735  0  0.949969  0  0  0.106371  0  1.016874  0  0  0.110005  0  1.013775  0  0.08282  0  0.10251  0.103777  0  1.018967  0
H  H8  1  0.41359027  0.93826036  0.71750222  1  0  0.102837  0  0.968844  0  0  0.109085  0  1.039657  0  0  0.113016  0  1.036272  0  0.118464  0  0.104248  0.106196  0  1.042387  0
H  H9  1  0.58640854  0.06174327  0.28249807  1  0  0.102856  0  0.968844  0  0  0.109123  0  1.039633  0  0  0.113054  0  1.036245  0  0.118501  0  0.104258  0.106234  0  1.042361  0
H  H10  1  0.69001554  0.79484196  0.83603544  1  0  0.117892  0  0.940482  0  0  0.12827  0  0.999263  0  0  0.130178  0  0.997782  0  0.200608  0  0.148798  0.126786  0  1.000442  0
H  H11  1  0.30998540  0.20515617  0.16396403  1  0  0.117905  0  0.940458  0  0  0.128285  0  0.999243  0  0  0.130192  0  0.997765  0  0.200639  0  0.148802  0.126801  0  1.000423  0
H  H12  1  0.11827653  0.87126080  0.89422407  1  0  0.105716  0  0.944248  0  0  0.117006  0  1.001426  0  0  0.118846  0  1.00004  0  0.142649  0  0.138881  0.115723  0  1.002189  0
H  H13  1  0.88172520  0.12874284  0.10577650  1  0  0.105708  0  0.944266  0  0  0.116998  0  1.001448  0  0  0.118838  0  1.000063  0  0.142633  0  0.13887  0.115715  0  1.002212  0
H  H14  1  0.74685452  0.80438234  0.10405196  1  0  0.101567  0  0.950803  0  0  0.114974  0  1.013903  0  0  0.115786  0  1.013487  0  0.123287  0  0.115244  0.114266  0  1.014327  0
H  H15  1  0.25314846  0.19561909  0.89594802  1  0  0.10156  0  0.950864  0  0  0.114945  0  1.013995  0  0  0.115756  0  1.013579  0  0.123265  0  0.11525  0.114238  0  1.014418  0
H  H16  1  0.79683732  0.64660328  0.05303046  1  0  0.09417  0  0.950123  0  0  0.103893  0  1.019638  0  0  0.105053  0  1.019227  0  0.089583  0  0.117586  0.10308  0  1.019939  0
H  H17  1  0.20316336  0.35339705  0.94696812  1  0  0.094213  0  0.950055  0  0  0.103924  0  1.019586  0  0  0.105084  0  1.019174  0  0.089612  0  0.117599  0.103108  0  1.019889  0
H  H18  1  0.75013452  0.41548715  0.79781174  1  0  0.109801  0  0.945352  0  0  0.129434  0  1.010826  0  0  0.13014  0  1.011836  0  0.065736  0  0.091328  0.128875  0  1.010013  0
H  H19  1  0.24986749  0.58451428  0.20218973  1  0  0.109819  0  0.945326  0  0  0.129453  0  1.010795  0  0  0.130159  0  1.011805  0  0.065741  0  0.09133  0.128893  0  1.009983  0
H  H20  1  0.64374648  0.28350069  0.83291093  1  0  0.10978  0  0.96541  0  0  0.133154  0  1.023551  0  0  0.134289  0  1.023468  0  0.025112  0  0.093964  0.132146  0  1.023798  0
H  H21  1  0.35625287  0.71649854  0.16708875  1  0  0.109773  0  0.965432  0  0  0.133156  0  1.023555  0  0  0.134291  0  1.023474  0  0.025122  0  0.093964  0.132148  0  1.023803  0
H  H22  1  0.76012585  0.45044689  0.94902514  1  0  0.109001  0  0.963364  0  0  0.131842  0  1.02014  0  0  0.133361  0  1.019818  0  0.052935  0  0.092168  0.130727  0  1.020378  0
H  H23  1  0.23987411  0.54955124  0.05097663  1  0  0.108994  0  0.963331  0  0  0.131842  0  1.020106  0  0  0.13336  0  1.019785  0  0.052875  0  0.092169  0.130726  0  1.020345  0
H  H24  1  0.51418676  0.20832822  0.67137494  1  0  0.116283  0  0.952729  0  0  0.140568  0  1.005451  0  0  0.141859  0  1.00587  0  0.030327  0  0.094846  0.139515  0  1.005218  0
H  H25  1  0.48581578  0.79166881  0.32862434  1  0  0.116337  0  0.952738  0  0  0.140611  0  1.005461  0  0  0.141906  0  1.005875  0  0.030269  0  0.094874  0.139559  0  1.005228  0
H  H26  1  0.35577968  0.20264363  0.59772083  1  0  0.105356  0  0.989141  0  0  0.123502  0  1.055365  0  0  0.124937  0  1.055186  0  0.052608  0  0.087627  0.122408  0  1.055482  0
H  H27  1  0.64422162  0.79735560  0.40227905  1  0  0.10537  0  0.989145  0  0  0.123518  0  1.055357  0  0  0.124953  0  1.055179  0  0.052579  0  0.087624  0.122424  0  1.055476  0
H  H28  1  0.36366829  0.15562876  0.71923433  1  0  0.110329  0  0.957704  0  0  0.130694  0  1.023869  0  0  0.131458  0  1.024607  0  0.049618  0  0.089412  0.12999  0  1.023454  0
H  H29  1  0.63633504  0.84437377  0.28076525  1  0  0.110359  0  0.957615  0  0  0.130714  0  1.023792  0  0  0.131476  0  1.024532  0  0.049582  0  0.08942  0.130009  0  1.023377  0
H  H30  1  0.26293611  0.74342851  0.95103133  1  0  0.10993  0  0.950169  0  0  0.134859  0  1.004899  0  0  0.135916  0  1.005017  0  0.017168  0  0.093855  0.134012  0  1.004837  0
H  H31  1  0.73706812  0.25657072  0.04897044  1  0  0.109938  0  0.950154  0  0  0.134872  0  1.004879  0  0  0.135926  0  1.004998  0  0.017165  0  0.093847  0.134024  0  1.004818  0
H  H32  1  0.15670242  0.59385208  0.81576687  1  0  0.10553  0  0.990073  0  0  0.117331  0  1.065877  0  0  0.119977  0  1.063758  0  0.062539  0  0.086507  0.115498  0  1.067161  0
H  H33  1  0.84329754  0.40614605  0.18423490  1  0  0.105542  0  0.990079  0  0  0.117346  0  1.06588  0  0  0.11999  0  1.063763  0  0.062497  0  0.086499  0.115513  0  1.067165  0
H  H34  1  0.28027001  0.74676241  0.81360499  1  0  0.109381  0  0.958653  0  0  0.129665  0  1.022921  0  0  0.129942  0  1.024654  0  0.032113  0  0.089308  0.129347  0  1.021721  0
H  H35  1  0.71973031  0.25323682  0.18639399  1  0  0.109393  0  0.958636  0  0  0.12968  0  1.022902  0  0  0.129956  0  1.024634  0  0.032085  0  0.089303  0.129366  0  1.021699  0
H  H36  1  0.45857542  0.85881922  0.08236293  1  0  0.115183  0  0.952441  0  0  0.137562  0  1.013689  0  0  0.139103  0  1.012716  0  0.057441  0  0.09418  0.136321  0  1.014642  0
H  H37  1  0.54142720  0.14118112  0.91763983  1  0  0.115167  0  0.952457  0  0  0.137554  0  1.01369  0  0  0.139092  0  1.01272  0  0.057326  0  0.094171  0.136315  0  1.014641  0
H  H38  1  0.50632281  0.89980597  0.96662419  1  0  0.109922  0  0.962341  0  0  0.135523  0  1.017286  0  0  0.136177  0  1.01812  0  0.047197  0  0.094057  0.135025  0  1.01682  0
H  H39  1  0.49367981  0.10019436  0.03337778  1  0  0.10989  0  0.962334  0  0  0.135477  0  1.017297  0  0  0.136132  0  1.018126  0  0.047137  0  0.094047  0.134981  0  1.016827  0
H  H40  1  0.63388751  0.90518888  0.07765052  1  0  0.116967  0  0.989658  0  0  0.133613  0  1.056206  0  0  0.136058  0  1.054566  0  0.084901  0  0.089101  0.131769  0  1.057515  0
H  H41  1  0.36611468  0.09480705  0.92234915  1  0  0.11697  0  0.98963  0  0  0.133597  0  1.05622  0  0  0.136041  0  1.054582  0  0.084938  0  0.089069  0.131751  0  1.057532  0
H  H42  1  0.17679742  0.45818159  0.65119821  1  0  0.102391  0  0.920546  0  0  0.118049  0  0.979842  0  0  0.118763  0  0.979646  0  0.081729  0  0.122464  0.117362  0  0.980139  0
H  H43  1  0.82320298  0.54182094  0.34880267  1  0  0.102379  0  0.92059  0  0  0.118026  0  0.979881  0  0  0.118738  0  0.979685  0  0.081747  0  0.122458  0.117339  0  0.980179  0
H  H44  1  0.23748256  0.31217909  0.58496419  1  0  0.105164  0  0.958577  0  0  0.118016  0  1.022593  0  0  0.119788  0  1.020849  0  0.141999  0  0.118847  0.116351  0  1.024576  0
H  H45  1  0.76251714  0.68782125  0.41503350  1  0  0.1051  0  0.958633  0  0  0.11796  0  1.022628  0  0  0.119726  0  1.020892  0  0.141937  0  0.118833  0.116307  0  1.024599  0
H  H46  1  0.12190585  0.07024649  0.59726342  1  0  0.109991  0  0.930178  0  0  0.1211  0  0.990942  0  0  0.12315  0  0.988687  0  0.153775  0  0.148029  0.119493  0  0.992629  0
H  H47  1  0.87809642  0.92975274  0.40273656  1  0  0.11003  0  0.930155  0  0  0.121141  0  0.990894  0  0  0.12319  0  0.988643  0  0.153814  0  0.148033  0.119534  0  0.992581  0
H  H48  1  0.85619248  0.21563352  0.80807516  1  0  0.109863  0  0.929758  0  0  0.118911  0  0.990379  0  0  0.121308  0  0.987409  0  0.160882  0  0.141771  0.117137  0  0.992541  0
H  H49  1  0.14379729  0.78436021  0.19191057  1  0  0.109916  0  0.929669  0  0  0.118942  0  0.990317  0  0  0.121343  0  0.987341  0  0.160939  0  0.141768  0.11717  0  0.992481  0
C  C50  1  0.61921976  0.84382876  0.64512252  1  0  0.623816  0  3.934778  0  0  0.579693  0  4.219831  0  0  0.613209  0  4.213395  0  1.526756  0  0.194838  0.556683  0  4.223527  0
C  C51  1  0.38078100  0.15617487  0.35488195  1  0  0.623885  0  3.934537  0  0  0.579724  0  4.219628  0  0  0.61324  0  4.213191  0  1.526852  0  0.194861  0.556714  0  4.223322  0
C  C52  1  0.46654389  0.76659847  0.58764795  1  0  -0.076736  0  3.767444  0  0  -0.049815  0  3.995793  0  0  -0.060151  0  4.020378  0  -0.026989  0  -0.02291  -0.043173  0  3.979738  0
C  C53  1  0.53345261  0.23340406  0.41235253  1  0  -0.076786  0  3.767367  0  0  -0.049881  0  3.995768  0  0  -0.060214  0  4.020347  0  -0.027012  0  -0.022845  -0.043239  0  3.979715  0
C  C54  1  0.41487875  0.62878099  0.48657306  1  0  -0.04671  0  3.702942  0  0  -0.073269  0  3.951012  0  0  -0.070162  0  3.9696  0  -0.058459  0  -0.075786  -0.074299  0  3.937677  0
C  C55  1  0.58512458  0.37122154  0.51342970  1  0  -0.046744  0  3.70279  0  0  -0.073296  0  3.950879  0  0  -0.07019  0  3.969472  0  -0.058417  0  -0.075861  -0.074324  0  3.937543  0
C  C56  1  0.27213767  0.55919952  0.43676350  1  0  -0.073613  0  3.760759  0  0  -0.08284  0  4.013491  0  0  -0.08728  0  4.033664  0  0.000194  0  -0.090669  -0.080086  0  3.999205  0
C  C57  1  0.72786441  0.44080522  0.56324146  1  0  -0.073644  0  3.760591  0  0  -0.082857  0  4.013323  0  0  -0.087303  0  4.033493  0  -0.000121  0  -0.090644  -0.080105  0  3.999037  0
C  C58  1  0.17999452  0.62651178  0.48639427  1  0  -0.053582  0  3.717654  0  0  -0.083083  0  3.969926  0  0  -0.079856  0  3.987779  0  -0.059747  0  -0.080717  -0.084285  0  3.957136  0
C  C59  1  0.82000651  0.37348966  0.51360950  1  0  -0.053401  0  3.71752  0  0  -0.082947  0  3.969809  0  0  -0.079712  0  3.987661  0  -0.059701  0  -0.080679  -0.084146  0  3.957025  0
C  C60  1  0.23053325  0.76370718  0.58794751  1  0  -0.081528  0  3.783486  0  0  -0.054936  0  4.013359  0  0  -0.065168  0  4.037787  0  -0.008872  0  -0.025955  -0.048351  0  3.997521  0
C  C61  1  0.76946521  0.23629535  0.41205396  1  0  -0.081625  0  3.783499  0  0  -0.05498  0  4.013347  0  0  -0.06522  0  4.037778  0  -0.00883  0  -0.02592  -0.048406  0  3.997522  0
C  C62  1  0.13431729  0.83661044  0.64617328  1  0  0.621243  0  3.940693  0  0  0.576996  0  4.225779  0  0  0.610472  0  4.219513  0  1.543953  0  0.193976  0.554012  0  4.229431  0
C  C63  1  0.86568214  0.16339209  0.35382989  1  0  0.621289  0  3.94074  0  0  0.577014  0  4.225867  0  0  0.610492  0  4.219601  0  1.543838  0  0.193979  0.554032  0  4.229519  0
C  C64  1  0.37361800  0.83245738  0.63807341  1  0  -0.070682  0  3.712791  0  0  -0.1029  0  3.950744  0  0  -0.100147  0  3.970454  0  -0.082464  0  -0.078196  -0.104951  0  3.938573  0
C  C65  1  0.62637948  0.16754516  0.36192877  1  0  -0.070666  0  3.71283  0  0  -0.102907  0  3.950786  0  0  -0.100153  0  3.970494  0  -0.082341  0  -0.078251  -0.104957  0  3.938615  0
C  C66  1  0.79466439  0.80255134  0.86995666  1  0  0.169389  0  3.633106  0  0  0.093157  0  3.890252  0  0  0.106957  0  3.902588  0  0.976332  0  0.167284  0.083943  0  3.88206  0
C  C67  1  0.20533398  0.19744789  0.13004212  1  0  0.169369  0  3.633162  0  0  0.093126  0  3.890312  0  0  0.106925  0  3.902651  0  0.976438  0  0.167285  0.083913  0  3.882121  0
C  C68  1  0.01280164  0.84083067  0.90273794  1  0  0.202747  0  3.689366  0  0  0.147914  0  3.976482  0  0  0.158787  0  3.990392  0  0.991872  0  0.147005  0.14089  0  3.96649  0
C  C69  1  0.98719708  0.15916966  0.09726124  1  0  0.202636  0  3.689192  0  0  0.1478  0  3.976325  0  0  0.158672  0  3.990234  0  0.991954  0  0.146937  0.140778  0  3.966335  0
C  C70  1  0.74581582  0.71034491  0.02358321  1  0  -0.053431  0  3.627183  0  0  -0.132086  0  3.877922  0  0  -0.128336  0  3.8884  0  0.244242  0  -0.047955  -0.134497  0  3.870946  0
C  C71  1  0.25418575  0.28965212  0.97641597  1  0  -0.053453  0  3.627224  0  0  -0.132045  0  3.877916  0  0  -0.128293  0  3.888393  0  0.244169  0  -0.047959  -0.134457  0  3.870941  0
C  C72  1  0.60241056  0.61853155  0.94164804  1  0  -0.053237  0  3.733627  0  0  -0.048036  0  3.987562  0  0  -0.050998  0  4.013552  0  -0.006206  0  -0.021837  -0.046074  0  3.970138  0
C  C73  1  0.39759038  0.38146658  0.05835064  1  0  -0.053243  0  3.733661  0  0  -0.048096  0  3.987661  0  0  -0.051062  0  4.013648  0  -0.006137  0  -0.021858  -0.046132  0  3.970237  0
C  C74  1  0.57671123  0.47070795  0.86019222  1  0  0.050064  0  3.702836  0  0  0.059946  0  3.954354  0  0  0.059242  0  3.980126  0  -0.001428  0  -0.012999  0.059851  0  3.937485  0
C  C75  1  0.42328909  0.52929128  0.13980755  1  0  0.050126  0  3.702787  0  0  0.059959  0  3.954409  0  0  0.059271  0  3.980161  0  -0.001423  0  -0.012996  0.059864  0  3.93754  0
C  C76  1  0.68786417  0.40184545  0.86054061  1  0  -0.331969  0  3.730167  0  0  -0.413696  0  3.969351  0  0  -0.416024  0  3.980348  0  -0.089339  0  -0.242568  -0.411561  0  3.961773  0
C  C77  1  0.31213748  0.59815488  0.13946046  1  0  -0.331982  0  3.730128  0  0  -0.41369  0  3.969317  0  0  -0.416023  0  3.98031  0  -0.089283  0  -0.242562  -0.411554  0  3.96174  0
C  C78  1  0.44820027  0.38981015  0.77365062  1  0  0.051723  0  3.694561  0  0  0.064379  0  3.94278  0  0  0.06338  0  3.968367  0  -0.045278  0  -0.014221  0.064998  0  3.925802  0
C  C79  1  0.55180032  0.61018688  0.22634686  1  0  0.051637  0  3.694719  0  0  0.064318  0  3.942965  0  0  0.063312  0  3.96855  0  -0.045091  0  -0.014239  0.064935  0  3.925986  0
C  C80  1  0.41902839  0.23166774  0.68617075  1  0  -0.34137  0  3.725833  0  0  -0.42226  0  3.96344  0  0  -0.425068  0  3.97481  0  -0.058717  0  -0.248589  -0.420062  0  3.955759  0
C  C81  1  0.58097291  0.76833149  0.31382912  1  0  -0.34149  0  3.725783  0  0  -0.422365  0  3.963421  0  0  -0.425177  0  3.974792  0  -0.058811  0  -0.248637  -0.420167  0  3.95574  0
C  C82  1  0.34777131  0.45838748  0.77059113  1  0  -0.040997  0  3.689576  0  0  -0.036438  0  3.939271  0  0  -0.039194  0  3.964651  0  -0.075548  0  -0.019263  -0.034811  0  3.92249  0
C  C83  1  0.65222776  0.54161395  0.22941004  1  0  -0.040893  0  3.689495  0  0  -0.036377  0  3.939208  0  0  -0.039134  0  3.964594  0  -0.075459  0  -0.019205  -0.034749  0  3.922429  0
C  C84  1  0.37073113  0.60276487  0.85635431  1  0  0.057034  0  3.707635  0  0  0.069721  0  3.952712  0  0  0.068945  0  3.978218  0  0.030617  0  -0.012378  0.070112  0  3.935306  0
C  C85  1  0.62927176  0.39723326  0.14364696  1  0  0.057114  0  3.707464  0  0  0.069781  0  3.952574  0  0  0.069004  0  3.978081  0  0.030547  0  -0.012379  0.070172  0  3.935167  0
C  C86  1  0.26167672  0.67433809  0.85830292  1  0  -0.345048  0  3.74485  0  0  -0.425428  0  3.986096  0  0  -0.427884  0  3.996745  0  -0.053536  0  -0.249754  -0.423228  0  3.978464  0
C  C87  1  0.73832422  0.32566003  0.14169736  1  0  -0.345118  0  3.744903  0  0  -0.425516  0  3.986181  0  0  -0.427969  0  3.996834  0  -0.053507  0  -0.249747  -0.423319  0  3.97855  0
C  C88  1  0.50056833  0.68484628  0.94085739  1  0  0.047229  0  3.721528  0  0  0.059415  0  3.968406  0  0  0.058497  0  3.993919  0  -0.024899  0  -0.015634  0.060362  0  3.950701  0
C  C89  1  0.49943163  0.31515185  0.05914279  1  0  0.047162  0  3.721629  0  0  0.059418  0  3.968438  0  0  0.0585  0  3.993954  0  -0.02489  0  -0.015633  0.060365  0  3.950734  0
C  C90  1  0.52770960  0.84448387  0.02155358  1  0  -0.346379  0  3.729795  0  0  -0.428232  0  3.967447  0  0  -0.43054  0  3.977365  0  -0.125007  0  -0.247988  -0.426339  0  3.960804  0
C  C91  1  0.47229267  0.15551536  0.97844799  1  0  -0.346319  0  3.729809  0  0  -0.428165  0  3.967446  0  0  -0.430466  0  3.977366  0  -0.124902  0  -0.247935  -0.426277  0  3.960799  0
C  C92  1  0.21716049  0.38008149  0.66874494  1  0  -0.052032  0  3.63136  0  0  -0.128688  0  3.876417  0  0  -0.124542  0  3.885839  0  0.268604  0  -0.045281  -0.131279  0  3.870365  0
C  C93  1  0.78284178  0.61991774  0.33125264  1  0  -0.052044  0  3.63145  0  0  -0.128604  0  3.876439  0  0  -0.12445  0  3.885855  0  0.268533  0  -0.04527  -0.131203  0  3.870381  0
C  C94  1  0.07034210  0.13766995  0.65277916  1  0  0.178215  0  3.643267  0  0  0.098054  0  3.910287  0  0  0.112347  0  3.922328  0  1.009385  0  0.167171  0.08893  0  3.90179  0
C  C95  1  0.92965787  0.86232818  0.34721783  1  0  0.17812  0  3.643324  0  0  0.098013  0  3.910313  0  0  0.112303  0  3.922358  0  1.009384  0  0.167171  0.088893  0  3.901814  0
C  C96  1  0.93716651  0.21616752  0.76075031  1  0  0.211269  0  3.697764  0  0  0.15394  0  3.991861  0  0  0.166368  0  4.002937  0  1.016083  0  0.154566  0.145643  0  3.984289  0
C  C97  1  0.06282592  0.78382841  0.23923961  1  0  0.211246  0  3.697673  0  0  0.153927  0  3.991706  0  0  0.166351  0  4.002791  0  1.016273  0  0.154619  0.145623  0  3.984141  0
N  N98  1  0.90590866  0.84933499  0.83279322  1  0  -0.4152  0  3.291552  0  0  -0.335145  0  3.604207  0  0  -0.357091  0  3.613457  0  -1.245829  0  -0.350999  -0.320245  0  3.597702  0
N  N99  1  0.09409139  0.15066645  0.16720726  1  0  -0.415147  0  3.291515  0  0  -0.335085  0  3.604172  0  0  -0.357031  0  3.613424  0  -1.24596  0  -0.350993  -0.320187  0  3.597669  0
N  N100  1  0.97316420  0.79167762  0.98025850  1  0  -0.260985  0  2.821348  0  0  -0.260747  0  3.08476  0  0  -0.269014  0  3.098592  0  -0.653347  0  -0.215792  -0.254942  0  3.075234  0
N  N101  1  0.02683585  0.20832381  0.01974118  1  0  -0.260912  0  2.821155  0  0  -0.260682  0  3.084572  0  0  -0.268948  0  3.098406  0  -0.65337  0  -0.215747  -0.254878  0  3.075047  0
N  N102  1  0.83437511  0.76787126  0.95775536  1  0  0.060625  0  3.527167  0  0  0.182395  0  3.71183  0  0  0.173359  0  3.733055  0  -0.811287  0  -0.122993  0.187787  0  3.698333  0
N  N103  1  0.16562521  0.23212797  0.04224442  1  0  0.060604  0  3.527202  0  0  0.182377  0  3.711856  0  0  0.173341  0  3.733083  0  -0.811303  0  -0.122997  0.187771  0  3.698358  0
N  N104  1  0.96470113  0.09159646  0.69615047  1  0  -0.416186  0  3.282391  0  0  -0.336901  0  3.596263  0  0  -0.358828  0  3.604273  0  -1.247852  0  -0.353072  -0.32189  0  3.590362  0
N  N105  1  0.03529423  0.90839947  0.30384134  1  0  -0.416205  0  3.282404  0  0  -0.336905  0  3.59621  0  0  -0.358834  0  3.604226  0  -1.247915  0  -0.35309  -0.321894  0  3.59031  0
N  N106  1  0.02034141  0.33545916  0.75963066  1  0  -0.267475  0  2.830568  0  0  -0.265289  0  3.096008  0  0  -0.273966  0  3.108456  0  -0.698197  0  -0.216584  -0.259769  0  3.087933  0
N  N107  1  0.97965395  0.66453677  0.24036115  1  0  -0.26756  0  2.830446  0  0  -0.265341  0  3.095905  0  0  -0.274024  0  3.108357  0  -0.698627  0  -0.216684  -0.259819  0  3.087832  0
N  N108  1  0.10405500  0.28276411  0.69022339  1  0  0.059586  0  3.54199  0  0  0.177322  0  3.732886  0  0  0.168641  0  3.753531  0  -0.799604  0  -0.126999  0.182756  0  3.719166  0
N  N109  1  0.89594434  0.71723512  0.30977230  1  0  0.059752  0  3.541899  0  0  0.177353  0  3.732912  0  0  0.168692  0  3.753523  0  -0.799285  0  -0.126924  0.182786  0  3.719195  0
O  O110  1  0.70060613  0.77927237  0.59103666  1  0  -0.66074  0  2.043981  0  0  -0.584912  0  2.310438  0  0  -0.613305  0  2.29608  0  -1.179035  0  -0.337675  -0.563817  0  2.320874  0
O  O111  1  0.29939143  0.22073347  0.40897061  1  0  -0.660939  0  2.043831  0  0  -0.585  0  2.310195  0  0  -0.613395  0  2.295839  0  -1.179168  0  -0.337729  -0.563904  0  2.32063  0
O  O112  1  0.66243150  0.96118700  0.74079882  1  0  -0.621865  0  1.878379  0  0  -0.578125  0  2.094297  0  0  -0.599941  0  2.084938  0  -1.176884  0  -0.333771  -0.562159  0  2.099705  0
O  O113  1  0.33756500  0.03881553  0.25920565  1  0  -0.621813  0  1.878362  0  0  -0.578092  0  2.094334  0  0  -0.599909  0  2.084976  0  -1.176909  0  -0.333772  -0.562125  0  2.099742  0
O  O114  1  0.00501384  0.78128174  0.58652328  1  0  -0.649853  0  2.015039  0  0  -0.579371  0  2.282051  0  0  -0.607852  0  2.269548  0  -1.177433  0  -0.337853  -0.55826  0  2.29139  0
O  O115  1  0.99498594  0.21872189  0.41348029  1  0  -0.649865  0  2.014992  0  0  -0.579391  0  2.282029  0  0  -0.607872  0  2.269524  0  -1.177454  0  -0.337891  -0.558279  0  2.291366  0
O  O116  1  0.18043323  0.94568017  0.74819373  1  0  -0.641035  0  1.95823  0  0  -0.596005  0  2.195253  0  0  -0.61841  0  2.186198  0  -1.200849  0  -0.327646  -0.579393  0  2.200376  0
O  O117  1  0.81956744  0.05432016  0.25180884  1  0  -0.64102  0  1.958222  0  0  -0.595993  0  2.19526  0  0  -0.618397  0  2.186203  0  -1.200768  0  -0.327614  -0.57938  0  2.200382  0
