# generated using pymatgen
data_Zn4H39C72(N5O2)5
_symmetry_space_group_name_H-M   'P 1'
_cell_length_a   20.26891042
_cell_length_b   20.04306516
_cell_length_c   20.66230260
_cell_angle_alpha   106.85442452
_cell_angle_beta   104.48339038
_cell_angle_gamma   112.69752285
_symmetry_Int_Tables_number   1
_chemical_formula_structural   Zn4H39C72(N5O2)5
_chemical_formula_sum   'Zn4 H39 C72 N25 O10'
_cell_volume   6759.87133155
_cell_formula_units_Z   1
loop_
 _symmetry_equiv_pos_site_id
 _symmetry_equiv_pos_as_xyz
  1  'x, y, z'
loop_
 _atom_site_type_symbol
 _atom_site_label
 _atom_site_symmetry_multiplicity
 _atom_site_fract_x
 _atom_site_fract_y
 _atom_site_fract_z
 _atom_site_occupancy
 _atom_site_pbe_bader_charge
 _atom_site_pbe_bader_spin_density
 _atom_site_pbe_cm5_charge
 _atom_site_pbe_ddec_charge
 _atom_site_pbe_ddec_spin_density
 _atom_site_pbe_ddec_sum_bond_order
 _atom_site_pbe_magmom
Zn  Zn0  1  0.62087093  0.60469589  0.49504266  1  1.195099  0  0.765513  0.6903  0  2.234729  0
Zn  Zn1  1  0.39595920  0.38430155  0.49183026  1  1.225405  0  0.722703  0.641506  0  2.400753  0
Zn  Zn2  1  0.51991245  0.58740989  0.61131672  1  1.196922  0  0.765205  0.689527  0  2.226665  0
Zn  Zn3  1  0.50341135  0.40617763  0.38341933  1  1.194688  0  0.753483  0.653252  0  2.329102  0
H  H4  1  0.44022849  0.27145594  0.54417902  1  0.077637  0  0.119169  0.113101  0  0.995626  0
H  H5  1  0.54043342  0.56976254  0.77480828  1  0.123758  0  0.125767  0.121587  0  0.976822  0
H  H6  1  0.75483426  0.57856579  0.57943761  1  0.105067  0  0.122923  0.117445  0  0.999377  0
H  H7  1  0.56679541  0.28500847  0.40369138  1  0.079434  0  0.117696  0.105137  0  1.00829  0
H  H8  1  0.64572159  0.74835730  0.75504620  1  0.070496  0  0.121802  0.109227  0  0.990717  0
H  H9  1  0.57521928  0.65102717  0.33666030  1  0.135154  0  0.124015  0.117483  0  0.99465  0
H  H10  1  0.39903072  0.63086983  0.52330403  1  0.117356  0  0.120359  0.118764  0  1.003338  0
H  H11  1  0.34738117  0.27656617  0.21774558  1  0.088562  0  0.119579  0.106394  0  0.992082  0
H  H12  1  0.22521915  0.30427955  0.35910555  1  0.089566  0  0.121017  0.107772  0  1.006944  0
H  H13  1  0.37390303  0.42554672  0.27940361  1  0.136181  0  0.115252  0.10263  0  1.050533  0
H  H14  1  0.38325923  0.60561374  0.67203839  1  0.106952  0  0.126355  0.119451  0  0.977471  0
H  H15  1  0.99626275  0.52458068  0.68332771  1  0.083821  0  0.100183  0.087027  0  0.991069  0
H  H16  1  0.02248981  0.39239491  0.64603449  1  0.050855  0  0.097909  0.084406  0  0.996237  0
H  H17  1  0.10671022  0.60064763  0.63079496  1  0.048779  0  0.099719  0.086819  0  0.992041  0
H  H18  1  0.98355756  0.52664571  0.48740877  1  0.038489  0  0.100649  0.088737  0  0.989098  0
H  H19  1  0.01022033  0.39388136  0.45040484  1  0.051046  0  0.099597  0.086481  0  0.988756  0
H  H20  1  0.89983338  0.31814182  0.50330320  1  0.053544  0  0.100343  0.08793  0  0.992608  0
H  H21  1  0.60074816  0.04384469  0.48908334  1  0.068542  0  0.098089  0.084944  0  0.994432  0
H  H22  1  0.53903105  0.97916434  0.57991928  1  0.067607  0  0.09844  0.084621  0  0.994034  0
H  H23  1  0.49905207  0.89107232  0.36511729  1  0.069131  0  0.100736  0.095094  0  0.990399  0
H  H24  1  0.38326167  0.93673195  0.33316428  1  0.074757  0  0.100841  0.0885  0  0.991184  0
H  H25  1  0.32158405  0.87246319  0.42357895  1  0.076035  0  0.098054  0.084784  0  0.994934  0
H  H26  1  0.42243284  0.02453237  0.54742735  1  0.052178  0  0.097736  0.083804  0  0.994775  0
H  H27  1  0.50875913  0.51220384  0.86199382  1  0.135147  0  0.119377  0.132631  0  0.979883  0
H  H28  1  0.27162950  0.39978702  0.69824252  1  0.104418  0  0.109508  0.116818  0  1.006142  0
H  H29  1  0.32180613  0.40375308  0.02870090  1  0.11487  0  0.120218  0.129227  0  0.978748  0
H  H30  1  0.22387335  0.40704116  0.79791061  1  0.102871  0  0.120895  0.130941  0  0.963384  0
H  H31  1  0.37244538  0.41332765  0.15543023  1  0.073844  0  0.110753  0.111764  0  0.990354  0
H  H32  1  0.24255968  0.27116241  0.12579616  1  0.031  0  0.095832  0.093272  0  1.014889  0
H  H33  1  0.12132561  0.19756872  0.00953336  1  0.102135  0  0.106348  0.107207  0  1.010658  0
H  H34  1  0.98718723  0.01421934  0.82007839  1  0.09809  0  0.1126  0.117193  0  0.982648  0
H  H35  1  0.88694515  0.87746331  0.72217210  1  0.071214  0  0.105715  0.108354  0  0.99186  0
H  H36  1  0.10366683  0.19902433  0.24610432  1  0.072974  0  0.10411  0.106643  0  0.993121  0
H  H37  1  0.98251129  0.12722829  0.12922040  1  0.108713  0  0.114738  0.120801  0  0.978567  0
H  H38  1  0.78904839  0.74626357  0.63128750  1  0.085052  0  0.11723  0.102535  0  0.997532  0
H  H39  1  0.23766802  0.38928103  0.46632209  1  0.088252  0  0.121576  0.11345  0  0.999018  0
H  H40  1  0.59314473  0.75319336  0.47212841  1  0.112001  0  0.126149  0.118455  0  0.977564  0
H  H41  1  0.66067857  0.37801403  0.36666002  1  0.101411  0  0.125907  0.115468  0  0.974702  0
H  H42  1  0.72484951  0.88513405  0.82244948  1  0.089763  0  0.114143  0.125438  0  0.992129  0
C  C43  1  0.74420709  0.73379511  0.65295522  1  0.393841  0  0.008916  -0.04926  0  3.993247  0
C  C44  1  0.47001074  0.28639154  0.50929672  1  0.437039  0  0.01181  -0.039424  0  3.926968  0
C  C45  1  0.49726624  0.51466926  0.72534212  1  0.353303  0  0.010822  -0.059717  0  3.945906  0
C  C46  1  0.67298263  0.42974831  0.41382689  1  0.436691  0  0.022107  -0.030765  0  3.943805  0
C  C47  1  0.39547755  0.40066479  0.64012826  1  0.803935  0  0.182111  0.084724  0  3.97448  0
C  C48  1  0.72158555  0.53198281  0.52293404  1  0.416214  0  0.017961  -0.035552  0  3.931179  0
C  C49  1  0.53467155  0.29321990  0.43730681  1  0.434259  0  0.013808  -0.046097  0  3.937931  0
C  C50  1  0.67115900  0.73539735  0.71581930  1  0.41216  0  0.010623  -0.04517  0  3.966605  0
C  C51  1  0.74218662  0.78472030  0.71503152  1  0.048933  0  -0.035521  -0.039389  0  4.083001  0
C  C52  1  0.50422054  0.24723559  0.47349474  1  0.077487  0  -0.026857  0.053514  0  4.197493  0
C  C53  1  0.42575920  0.45425562  0.71598714  1  0.04449  0  -0.009966  -0.0495  0  4.005717  0
C  C54  1  0.73603363  0.47241776  0.48463325  1  0.142325  0  -0.025505  0.052729  0  4.177803  0
C  C55  1  0.53405282  0.59443875  0.33288142  1  0.435245  0  0.021373  -0.015272  0  3.959085  0
C  C56  1  0.28505841  0.44357051  0.51402811  1  0.427208  0  0.011195  -0.048496  0  3.955816  0
C  C57  1  0.45215913  0.65284376  0.51409381  1  0.401688  0  0.009181  -0.046697  0  3.927832  0
C  C58  1  0.32933384  0.29049983  0.26289238  1  0.377454  0  0.008272  -0.056958  0  4.011099  0
C  C59  1  0.26701787  0.30435608  0.33495072  1  0.41845  0  0.01325  -0.039556  0  3.96324  0
C  C60  1  0.55219959  0.71581023  0.48866500  1  0.425229  0  0.020761  -0.031385  0  3.933077  0
C  C61  1  0.43080890  0.47890412  0.30297511  1  0.368082  0  0.010613  -0.034656  0  3.964812  0
C  C62  1  0.35922452  0.55375150  0.61977963  1  0.396521  0  0.018671  -0.049795  0  3.953807  0
C  C63  1  0.45463255  0.54201877  0.28212258  1  0.05963  0  -0.038631  -0.050844  0  4.05362  0
C  C64  1  0.28050083  0.49335904  0.57488686  1  0.136263  0  -0.032187  0.042221  0  4.209443  0
C  C65  1  0.48150400  0.71206740  0.48943166  1  0.073508  0  -0.026186  0.054269  0  4.191062  0
C  C66  1  0.25439247  0.27499189  0.25981310  1  0.005272  0  -0.03494  -0.046373  0  4.088525  0
C  C67  1  0.01350493  0.42219106  0.61057920  1  -0.017868  0  -0.07243  -0.081048  0  3.636946  0
C  C68  1  0.99969518  0.49581061  0.63145016  1  -0.04357  0  -0.071821  -0.077781  0  3.633858  0
C  C69  1  0.80041491  0.46112109  0.51034872  1  -0.132461  0  -0.065377  -0.119669  0  4.204778  0
C  C70  1  0.21218556  0.48401101  0.58553303  1  -0.287014  0  -0.071961  -0.127149  0  4.22467  0
C  C71  1  0.94609710  0.38103780  0.53140076  1  -0.021713  0  -0.073123  -0.080701  0  3.636754  0
C  C72  1  0.93088844  0.45490305  0.55165814  1  0.087391  0  0.005058  0.13365  0  3.794194  0
C  C73  1  0.00591768  0.42295740  0.50164572  1  -0.011849  0  -0.07167  -0.07428  0  3.637067  0
C  C74  1  0.07521591  0.46453743  0.58102967  1  0.116321  0  0.003487  0.132374  0  3.803834  0
C  C75  1  0.99336389  0.49701892  0.52273662  1  0.007396  0  -0.072765  -0.077578  0  3.636383  0
C  C76  1  0.05979464  0.53803919  0.60202200  1  -0.019799  0  -0.072668  -0.077916  0  3.639867  0
C  C77  1  0.85832879  0.45440623  0.53237993  1  -0.234957  0  -0.059491  -0.131483  0  4.133747  0
C  C78  1  0.14966881  0.47236471  0.58900925  1  -0.0928  0  -0.060775  -0.131801  0  4.140194  0
C  C79  1  0.50487222  0.97107516  0.52528877  1  -0.028856  0  -0.074243  -0.077637  0  3.641983  0
C  C80  1  0.53878135  0.00504423  0.47473346  1  -0.054686  0  -0.075008  -0.083041  0  3.642921  0
C  C81  1  0.50005131  0.17416725  0.46894798  1  0.126372  0  -0.069727  -0.127149  0  4.220856  0
C  C82  1  0.45474422  0.76309006  0.47358213  1  -0.263117  0  -0.070653  -0.13035  0  4.204308  0
C  C83  1  0.43952781  0.99413811  0.50717096  1  -0.017109  0  -0.073988  -0.079043  0  3.644865  0
C  C84  1  0.47417931  0.03094884  0.45721217  1  0.12459  0  0.003164  0.131886  0  3.80763  0
C  C85  1  0.38376738  0.91089197  0.43837625  1  -0.04161  0  -0.072206  -0.080298  0  3.638493  0
C  C86  1  0.44881229  0.88573217  0.45661712  1  0.132749  0  0.004779  0.133536  0  3.79714  0
C  C87  1  0.41780430  0.94572160  0.38806965  1  -0.043694  0  -0.072554  -0.078307  0  3.627512  0
C  C88  1  0.48281808  0.92194911  0.40591661  1  -0.002533  0  -0.071416  -0.074804  0  3.619703  0
C  C89  1  0.48818327  0.10733119  0.46160696  1  -0.48018  0  -0.061784  -0.131002  0  4.153368  0
C  C90  1  0.44469833  0.81537193  0.46163409  1  -0.054844  0  -0.053706  -0.113418  0  4.128956  0
C  C91  1  0.41161053  0.53902767  0.21208361  1  0.057035  0  0.016929  0.072468  0  3.9613  0
C  C92  1  0.37281415  0.46518062  0.14818351  1  -0.057128  0  -0.067748  -0.087454  0  3.932865  0
C  C93  1  0.34331866  0.45883508  0.07743241  1  0.055466  0  -0.067417  -0.112697  0  3.931293  0
C  C94  1  0.35078906  0.52704180  0.06650298  1  0.447145  0  0.104199  0.132437  0  4.029128  0
C  C95  1  0.37872922  0.59861203  0.12938381  1  0.259988  0  0.094797  -0.023737  0  3.863574  0
C  C96  1  0.40843554  0.60403407  0.20051062  1  0.257121  0  0.093015  -0.003166  0  3.874931  0
C  C97  1  0.41892846  0.49494373  0.90205306  1  0.185492  0  0.084587  0.016897  0  3.908029  0
C  C98  1  0.44629079  0.49043252  0.84667966  1  0.009603  0  -0.074859  -0.164174  0  3.93047  0
C  C99  1  0.33823284  0.46518089  0.88573898  1  0.38572  0  0.103728  0.127497  0  4.047926  0
C  C100  1  0.39390250  0.45528979  0.77213222  1  0.005477  0  0.003594  0.109015  0  4.018126  0
C  C101  1  0.31326559  0.42568986  0.75537294  1  -0.0036  0  -0.076922  -0.10693  0  3.940145  0
C  C102  1  0.28614264  0.42966592  0.81102396  1  0.037587  0  -0.068113  -0.116442  0  3.930821  0
C  C103  1  0.79920112  0.86793822  0.76666351  1  0.035159  0  0.000979  0.106078  0  4.037204  0
C  C104  1  0.78225921  0.91125900  0.82094276  1  0.019799  0  -0.078439  -0.165836  0  3.928324  0
C  C105  1  0.83812225  0.98822225  0.87400895  1  0.180717  0  0.084426  0.022309  0  3.909435  0
C  C106  1  0.91465320  0.02531305  0.87696110  1  0.427857  0  0.097281  0.128511  0  4.047584  0
C  C107  1  0.92858876  0.98497172  0.81855106  1  -0.090806  0  -0.076164  -0.124175  0  3.968437  0
C  C108  1  0.87249748  0.90800191  0.76471199  1  0.004663  0  -0.087669  -0.126113  0  3.975723  0
C  C109  1  0.11846466  0.19901191  0.06182972  1  -0.008664  0  -0.081826  -0.12693  0  3.964541  0
C  C110  1  0.18559218  0.23897545  0.12664278  1  -0.060112  0  -0.092611  -0.130608  0  3.994287  0
C  C111  1  0.04486196  0.15658156  0.06249564  1  0.385628  0  0.084047  0.16225  0  4.049021  0
C  C112  1  0.18224816  0.23823978  0.19403158  1  0.059441  0  -0.00153  0.098126  0  4.028681  0
C  C113  1  0.10795841  0.20012775  0.19481658  1  -0.074418  0  -0.090266  -0.131866  0  3.981305  0
C  C114  1  0.04018830  0.15997584  0.13002363  1  -0.045176  0  -0.073332  -0.123486  0  3.953545  0
N  N115  1  0.67937454  0.66093692  0.61867588  1  -0.772413  0  -0.2641  -0.214928  0  3.447989  0
N  N116  1  0.47766613  0.34890676  0.49347239  1  -0.789423  0  -0.28394  -0.200757  0  3.608206  0
N  N117  1  0.50725432  0.49847208  0.66067184  1  -0.670632  0  -0.233377  -0.164272  0  3.407319  0
N  N118  1  0.62540458  0.46149362  0.40983890  1  -0.756005  0  -0.275195  -0.206587  0  3.491429  0
N  N119  1  0.44534116  0.42810659  0.60972205  1  -0.719643  0  -0.245374  -0.205072  0  3.584474  0
N  N120  1  0.65595084  0.52505773  0.47780601  1  -0.826653  0  -0.291318  -0.213846  0  3.675674  0
N  N121  1  0.51775918  0.35331395  0.44962531  1  -0.773946  0  -0.284573  -0.18327  0  3.64207  0
N  N122  1  0.63436531  0.66227550  0.65843350  1  -0.789236  0  -0.279007  -0.176787  0  3.610935  0
N  N123  1  0.55559614  0.56361591  0.37824446  1  -0.781542  0  -0.268044  -0.197873  0  3.479607  0
N  N124  1  0.36011018  0.47135252  0.52217200  1  -0.788104  0  -0.272422  -0.21491  0  3.512863  0
N  N125  1  0.50236821  0.62448164  0.52777470  1  -0.797016  0  -0.284967  -0.23214  0  3.579571  0
N  N126  1  0.38190288  0.32670290  0.33362265  1  -0.782859  0  -0.267894  -0.184789  0  3.510342  0
N  N127  1  0.34308527  0.33574434  0.37851808  1  -0.797207  0  -0.266943  -0.172788  0  3.537885  0
N  N128  1  0.56381825  0.66408936  0.51229522  1  -0.809514  0  -0.290206  -0.186044  0  3.663226  0
N  N129  1  0.49130682  0.49244483  0.36049264  1  -0.819874  0  -0.286963  -0.205909  0  3.609064  0
N  N130  1  0.40533058  0.53949195  0.58769975  1  -0.80149  0  -0.279077  -0.18142  0  3.65143  0
N  N131  1  0.35337702  0.52982815  0.00054600  1  -0.448036  0  -0.124993  -0.081604  0  3.346208  0
N  N132  1  0.30962636  0.46633587  0.94087073  1  -0.448033  0  -0.133876  -0.109387  0  3.248957  0
N  N133  1  0.98166292  0.09125253  0.93755228  1  -0.467307  0  -0.158341  -0.146162  0  3.28733  0
N  N134  1  0.97507181  0.10192796  0.99890632  1  -0.506073  0  -0.148817  -0.123875  0  3.297406  0
N  N135  1  0.47759269  0.52364801  0.97693764  1  0.394976  0  0.054044  0.513423  0  4.247237  0
N  N136  1  0.37965018  0.66744098  0.11720948  1  0.39182  0  0.057928  0.521631  0  4.2195  0
N  N137  1  0.43176642  0.67740325  0.26550029  1  0.4364  0  0.062059  0.518486  0  4.25581  0
N  N138  1  0.81268077  0.03070042  0.92455395  1  0.421492  0  0.055572  0.518828  0  4.261363  0
N  N139  1  0.32478802  0.32720039  0.59141248  1  0.263341  0  0.05447  0.501209  0  4.194653  0
O  O140  1  0.46439814  0.47834544  0.00797697  1  -0.464555  0  -0.143043  -0.340185  0  1.900066  0
O  O141  1  0.53835143  0.58835997  0.00127235  1  -0.429484  0  -0.137805  -0.328814  0  1.85904  0
O  O142  1  0.32859835  0.65176881  0.05858144  1  -0.42293  0  -0.128736  -0.317799  0  1.87174  0
O  O143  1  0.43177123  0.73557006  0.16484734  1  -0.443029  0  -0.132933  -0.323751  0  1.883544  0
O  O144  1  0.50163824  0.71807766  0.30901798  1  -0.437789  0  -0.109119  -0.311974  0  1.925398  0
O  O145  1  0.37832380  0.69016375  0.27189504  1  -0.423398  0  -0.108346  -0.297573  0  1.880714  0
O  O146  1  0.82698434  0.09876252  0.93108763  1  -0.446411  0  -0.144372  -0.334226  0  1.871218  0
O  O147  1  0.77448690  0.99335216  0.95290587  1  -0.465689  0  -0.151457  -0.348905  0  1.863844  0
O  O148  1  0.27914234  0.29296004  0.61577811  1  -0.426408  0  -0.115298  -0.300527  0  1.891229  0
O  O149  1  0.31112882  0.29941192  0.52272295  1  -0.517528  0  -0.153261  -0.355838  0  1.999871  0
