# generated using pymatgen
data_CdH26C30(N4O3)2
_symmetry_space_group_name_H-M   'P 1'
_cell_length_a   7.62588083
_cell_length_b   9.27208692
_cell_length_c   11.62074964
_cell_angle_alpha   78.16239809
_cell_angle_beta   70.55082075
_cell_angle_gamma   75.41441661
_symmetry_Int_Tables_number   1
_chemical_formula_structural   CdH26C30(N4O3)2
_chemical_formula_sum   'Cd1 H26 C30 N8 O6'
_cell_volume   743.16879091
_cell_formula_units_Z   1
loop_
 _symmetry_equiv_pos_site_id
 _symmetry_equiv_pos_as_xyz
  1  'x, y, z'
loop_
 _atom_site_type_symbol
 _atom_site_label
 _atom_site_symmetry_multiplicity
 _atom_site_fract_x
 _atom_site_fract_y
 _atom_site_fract_z
 _atom_site_occupancy
 _atom_site_hle17_bader_spin_density
 _atom_site_hle17_ddec_charge
 _atom_site_hle17_ddec_spin_density
 _atom_site_hle17_ddec_sum_bond_order
 _atom_site_hle17_magmom
 _atom_site_hse06_10hf_bader_spin_density
 _atom_site_hse06_10hf_ddec_charge
 _atom_site_hse06_10hf_ddec_spin_density
 _atom_site_hse06_10hf_ddec_sum_bond_order
 _atom_site_hse06_10hf_magmom
 _atom_site_hse06_bader_spin_density
 _atom_site_hse06_ddec_charge
 _atom_site_hse06_ddec_spin_density
 _atom_site_hse06_ddec_sum_bond_order
 _atom_site_hse06_magmom
 _atom_site_pbe_bader_spin_density
 _atom_site_pbe_cm5_charge
 _atom_site_pbe_ddec_charge
 _atom_site_pbe_ddec_spin_density
 _atom_site_pbe_ddec_sum_bond_order
 _atom_site_pbe_magmom
Cd  Cd0  1  0.50000207  0.00000133  0.99999931  1  0  1.169442  0  1.662371  0  0  0.984601  0  2.108385  0  0  1.040051  0  2.054133  0  0  0.767628  0.945062  0  2.145956  0
H  H1  1  0.92758587  0.46368352  0.09073193  1  0  0.102704  0  0.975371  0  0  0.10818  0  1.045619  0  0  0.111756  0  1.04303  0  0  0.103468  0.105886  0  1.046965  0
H  H2  1  0.07241359  0.53631827  0.90926771  1  0  0.102728  0  0.975348  0  0  0.108185  0  1.045623  0  0  0.111761  0  1.043034  0  0  0.103459  0.105891  0  1.046968  0
H  H3  1  0.96141469  0.24788439  0.25332608  1  0  0.118355  0  0.955426  0  0  0.128569  0  1.014881  0  0  0.132619  0  1.011866  0  0  0.10903  0.125554  0  1.017295  0
H  H4  1  0.03858199  0.75211738  0.74667589  1  0  0.118391  0  0.955416  0  0  0.128569  0  1.014907  0  0  0.132619  0  1.011894  0  0  0.109039  0.125555  0  1.017317  0
H  H5  1  0.35321538  0.29631691  0.39238711  1  0  0.114056  0  0.971901  0  0  0.118378  0  1.041073  0  0  0.12296  0  1.037454  0  0  0.103926  0.115229  0  1.043338  0
H  H6  1  0.64678100  0.70368597  0.60761302  1  0  0.114044  0  0.971846  0  0  0.118375  0  1.04101  0  0  0.122955  0  1.037392  0  0  0.103917  0.115226  0  1.043276  0
H  H7  1  0.31921314  0.51788442  0.23108189  1  0  0.101536  0  0.939301  0  0  0.113716  0  0.995761  0  0  0.116716  0  0.994174  0  0  0.108438  0.111534  0  0.997028  0
H  H8  1  0.68078355  0.48211733  0.76891751  1  0  0.101483  0  0.939299  0  0  0.11368  0  0.995743  0  0  0.116664  0  0.994175  0  0  0.108428  0.111496  0  0.997011  0
H  H9  1  0.56516451  0.23718207  0.70539946  1  0  0.147142  0  0.958052  0  0  0.163741  0  1.02164  0  0  0.166299  0  1.020796  0  0  0.103846  0.1618  0  1.022478  0
H  H10  1  0.43483984  0.76281190  0.29460131  1  0  0.147162  0  0.95803  0  0  0.163741  0  1.021664  0  0  0.166311  0  1.020794  0  0  0.103845  0.1618  0  1.022506  0
H  H11  1  0.41087232  0.29911684  0.61112614  1  0  0.13229  0  0.929512  0  0  0.152756  0  0.987502  0  0  0.154189  0  0.988261  0  0  0.101546  0.151772  0  0.9869  0
H  H12  1  0.58912774  0.70088271  0.38887461  1  0  0.132278  0  0.929496  0  0  0.152744  0  0.987489  0  0  0.154176  0  0.98825  0  0  0.101539  0.151761  0  0.986888  0
H  H13  1  0.62973039  0.35911055  0.56428257  1  0  0.130265  0  0.931346  0  0  0.151154  0  0.988887  0  0  0.152593  0  0.989185  0  0  0.101397  0.150206  0  0.988384  0
H  H14  1  0.37027166  0.64088677  0.43571813  1  0  0.130238  0  0.931361  0  0  0.151129  0  0.988904  0  0  0.152567  0  0.9892  0  0  0.101386  0.150181  0  0.988402  0
H  H15  1  0.10174458  0.79165340  0.28607719  1  0  0.106387  0  0.928822  0  0  0.11814  0  0.987482  0  0  0.120933  0  0.985365  0  0  0.113167  0.116021  0  0.989151  0
H  H16  1  0.89825747  0.20834391  0.71392351  1  0  0.106428  0  0.928801  0  0  0.11817  0  0.98748  0  0  0.120965  0  0.98536  0  0  0.11317  0.116031  0  0.989172  0
H  H17  1  0.16941337  0.70574633  0.08156772  1  0  0.121321  0  0.950704  0  0  0.127429  0  1.013971  0  0  0.130905  0  1.01305  0  0  0.11147  0.124831  0  1.014974  0
H  H18  1  0.83058098  0.29424863  0.91843334  1  0  0.121285  0  0.950711  0  0  0.12739  0  1.013989  0  0  0.130865  0  1.013067  0  0  0.11145  0.124791  0  1.014992  0
H  H19  1  0.93519915  0.81038425  0.96197641  1  0  0.08399  0  0.966775  0  0  0.090717  0  1.035829  0  0  0.092634  0  1.034767  0  0  0.115846  0.089292  0  1.036555  0
H  H20  1  0.06479905  0.18961190  0.03802532  1  0  0.083972  0  0.966714  0  0  0.090736  0  1.035741  0  0  0.092651  0  1.034677  0  0  0.115838  0.089309  0  1.03647  0
H  H21  1  0.58134856  0.06882460  0.23150764  1  0  0.073369  0  0.986923  0  0  0.076652  0  1.062268  0  0  0.079217  0  1.060313  0  0  0.113596  0.074776  0  1.063553  0
H  H22  1  0.41865704  0.93117502  0.76849276  1  0  0.073325  0  0.986949  0  0  0.076602  0  1.062309  0  0  0.079167  0  1.060351  0  0  0.113584  0.074724  0  1.063596  0
H  H23  1  0.27625435  0.06997875  0.25881440  1  0  0.388457  0  0.933549  0  0  0.345008  0  1.017921  0  0  0.356771  0  1.001287  0  0  0.274165  0.336606  0  1.029727  0
H  H24  1  0.72374801  0.93001745  0.74118642  1  0  0.388375  0  0.933655  0  0  0.344914  0  1.018041  0  0  0.356678  0  1.001407  0  0  0.274133  0.336513  0  1.029845  0
H  H25  1  0.27680481  0.20898165  0.14132006  1  0  0.408371  0  0.906775  0  0  0.375653  0  0.974134  0  0  0.38805  0  0.956217  0  0  0.277384  0.366763  0  0.986957  0
H  H26  1  0.72319448  0.79101563  0.85868039  1  0  0.408338  0  0.906832  0  0  0.375612  0  0.974205  0  0  0.388008  0  0.956289  0  0  0.277358  0.36672  0  0.98703  0
C  C27  1  0.60437007  0.63774219  0.05215542  1  0  0.647846  0  3.91778  0  0  0.594357  0  4.22008  0  0  0.628847  0  4.212436  0  0  0.204894  0.570602  0  4.224959  0
C  C28  1  0.39563109  0.36225849  0.94784318  1  0  0.647761  0  3.91785  0  0  0.594308  0  4.220108  0  0  0.628799  0  4.212462  0  0  0.204875  0.570553  0  4.224985  0
C  C29  1  0.62045178  0.50456926  0.14994851  1  0  -0.051394  0  3.724364  0  0  -0.028505  0  3.95445  0  0  -0.034974  0  3.976233  0  0  -0.012352  -0.023994  0  3.939833  0
C  C30  1  0.37954768  0.49543252  0.85005028  1  0  -0.051279  0  3.724236  0  0  -0.028413  0  3.954332  0  0  -0.034881  0  3.976108  0  0  -0.012339  -0.023905  0  3.939715  0
C  C31  1  0.80115505  0.42829316  0.15629886  1  0  -0.064031  0  3.735646  0  0  -0.083914  0  3.979394  0  0  -0.084305  0  3.99979  0  0  -0.082263  -0.083573  0  3.965062  0
C  C32  1  0.19884440  0.57170863  0.84370079  1  0  -0.064099  0  3.735619  0  0  -0.083962  0  3.979356  0  0  -0.084352  0  3.999751  0  0  -0.082276  -0.083621  0  3.965022  0
C  C33  1  0.82131309  0.30816908  0.24792833  1  0  -0.144366  0  3.736208  0  0  -0.164835  0  3.983973  0  0  -0.168545  0  4.003276  0  0  -0.089559  -0.162773  0  3.971102  0
C  C34  1  0.17868298  0.69183495  0.75207425  1  0  -0.144404  0  3.736268  0  0  -0.164843  0  3.984047  0  0  -0.168555  0  4.003353  0  0  -0.089543  -0.162782  0  3.971174  0
C  C35  1  0.65961203  0.26189834  0.33159074  1  0  0.170965  0  3.801621  0  0  0.167455  0  4.048409  0  0  0.172588  0  4.071717  0  0  0.085476  0.164085  0  4.032486  0
C  C36  1  0.34038466  0.73810342  0.66840952  1  0  0.171013  0  3.80157  0  0  0.167498  0  4.048364  0  0  0.172631  0  4.07167  0  0  0.085484  0.164127  0  4.03244  0
C  C37  1  0.47755735  0.33633079  0.32741159  1  0  -0.153391  0  3.726785  0  0  -0.171651  0  3.976564  0  0  -0.175215  0  3.994882  0  0  -0.09197  -0.168555  0  3.96334  0
C  C38  1  0.52244012  0.66367324  0.67258898  1  0  -0.153436  0  3.726687  0  0  -0.171706  0  3.976492  0  0  -0.175269  0  3.994803  0  0  -0.091996  -0.168611  0  3.963268  0
C  C39  1  0.45950648  0.45879873  0.23669390  1  0  -0.046423  0  3.723248  0  0  -0.067141  0  3.967081  0  0  -0.066715  0  3.986626  0  0  -0.077434  -0.067432  0  3.95357  0
C  C40  1  0.54049098  0.54120530  0.76330667  1  0  -0.046348  0  3.723122  0  0  -0.067071  0  3.966959  0  0  -0.066633  0  3.986504  0  0  -0.077403  -0.067359  0  3.953442  0
C  C41  1  0.56029167  0.26325054  0.60995645  1  0  -0.397326  0  3.716551  0  0  -0.477643  0  3.958687  0  0  -0.482516  0  3.966397  0  0  -0.231345  -0.474204  0  3.953227  0
C  C42  1  0.43970839  0.73674901  0.39004431  1  0  -0.3973  0  3.716532  0  0  -0.477614  0  3.958673  0  0  -0.482488  0  3.966385  0  0  -0.23134  -0.474178  0  3.953216  0
C  C43  1  0.65510719  0.13082701  0.54389340  1  0  0.373262  0  3.691773  0  0  0.345337  0  3.971516  0  0  0.359999  0  3.985703  0  0  0.229632  0.335701  0  3.961646  0
C  C44  1  0.34489288  0.86917252  0.45610563  1  0  0.373305  0  3.691755  0  0  0.345383  0  3.971491  0  0  0.360043  0  3.985682  0  0  0.229667  0.335747  0  3.961624  0
C  C45  1  0.78337922  0.98888523  0.39513339  1  0  0.264936  0  3.753386  0  0  0.228593  0  4.036726  0  0  0.241836  0  4.051535  0  0  0.223583  0.219935  0  4.026645  0
C  C46  1  0.21662639  0.01111438  0.60486529  1  0  0.265025  0  3.753307  0  0  0.228676  0  4.036633  0  0  0.241927  0  4.05143  0  0  0.223591  0.22002  0  4.026549  0
C  C47  1  0.83596154  0.93770033  0.27513458  1  0  -0.047241  0  3.796037  0  0  -0.024593  0  4.034019  0  0  -0.03136  0  4.056789  0  0  -0.000382  -0.020449  0  4.018715  0
C  C48  1  0.16404685  0.06229930  0.72486177  1  0  -0.047325  0  3.79604  0  0  -0.024662  0  4.034008  0  0  -0.03143  0  4.056775  0  0  -0.000414  -0.020517  0  4.018694  0
C  C49  1  0.00223938  0.83244052  0.23223117  1  0  -0.007661  0  3.651522  0  0  -0.03674  0  3.897716  0  0  -0.031915  0  3.913401  0  0  -0.051297  -0.039487  0  3.887084  0
C  C50  1  0.99776299  0.16755566  0.76776794  1  0  -0.00768  0  3.651612  0  0  -0.036773  0  3.897809  0  0  -0.03195  0  3.913493  0  0  -0.051282  -0.039505  0  3.887177  0
C  C51  1  0.03960263  0.78470518  0.11888052  1  0  -0.103841  0  3.706376  0  0  -0.116211  0  3.962582  0  0  -0.123491  0  3.983134  0  0  -0.076071  -0.111693  0  3.948648  0
C  C52  1  0.96039744  0.21529435  0.88111766  1  0  -0.103814  0  3.706411  0  0  -0.116169  0  3.962627  0  0  -0.123449  0  3.98318  0  0  -0.076084  -0.111648  0  3.948679  0
C  C53  1  0.91075901  0.84276776  0.05166840  1  0  0.132855  0  3.684569  0  0  0.098734  0  3.938153  0  0  0.106083  0  3.95771  0  0  0.046888  0.093831  0  3.924731  0
C  C54  1  0.08923858  0.15723062  0.94833223  1  0  0.132921  0  3.6845  0  0  0.098764  0  3.938111  0  0  0.106117  0  3.957663  0  0  0.046957  0.093861  0  3.92469  0
C  C55  1  0.71409681  0.98943558  0.20138557  1  0  0.090756  0  3.703228  0  0  0.052513  0  3.953115  0  0  0.05976  0  3.97097  0  0  0.048161  0.047596  0  3.94125  0
C  C56  1  0.28590879  0.01056404  0.79861397  1  0  0.090846  0  3.703244  0  0  0.052626  0  3.953101  0  0  0.059872  0  3.970961  0  0  0.048182  0.047709  0  3.941234  0
N  N57  1  0.68727372  0.13233262  0.42019225  1  0  -0.212669  0  3.484596  0  0  -0.131705  0  3.70107  0  0  -0.149527  0  3.723135  0  0  -0.214994  -0.119985  0  3.686175  0
N  N58  1  0.31272665  0.86766579  0.57980691  1  0  -0.212779  0  3.4846  0  0  -0.131813  0  3.701082  0  0  -0.149635  0  3.723144  0  0  -0.215025  -0.120092  0  3.686186  0
N  N59  1  0.72652152  0.99432097  0.59060276  1  0  -0.300932  0  3.033759  0  0  -0.25534  0  3.309598  0  0  -0.268769  0  3.323401  0  0  -0.217947  -0.246047  0  3.299902  0
N  N60  1  0.27347963  0.00567972  0.40939671  1  0  -0.300986  0  3.033864  0  0  -0.255401  0  3.309708  0  0  -0.26883  0  3.323514  0  0  -0.217958  -0.246108  0  3.300015  0
N  N61  1  0.80689389  0.90469265  0.49784838  1  0  -0.276691  0  2.914458  0  0  -0.270134  0  3.205576  0  0  -0.277576  0  3.217113  0  0  -0.235937  -0.26498  0  3.19741  0
N  N62  1  0.19310805  0.09531029  0.50214881  1  0  -0.276664  0  2.914469  0  0  -0.270095  0  3.205578  0  0  -0.27754  0  3.217114  0  0  -0.235924  -0.264941  0  3.19741  0
N  N63  1  0.74962519  0.94265887  0.09286510  1  0  -0.332939  0  3.258773  0  0  -0.254026  0  3.520255  0  0  -0.274099  0  3.539703  0  0  -0.326106  -0.24036  0  3.507099  0
N  N64  1  0.25037349  0.05734066  0.90713596  1  0  -0.332993  0  3.258794  0  0  -0.254107  0  3.520315  0  0  -0.274178  0  3.539759  0  0  -0.326132  -0.240441  0  3.507157  0
O  O65  1  0.47053958  0.74997713  0.08492751  1  0  -0.667761  0  1.997225  0  0  -0.602714  0  2.251368  0  0  -0.631731  0  2.24087  0  0  -0.33339  -0.582266  0  2.258181  0
O  O66  1  0.52946097  0.25002580  0.91507085  1  0  -0.66774  0  1.997292  0  0  -0.602705  0  2.251417  0  0  -0.63172  0  2.240915  0  0  -0.333369  -0.582256  0  2.258226  0
O  O67  1  0.72691034  0.62959398  0.94728203  1  0  -0.627193  0  1.957738  0  0  -0.573551  0  2.182388  0  0  -0.599518  0  2.174049  0  0  -0.319315  -0.555375  0  2.18782  0
O  O68  1  0.27308848  0.37039990  0.05271823  1  0  -0.627171  0  1.957724  0  0  -0.573555  0  2.182368  0  0  -0.599525  0  2.174028  0  0  -0.319325  -0.55538  0  2.187802  0
O  O69  1  0.27487305  0.09868129  0.17068809  1  0  -0.859734  0  1.920561  0  0  -0.790668  0  2.135221  0  0  -0.814517  0  2.099368  0  0  -0.599364  -0.773362  0  2.160292  0
O  O70  1  0.72512623  0.90131599  0.82931322  1  0  -0.859615  0  1.920621  0  0  -0.790526  0  2.135284  0  0  -0.814375  0  2.099435  0  0  -0.599306  -0.77322  0  2.160357  0
