# generated using pymatgen
data_LiH11C8S(NO)2
_symmetry_space_group_name_H-M   'P 1'
_cell_length_a   7.36495154
_cell_length_b   10.30754225
_cell_length_c   13.14340878
_cell_angle_alpha   108.15336571
_cell_angle_beta   89.99982702
_cell_angle_gamma   90.00019806
_symmetry_Int_Tables_number   1
_chemical_formula_structural   LiH11C8S(NO)2
_chemical_formula_sum   'Li4 H44 C32 S4 N8 O8'
_cell_volume   948.11260527
_cell_formula_units_Z   4
loop_
 _symmetry_equiv_pos_site_id
 _symmetry_equiv_pos_as_xyz
  1  'x, y, z'
loop_
 _atom_site_type_symbol
 _atom_site_label
 _atom_site_symmetry_multiplicity
 _atom_site_fract_x
 _atom_site_fract_y
 _atom_site_fract_z
 _atom_site_occupancy
 _atom_site_hle17_bader_spin_density
 _atom_site_hle17_ddec_charge
 _atom_site_hle17_ddec_spin_density
 _atom_site_hle17_ddec_sum_bond_order
 _atom_site_hle17_magmom
 _atom_site_hse06_10hf_bader_spin_density
 _atom_site_hse06_10hf_ddec_charge
 _atom_site_hse06_10hf_ddec_spin_density
 _atom_site_hse06_10hf_ddec_sum_bond_order
 _atom_site_hse06_10hf_magmom
 _atom_site_hse06_bader_spin_density
 _atom_site_hse06_ddec_charge
 _atom_site_hse06_ddec_spin_density
 _atom_site_hse06_ddec_sum_bond_order
 _atom_site_hse06_magmom
 _atom_site_pbe_bader_spin_density
 _atom_site_pbe_cm5_charge
 _atom_site_pbe_ddec_charge
 _atom_site_pbe_ddec_spin_density
 _atom_site_pbe_ddec_sum_bond_order
 _atom_site_pbe_magmom
Li  Li0  1  0.53147413  0.50908180  0.90040620  1  0  0.854451  0  0.411548  0  0  0.811015  0  0.526284  0  0  0.820624  0  0.509168  0  0  0.472843  0.804362  0  0.537883  0
Li  Li1  1  0.03147285  0.99091338  0.59959323  1  0  0.854456  0  0.411547  0  0  0.810989  0  0.526341  0  0  0.820597  0  0.509226  0  0  0.472851  0.804341  0  0.537926  0
Li  Li2  1  0.46852270  0.49091493  0.09959161  1  0  0.85444  0  0.411557  0  0  0.810977  0  0.526346  0  0  0.820586  0  0.50923  0  0  0.472842  0.804332  0  0.537929  0
Li  Li3  1  0.96852261  0.00908635  0.40040914  1  0  0.854442  0  0.411564  0  0  0.810989  0  0.526329  0  0  0.820598  0  0.509213  0  0  0.47285  0.804338  0  0.537925  0
H  H4  1  0.20908363  0.26049576  0.69529894  1  0  0.16121  0  0.955718  0  0  0.173081  0  1.009686  0  0  0.177489  0  1.009011  0  0  0.119289  0.169997  0  1.010361  0
H  H5  1  0.70908114  0.23949713  0.80470335  1  0  0.161226  0  0.955697  0  0  0.173091  0  1.009675  0  0  0.177501  0  1.008998  0  0  0.119302  0.170006  0  1.010351  0
H  H6  1  0.79092134  0.73950090  0.30470342  1  0  0.161229  0  0.955733  0  0  0.173099  0  1.009703  0  0  0.177507  0  1.00903  0  0  0.119296  0.170015  0  1.010378  0
H  H7  1  0.29091976  0.76049649  0.19529672  1  0  0.161219  0  0.955698  0  0  0.173097  0  1.009657  0  0  0.177506  0  1.008982  0  0  0.119293  0.170013  0  1.010333  0
H  H8  1  0.31961245  0.96226143  0.36436128  1  0  0.070173  0  0.952618  0  0  0.082381  0  1.021  0  0  0.084357  0  1.018843  0  0  0.116064  0.080765  0  1.022858  0
H  H9  1  0.81961667  0.53773705  0.13563756  1  0  0.070178  0  0.952615  0  0  0.082394  0  1.020971  0  0  0.084386  0  1.018791  0  0  0.116065  0.080775  0  1.022836  0
H  H10  1  0.68037894  0.03773938  0.63563756  1  0  0.07022  0  0.952545  0  0  0.082415  0  1.020924  0  0  0.084373  0  1.0188  0  0  0.116071  0.080799  0  1.022782  0
H  H11  1  0.18037879  0.46226168  0.86436303  1  0  0.070212  0  0.952561  0  0  0.082419  0  1.020924  0  0  0.084409  0  1.018764  0  0  0.116079  0.080803  0  1.02278  0
H  H12  1  0.54426856  0.99507529  0.32852368  1  0  0.054581  0  0.991584  0  0  0.067367  0  1.063533  0  0  0.067732  0  1.06415  0  0  0.100448  0.066973  0  1.063235  0
H  H13  1  0.04427263  0.50492064  0.17147422  1  0  0.054594  0  0.991566  0  0  0.067324  0  1.063565  0  0  0.067716  0  1.06416  0  0  0.100418  0.066934  0  1.063259  0
H  H14  1  0.45572419  0.00491938  0.67147437  1  0  0.054571  0  0.991526  0  0  0.067311  0  1.063542  0  0  0.067697  0  1.064143  0  0  0.100394  0.066918  0  1.06324  0
H  H15  1  0.95572148  0.49508012  0.82852841  1  0  0.054567  0  0.991536  0  0  0.067322  0  1.063521  0  0  0.067716  0  1.064118  0  0  0.100394  0.06693  0  1.063221  0
H  H16  1  0.63441669  0.58332516  0.62129775  1  0  0.106403  0  0.947997  0  0  0.127876  0  1.008274  0  0  0.128954  0  1.009051  0  0  0.088298  0.126949  0  1.00796  0
H  H17  1  0.13442031  0.91667629  0.87870614  1  0  0.106414  0  0.948083  0  0  0.12791  0  1.008322  0  0  0.128968  0  1.009121  0  0  0.088298  0.126982  0  1.008007  0
H  H18  1  0.36558557  0.41667143  0.37870916  1  0  0.10639  0  0.948104  0  0  0.127889  0  1.008347  0  0  0.128961  0  1.00913  0  0  0.088302  0.126963  0  1.008035  0
H  H19  1  0.86558873  0.08333578  0.12129327  1  0  0.10645  0  0.948007  0  0  0.127929  0  1.008276  0  0  0.129013  0  1.009046  0  0  0.088312  0.127002  0  1.00796  0
H  H20  1  0.72904881  0.49587377  0.49281301  1  0  0.096468  0  0.969551  0  0  0.112621  0  1.040461  0  0  0.113797  0  1.041326  0  0  0.07997  0.111675  0  1.039944  0
H  H21  1  0.22905513  0.00413420  0.00718984  1  0  0.096454  0  0.969527  0  0  0.112608  0  1.040441  0  0  0.113784  0  1.041301  0  0  0.079968  0.111662  0  1.039921  0
H  H22  1  0.27095209  0.50413103  0.50719293  1  0  0.096502  0  0.969454  0  0  0.11263  0  1.04041  0  0  0.113807  0  1.04127  0  0  0.079967  0.111685  0  1.039891  0
H  H23  1  0.77095663  0.99587584  0.99280905  1  0  0.096469  0  0.96951  0  0  0.1126  0  1.040466  0  0  0.113776  0  1.041329  0  0  0.079963  0.111655  0  1.039942  0
H  H24  1  0.87269938  0.58646926  0.60041800  1  0  0.108674  0  0.950896  0  0  0.132809  0  1.009025  0  0  0.133727  0  1.009906  0  0  0.092123  0.132061  0  1.008465  0
H  H25  1  0.37270287  0.91353675  0.89958587  1  0  0.10864  0  0.950922  0  0  0.132789  0  1.009044  0  0  0.133706  0  1.009923  0  0  0.092143  0.132043  0  1.008482  0
H  H26  1  0.12730695  0.41352939  0.39958790  1  0  0.108657  0  0.950945  0  0  0.132819  0  1.009041  0  0  0.133731  0  1.009929  0  0  0.092176  0.132081  0  1.008473  0
H  H27  1  0.62730753  0.08647326  0.10041453  1  0  0.108539  0  0.950975  0  0  0.132702  0  1.009085  0  0  0.133615  0  1.009972  0  0  0.092103  0.131952  0  1.008529  0
H  H28  1  0.89004993  0.33413920  0.57378275  1  0  0.068918  0  0.948513  0  0  0.084261  0  1.010985  0  0  0.085516  0  1.010162  0  0  0.106559  0.08322  0  1.011763  0
H  H29  1  0.39005340  0.16586334  0.92621405  1  0  0.068981  0  0.948472  0  0  0.084308  0  1.010943  0  0  0.085564  0  1.01012  0  0  0.106572  0.083266  0  1.011721  0
H  H30  1  0.10995233  0.66585346  0.42621250  1  0  0.068925  0  0.948468  0  0  0.084248  0  1.010912  0  0  0.085506  0  1.010089  0  0  0.106537  0.08321  0  1.01169  0
H  H31  1  0.60995836  0.83415077  0.07378662  1  0  0.068839  0  0.948523  0  0  0.084153  0  1.010989  0  0  0.08541  0  1.010161  0  0  0.106468  0.083114  0  1.01177  0
H  H32  1  0.78743270  0.42255805  0.70007098  1  0  0.068016  0  0.974428  0  0  0.081536  0  1.041861  0  0  0.08318  0  1.040523  0  0  0.109775  0.080246  0  1.04299  0
H  H33  1  0.28743371  0.07744018  0.79992644  1  0  0.068027  0  0.974389  0  0  0.081548  0  1.041805  0  0  0.083195  0  1.040467  0  0  0.109768  0.080257  0  1.042934  0
H  H34  1  0.21257228  0.57742946  0.29992602  1  0  0.068007  0  0.974465  0  0  0.081489  0  1.041887  0  0  0.083132  0  1.040549  0  0  0.109784  0.080201  0  1.043018  0
H  H35  1  0.71257534  0.92257187  0.20007448  1  0  0.067941  0  0.974487  0  0  0.081396  0  1.041925  0  0  0.083038  0  1.040586  0  0  0.109772  0.080112  0  1.043061  0
H  H36  1  0.20241230  0.15326161  0.29938469  1  0  0.101336  0  0.955214  0  0  0.121237  0  1.020656  0  0  0.122705  0  1.020511  0  0  0.093429  0.120107  0  1.020881  0
H  H37  1  0.70241634  0.34673510  0.20061383  1  0  0.101322  0  0.955245  0  0  0.121207  0  1.020704  0  0  0.122673  0  1.020563  0  0  0.093412  0.12008  0  1.020928  0
H  H38  1  0.79758181  0.84673614  0.70061337  1  0  0.101362  0  0.955239  0  0  0.121217  0  1.020727  0  0  0.122684  0  1.020587  0  0  0.093423  0.120095  0  1.020942  0
H  H39  1  0.29757777  0.65326368  0.79938373  1  0  0.101371  0  0.955209  0  0  0.12124  0  1.020678  0  0  0.122708  0  1.020535  0  0  0.093451  0.120121  0  1.020893  0
H  H40  1  0.31747481  0.02769717  0.19614176  1  0  0.104755  0  0.957102  0  0  0.129373  0  1.015141  0  0  0.129903  0  1.016695  0  0  0.090039  0.128935  0  1.01411  0
H  H41  1  0.81747890  0.47230078  0.30385689  1  0  0.104798  0  0.957106  0  0  0.129424  0  1.015126  0  0  0.129956  0  1.01668  0  0  0.090053  0.128987  0  1.014097  0
H  H42  1  0.68251795  0.97230059  0.80385555  1  0  0.104816  0  0.957124  0  0  0.129454  0  1.015119  0  0  0.129984  0  1.016677  0  0  0.090076  0.129013  0  1.014093  0
H  H43  1  0.18251113  0.52769795  0.69614371  1  0  0.10477  0  0.95714  0  0  0.129408  0  1.015152  0  0  0.129937  0  1.016704  0  0  0.090042  0.128967  0  1.01413  0
H  H44  1  0.42820079  0.18380575  0.26408385  1  0  0.097671  0  0.977228  0  0  0.117578  0  1.043275  0  0  0.118623  0  1.043776  0  0  0.080736  0.116737  0  1.043085  0
H  H45  1  0.92820312  0.31619241  0.23591542  1  0  0.097663  0  0.9772  0  0  0.117559  0  1.043258  0  0  0.118603  0  1.04376  0  0  0.080731  0.116718  0  1.043072  0
H  H46  1  0.57179468  0.81619200  0.73591421  1  0  0.097683  0  0.977202  0  0  0.117579  0  1.043255  0  0  0.118623  0  1.043754  0  0  0.08074  0.11674  0  1.043061  0
H  H47  1  0.07178827  0.68380734  0.76408620  1  0  0.097662  0  0.977217  0  0  0.117566  0  1.043264  0  0  0.11861  0  1.043764  0  0  0.080743  0.116727  0  1.043071  0
C  C48  1  0.31635534  0.24948352  0.63667717  1  0  -0.489486  0  3.720092  0  0  -0.516239  0  3.995456  0  0  -0.538752  0  4.009776  0  0  -0.140082  -0.501577  0  3.985771  0
C  C49  1  0.81635530  0.25051469  0.86332551  1  0  -0.489418  0  3.720062  0  0  -0.516151  0  3.995444  0  0  -0.538665  0  4.009765  0  0  -0.140062  -0.501489  0  3.985757  0
C  C50  1  0.68364691  0.75051623  0.36332444  1  0  -0.489473  0  3.72013  0  0  -0.516237  0  3.995497  0  0  -0.538751  0  4.009818  0  0  -0.140081  -0.501576  0  3.985811  0
C  C51  1  0.18364696  0.74948200  0.13667457  1  0  -0.489412  0  3.720061  0  0  -0.516203  0  3.995401  0  0  -0.538716  0  4.009724  0  0  -0.140079  -0.501541  0  3.985713  0
C  C52  1  0.59405608  0.21634268  0.48420488  1  0  0.374244  0  3.734963  0  0  0.325077  0  4.032321  0  0  0.352953  0  4.039073  0  0  0.252163  0.306803  0  4.026917  0
C  C53  1  0.09405831  0.28365588  0.01579278  1  0  0.374282  0  3.735045  0  0  0.325119  0  4.032399  0  0  0.352994  0  4.039156  0  0  0.252147  0.306843  0  4.026993  0
C  C54  1  0.40594075  0.78365408  0.51579065  1  0  0.374486  0  3.734848  0  0  0.32532  0  4.032215  0  0  0.353195  0  4.03897  0  0  0.252251  0.307044  0  4.026808  0
C  C55  1  0.90594395  0.71634896  0.98421013  1  0  0.374369  0  3.734975  0  0  0.325231  0  4.032307  0  0  0.353104  0  4.039064  0  0  0.252166  0.306956  0  4.026898  0
C  C56  1  0.41129308  0.04082794  0.35420287  1  0  0.051665  0  3.653793  0  0  -0.009436  0  3.91804  0  0  -0.004106  0  3.928677  0  0  -0.064819  -0.012739  0  3.910606  0
C  C57  1  0.91129798  0.45916919  0.14579389  1  0  0.051607  0  3.653777  0  0  -0.009442  0  3.917986  0  0  -0.004129  0  3.928587  0  0  -0.064776  -0.012747  0  3.910553  0
C  C58  1  0.58870103  0.95917083  0.64579545  1  0  0.051653  0  3.653608  0  0  -0.009397  0  3.917823  0  0  -0.004079  0  3.928457  0  0  -0.064755  -0.012703  0  3.910391  0
C  C59  1  0.08869749  0.54082956  0.85420519  1  0  0.051646  0  3.653648  0  0  -0.009423  0  3.917862  0  0  -0.004119  0  3.928458  0  0  -0.06478  -0.01273  0  3.910436  0
C  C60  1  0.29348762  0.15525910  0.53539364  1  0  0.58018  0  3.874906  0  0  0.535535  0  4.161015  0  0  0.565583  0  4.162764  0  0  0.222367  0.515578  0  4.158818  0
C  C61  1  0.79348885  0.34473604  0.96460602  1  0  0.580214  0  3.875168  0  0  0.535556  0  4.161305  0  0  0.565601  0  4.163058  0  0  0.222319  0.515597  0  4.159104  0
C  C62  1  0.70650921  0.84473863  0.46460594  1  0  0.580109  0  3.874985  0  0  0.535488  0  4.161068  0  0  0.565535  0  4.162816  0  0  0.222301  0.515532  0  4.158865  0
C  C63  1  0.20650934  0.65526066  0.03539330  1  0  0.580034  0  3.875073  0  0  0.535477  0  4.161074  0  0  0.565522  0  4.162825  0  0  0.222277  0.515521  0  4.158869  0
C  C64  1  0.47599805  0.32583876  0.66626879  1  0  0.574494  0  3.882561  0  0  0.531221  0  4.16605  0  0  0.562093  0  4.167072  0  0  0.221606  0.510575  0  4.164842  0
C  C65  1  0.97599915  0.17415778  0.83372864  1  0  0.57447  0  3.882551  0  0  0.531153  0  4.166109  0  0  0.562026  0  4.167129  0  0  0.221571  0.510506  0  4.164897  0
C  C66  1  0.52400557  0.67415694  0.33372876  1  0  0.574514  0  3.882445  0  0  0.531233  0  4.165951  0  0  0.562104  0  4.166975  0  0  0.221654  0.510586  0  4.164743  0
C  C67  1  0.02400582  0.82584401  0.16627273  1  0  0.57451  0  3.88234  0  0  0.531237  0  4.165847  0  0  0.562108  0  4.166868  0  0  0.221653  0.51059  0  4.164635  0
C  C68  1  0.75031694  0.52285506  0.57959636  1  0  -0.305455  0  3.675843  0  0  -0.381084  0  3.917399  0  0  -0.384502  0  3.92822  0  0  -0.246632  -0.378354  0  3.909969  0
C  C69  1  0.25031792  0.97714057  0.92040053  1  0  -0.305378  0  3.675876  0  0  -0.381043  0  3.917433  0  0  -0.384443  0  3.928263  0  0  -0.246642  -0.378317  0  3.909997  0
C  C70  1  0.24968532  0.47713852  0.42040598  1  0  -0.305411  0  3.675989  0  0  -0.381119  0  3.917526  0  0  -0.384527  0  3.928348  0  0  -0.246674  -0.378394  0  3.910095  0
C  C71  1  0.74968977  0.02286234  0.07959504  1  0  -0.305325  0  3.675948  0  0  -0.381034  0  3.917478  0  0  -0.384457  0  3.928291  0  0  -0.246585  -0.3783  0  3.91005  0
C  C72  1  0.77312184  0.39502178  0.61312079  1  0  0.058172  0  3.635602  0  0  0.001062  0  3.890685  0  0  0.00647  0  3.900869  0  0  -0.062527  -0.002469  0  3.883842  0
C  C73  1  0.27312387  0.10497745  0.88687690  1  0  0.058028  0  3.63563  0  0  0.000942  0  3.890677  0  0  0.006349  0  3.900856  0  0  -0.062562  -0.00259  0  3.883832  0
C  C74  1  0.22688177  0.60496982  0.38687725  1  0  0.058074  0  3.635625  0  0  0.001116  0  3.890553  0  0  0.00653  0  3.900718  0  0  -0.062555  -0.002432  0  3.883733  0
C  C75  1  0.72688653  0.89503462  0.11312326  1  0  0.058224  0  3.635589  0  0  0.001327  0  3.890456  0  0  0.006739  0  3.900634  0  0  -0.062501  -0.002226  0  3.88364  0
C  C76  1  0.33509744  0.10582417  0.27422104  1  0  -0.312516  0  3.709808  0  0  -0.391647  0  3.955465  0  0  -0.394775  0  3.966221  0  0  -0.246727  -0.389159  0  3.94789  0
C  C77  1  0.83509751  0.39417278  0.22577808  1  0  -0.312479  0  3.709795  0  0  -0.391589  0  3.955403  0  0  -0.394725  0  3.966184  0  0  -0.246692  -0.389103  0  3.94783  0
C  C78  1  0.66489803  0.89417358  0.72577702  1  0  -0.312646  0  3.709827  0  0  -0.391722  0  3.955442  0  0  -0.394854  0  3.966218  0  0  -0.246768  -0.389242  0  3.947861  0
C  C79  1  0.16489117  0.60582596  0.77422176  1  0  -0.312533  0  3.709788  0  0  -0.391646  0  3.955396  0  0  -0.394785  0  3.966198  0  0  -0.246736  -0.389167  0  3.947819  0
S  S80  1  0.75560386  0.20094738  0.39025125  1  0  -0.476085  0  1.919536  0  0  -0.465384  0  2.243263  0  0  -0.476608  0  2.234725  0  0  -0.157851  -0.4577  0  2.249009  0
S  S81  1  0.25560565  0.29905148  0.10974697  1  0  -0.476088  0  1.919511  0  0  -0.465363  0  2.24321  0  0  -0.476591  0  2.234677  0  0  -0.157831  -0.457684  0  2.248955  0
S  S82  1  0.24439161  0.79904938  0.60974429  1  0  -0.476176  0  1.919526  0  0  -0.465453  0  2.243224  0  0  -0.476677  0  2.234691  0  0  -0.157859  -0.457772  0  2.248968  0
S  S83  1  0.74439117  0.70095129  0.89025769  1  0  -0.476154  0  1.919523  0  0  -0.46546  0  2.243223  0  0  -0.476683  0  2.234692  0  0  -0.157859  -0.457775  0  2.248969  0
N  N84  1  0.43667135  0.14049554  0.46133772  1  0  -0.236621  0  3.35362  0  0  -0.144482  0  3.577453  0  0  -0.167764  0  3.597236  0  0  -0.234304  -0.129029  0  3.563397  0
N  N85  1  0.93667497  0.35950264  0.03866078  1  0  -0.236672  0  3.353565  0  0  -0.144552  0  3.577412  0  0  -0.167835  0  3.597201  0  0  -0.234337  -0.129095  0  3.563345  0
N  N86  1  0.56332412  0.85950426  0.53866010  1  0  -0.236707  0  3.353536  0  0  -0.144586  0  3.577364  0  0  -0.167863  0  3.59715  0  0  -0.234369  -0.129132  0  3.563303  0
N  N87  1  0.06332321  0.64049814  0.96133957  1  0  -0.236707  0  3.353535  0  0  -0.144614  0  3.577333  0  0  -0.167895  0  3.59713  0  0  -0.234354  -0.129159  0  3.563269  0
N  N88  1  0.61157956  0.30646519  0.58574342  1  0  -0.243078  0  3.35082  0  0  -0.15173  0  3.576054  0  0  -0.174596  0  3.594514  0  0  -0.234436  -0.136681  0  3.563436  0
N  N89  1  0.11158188  0.19353474  0.91425472  1  0  -0.243095  0  3.350892  0  0  -0.151737  0  3.576111  0  0  -0.174606  0  3.594573  0  0  -0.234421  -0.136687  0  3.563488  0
N  N90  1  0.38842134  0.69353051  0.41425413  1  0  -0.243153  0  3.35076  0  0  -0.151849  0  3.575984  0  0  -0.174715  0  3.594446  0  0  -0.234463  -0.136796  0  3.563367  0
N  N91  1  0.88842445  0.80647422  0.08574694  1  0  -0.243022  0  3.350664  0  0  -0.151745  0  3.575864  0  0  -0.174613  0  3.594325  0  0  -0.234364  -0.136694  0  3.563248  0
O  O92  1  0.50720527  0.40869534  0.75762112  1  0  -0.686437  0  1.99565  0  0  -0.639559  0  2.238302  0  0  -0.659338  0  2.226647  0  0  -0.403162  -0.6259  0  2.245789  0
O  O93  1  0.00721210  0.09130542  0.74237741  1  0  -0.68642  0  1.995695  0  0  -0.639512  0  2.238359  0  0  -0.65929  0  2.226698  0  0  -0.403159  -0.62586  0  2.245841  0
O  O94  1  0.49279563  0.59130240  0.24237771  1  0  -0.686402  0  1.995677  0  0  -0.639511  0  2.238338  0  0  -0.659291  0  2.226682  0  0  -0.403171  -0.625856  0  2.24582  0
O  O95  1  0.99279695  0.90869431  0.25762496  1  0  -0.686424  0  1.995698  0  0  -0.639537  0  2.238351  0  0  -0.659316  0  2.226692  0  0  -0.403177  -0.625883  0  2.245836  0
O  O96  1  0.15332365  0.07982050  0.50624890  1  0  -0.781737  0  2.03871  0  0  -0.734465  0  2.293228  0  0  -0.753259  0  2.278942  0  0  -0.455169  -0.721363  0  2.302245  0
O  O97  1  0.65332374  0.42017333  0.99375144  1  0  -0.78177  0  2.03888  0  0  -0.734492  0  2.293404  0  0  -0.75329  0  2.279116  0  0  -0.455136  -0.721391  0  2.30242  0
O  O98  1  0.84667317  0.92017821  0.49375321  1  0  -0.781704  0  2.03868  0  0  -0.734438  0  2.29319  0  0  -0.753229  0  2.278898  0  0  -0.455125  -0.721338  0  2.302206  0
O  O99  1  0.34667173  0.57982031  0.00624711  1  0  -0.781683  0  2.038683  0  0  -0.734446  0  2.293168  0  0  -0.753244  0  2.278882  0  0  -0.455123  -0.721348  0  2.302185  0
