# generated using pymatgen
data_ZnH12C9N4O3
_symmetry_space_group_name_H-M   'P 1'
_cell_length_a   9.21064164
_cell_length_b   9.61635640
_cell_length_c   9.65997777
_cell_angle_alpha   122.59330638
_cell_angle_beta   90.00047925
_cell_angle_gamma   89.99930628
_symmetry_Int_Tables_number   1
_chemical_formula_structural   ZnH12C9N4O3
_chemical_formula_sum   'Zn2 H24 C18 N8 O6'
_cell_volume   720.86572627
_cell_formula_units_Z   2
loop_
 _symmetry_equiv_pos_site_id
 _symmetry_equiv_pos_as_xyz
  1  'x, y, z'
loop_
 _atom_site_type_symbol
 _atom_site_label
 _atom_site_symmetry_multiplicity
 _atom_site_fract_x
 _atom_site_fract_y
 _atom_site_fract_z
 _atom_site_occupancy
 _atom_site_hle17_bader_spin_density
 _atom_site_hle17_ddec_charge
 _atom_site_hle17_ddec_spin_density
 _atom_site_hle17_ddec_sum_bond_order
 _atom_site_hle17_magmom
 _atom_site_hse06_10hf_bader_spin_density
 _atom_site_hse06_10hf_ddec_charge
 _atom_site_hse06_10hf_ddec_spin_density
 _atom_site_hse06_10hf_ddec_sum_bond_order
 _atom_site_hse06_10hf_magmom
 _atom_site_hse06_bader_spin_density
 _atom_site_hse06_ddec_charge
 _atom_site_hse06_ddec_spin_density
 _atom_site_hse06_ddec_sum_bond_order
 _atom_site_hse06_magmom
 _atom_site_pbe_bader_spin_density
 _atom_site_pbe_cm5_charge
 _atom_site_pbe_ddec_charge
 _atom_site_pbe_ddec_spin_density
 _atom_site_pbe_ddec_sum_bond_order
 _atom_site_pbe_magmom
Zn  Zn0  1  0.56696779  0.40564924  0.27396586  1  0  0.951145  0  1.915475  0  0  0.758943  0  2.391355  0  0  0.800062  0  2.344295  0  0  0.703793  0.730475  0  2.423578  0
Zn  Zn1  1  0.06696750  0.59434861  0.72601969  1  0  0.95103  0  1.915636  0  0  0.758842  0  2.391465  0  0  0.799962  0  2.344401  0  0  0.70375  0.730371  0  2.423684  0
H  H2  1  0.25382764  0.53664330  0.42683307  1  0  0.075825  0  0.99739  0  0  0.080396  0  1.072863  0  0  0.083419  0  1.068742  0  0  0.116389  0.078162  0  1.075813  0
H  H3  1  0.75382863  0.46338371  0.57317076  1  0  0.075741  0  0.997412  0  0  0.080317  0  1.072884  0  0  0.083345  0  1.068749  0  0  0.116382  0.078086  0  1.075832  0
H  H4  1  0.43614255  0.30921132  0.79377707  1  0  0.090574  0  0.916056  0  0  0.109161  0  0.969617  0  0  0.110614  0  0.968958  0  0  0.099402  0.108041  0  0.970201  0
H  H5  1  0.93614630  0.69076851  0.20620804  1  0  0.090661  0  0.916422  0  0  0.10925  0  0.969941  0  0  0.110705  0  0.969283  0  0  0.099445  0.108132  0  0.970523  0
H  H6  1  0.24524906  0.34785095  0.81248365  1  0  0.100815  0  0.940933  0  0  0.113852  0  1.005625  0  0  0.115673  0  1.00465  0  0  0.099886  0.11248  0  1.006385  0
H  H7  1  0.74525531  0.65214160  0.18750285  1  0  0.100914  0  0.941018  0  0  0.114002  0  1.005647  0  0  0.115833  0  1.004666  0  0  0.099912  0.112628  0  1.006409  0
H  H8  1  0.59987921  0.58042901  0.93269788  1  0  0.300547  0  0.939754  0  0  0.281508  0  1.00826  0  0  0.289725  0  1.002245  0  0  0.300039  0.275683  0  1.012594  0
H  H9  1  0.09988320  0.41956559  0.06729470  1  0  0.300538  0  0.939672  0  0  0.281529  0  1.00817  0  0  0.289725  0  1.002184  0  0  0.300013  0.2757  0  1.01251  0
H  H10  1  0.57379427  0.30595062  0.54657236  1  0  0.098014  0  0.964738  0  0  0.111017  0  1.023698  0  0  0.113499  0  1.022362  0  0  0.111533  0.109166  0  1.024847  0
H  H11  1  0.07380240  0.69406244  0.45343909  1  0  0.097954  0  0.964734  0  0  0.110968  0  1.023677  0  0  0.113502  0  1.022277  0  0  0.111515  0.109117  0  1.024824  0
H  H12  1  0.61994110  0.08501399  0.26439635  1  0  0.055677  0  0.923981  0  0  0.07659  0  0.98126  0  0  0.076611  0  0.981688  0  0  0.104846  0.076461  0  0.981089  0
H  H13  1  0.11997053  0.91498148  0.73562172  1  0  0.055853  0  0.92423  0  0  0.07662  0  0.981584  0  0  0.076655  0  0.982016  0  0  0.104853  0.076492  0  0.981413  0
H  H14  1  0.78033552  0.09797721  0.16819356  1  0  0.06402  0  0.930083  0  0  0.081526  0  0.989748  0  0  0.082182  0  0.989922  0  0  0.10461  0.08097  0  0.989746  0
H  H15  1  0.28036375  0.90202518  0.83184146  1  0  0.064081  0  0.929535  0  0  0.081513  0  0.989291  0  0  0.082179  0  0.989466  0  0  0.104586  0.08096  0  0.989292  0
H  H16  1  0.28168319  0.64302993  0.00076378  1  0  0.073612  0  0.928127  0  0  0.080809  0  0.993872  0  0  0.083742  0  0.990738  0  0  0.115283  0.078521  0  0.996483  0
H  H17  1  0.78167495  0.35696584  0.99922349  1  0  0.073699  0  0.928015  0  0  0.080853  0  0.993795  0  0  0.083815  0  0.99063  0  0  0.11526  0.078566  0  0.996405  0
H  H18  1  0.68064591  0.84944420  0.89664994  1  0  0.116593  0  0.905611  0  0  0.134973  0  0.95647  0  0  0.137617  0  0.955279  0  0  0.109584  0.133057  0  0.957459  0
H  H19  1  0.18062860  0.15054982  0.10337206  1  0  0.116603  0  0.905753  0  0  0.135045  0  0.956556  0  0  0.137685  0  0.955368  0  0  0.109553  0.133121  0  0.957536  0
H  H20  1  0.73928022  0.80484005  0.04182203  1  0  0.102695  0  0.942495  0  0  0.118394  0  1.000821  0  0  0.120317  0  1.00051  0  0  0.102182  0.116978  0  1.001164  0
H  H21  1  0.23926733  0.19516483  0.95820970  1  0  0.10291  0  0.942594  0  0  0.118592  0  1.000936  0  0  0.120536  0  1.000601  0  0  0.102264  0.117164  0  1.001276  0
H  H22  1  0.64089022  0.14103943  0.99525751  1  0  0.300197  0  0.886006  0  0  0.292585  0  0.937732  0  0  0.298648  0  0.933114  0  0  0.299045  0.288202  0  0.941192  0
H  H23  1  0.14088928  0.85895716  0.00476228  1  0  0.300116  0  0.88588  0  0  0.292538  0  0.937591  0  0  0.298606  0  0.932963  0  0  0.298974  0.288153  0  0.941052  0
H  H24  1  0.48611774  0.10541397  0.06156547  1  0  0.297566  0  0.904051  0  0  0.289968  0  0.955619  0  0  0.295928  0  0.951632  0  0  0.295637  0.285673  0  0.958567  0
H  H25  1  0.98611637  0.89458743  0.93844263  1  0  0.297517  0  0.904115  0  0  0.289878  0  0.955737  0  0  0.295838  0  0.951749  0  0  0.295576  0.285582  0  0.958685  0
C  C26  1  0.30994048  0.49015678  0.49257766  1  0  0.189807  0  3.777657  0  0  0.137746  0  4.038999  0  0  0.151151  0  4.053509  0  0  0.109546  0.1291  0  4.028794  0
C  C27  1  0.80994901  0.50985347  0.50741664  1  0  0.190191  0  3.778035  0  0  0.138142  0  4.039334  0  0  0.151549  0  4.053833  0  0  0.109706  0.129496  0  4.02913  0
C  C28  1  0.35168540  0.39679133  0.80741991  1  0  -0.202191  0  3.700981  0  0  -0.250707  0  3.954141  0  0  -0.25168  0  3.964804  0  0  -0.152752  -0.249776  0  3.946704  0
C  C29  1  0.85169013  0.60321935  0.19257075  1  0  -0.202467  0  3.701192  0  0  -0.250961  0  3.954286  0  0  -0.251952  0  3.964966  0  0  -0.152808  -0.250028  0  3.946861  0
C  C30  1  0.47347082  0.36822855  0.55286456  1  0  -0.084339  0  3.749868  0  0  -0.124656  0  4.011573  0  0  -0.12525  0  4.033779  0  0  -0.023134  -0.124195  0  3.996576  0
C  C31  1  0.97346972  0.63178543  0.44712444  1  0  -0.084524  0  3.74947  0  0  -0.124787  0  4.011213  0  0  -0.125432  0  4.033397  0  0  -0.023287  -0.124319  0  3.996213  0
C  C32  1  0.36140497  0.41505770  0.66404986  1  0  0.174482  0  3.781728  0  0  0.176211  0  4.036912  0  0  0.179481  0  4.062287  0  0  0.063839  0.173979  0  4.019682  0
C  C33  1  0.86140135  0.58493944  0.33593555  1  0  0.174992  0  3.781643  0  0  0.176583  0  4.036955  0  0  0.179859  0  4.062345  0  0  0.064031  0.174346  0  4.019728  0
C  C34  1  0.66690819  0.05742086  0.14767012  1  0  0.101587  0  3.650989  0  0  0.038039  0  3.925073  0  0  0.042969  0  3.936868  0  0  -0.073631  0.034826  0  3.916902  0
C  C35  1  0.16687963  0.94258577  0.85234629  1  0  0.101388  0  3.65104  0  0  0.038085  0  3.924994  0  0  0.04297  0  3.936846  0  0  -0.07363  0.03485  0  3.916824  0
C  C36  1  0.38446443  0.52211092  0.10858943  1  0  0.638993  0  3.870958  0  0  0.58994  0  4.174627  0  0  0.622628  0  4.167151  0  0  0.209868  0.567753  0  4.178962  0
C  C37  1  0.88446137  0.47786639  0.89138786  1  0  0.639107  0  3.871008  0  0  0.590104  0  4.174602  0  0  0.622788  0  4.167125  0  0  0.209885  0.567916  0  4.178939  0
C  C38  1  0.37513294  0.56192860  0.97434840  1  0  0.055136  0  3.61647  0  0  0.034157  0  3.859369  0  0  0.034508  0  3.870702  0  0  0.013147  0.033829  0  3.851903  0
C  C39  1  0.87513075  0.43805469  0.02564202  1  0  0.054992  0  3.6164  0  0  0.034022  0  3.859349  0  0  0.034348  0  3.870697  0  0  0.013193  0.033695  0  3.851882  0
C  C40  1  0.65673279  0.87278285  0.01930278  1  0  -0.284482  0  3.670966  0  0  -0.322725  0  3.926502  0  0  -0.328091  0  3.934138  0  0  -0.160716  -0.319057  0  3.921256  0
C  C41  1  0.15672963  0.12722618  0.98072611  1  0  -0.284843  0  3.67133  0  0  -0.323191  0  3.926929  0  0  -0.328558  0  3.934564  0  0  -0.160766  -0.319471  0  3.921633  0
C  C42  1  0.50627680  0.80505905  0.01714557  1  0  0.585768  0  3.799165  0  0  0.543159  0  4.094382  0  0  0.572156  0  4.0946  0  0  0.234701  0.523637  0  4.093501  0
C  C43  1  0.00626738  0.19493908  0.98286249  1  0  0.58597  0  3.798784  0  0  0.54334  0  4.094107  0  0  0.572342  0  4.094318  0  0  0.234756  0.523806  0  4.093221  0
N  N44  1  0.58794434  0.15674850  0.09620370  1  0  -0.630436  0  3.116022  0  0  -0.573941  0  3.385299  0  0  -0.592112  0  3.379676  0  0  -0.624757  -0.561271  0  3.389018  0
N  N45  1  0.08793157  0.84323591  0.90379230  1  0  -0.630226  0  3.1159  0  0  -0.573715  0  3.38504  0  0  -0.591882  0  3.379452  0  0  -0.624591  -0.561043  0  3.388763  0
N  N46  1  0.50396382  0.64631463  0.97190835  1  0  -0.44434  0  3.351402  0  0  -0.391949  0  3.596396  0  0  -0.414348  0  3.607329  0  0  -0.419725  -0.376686  0  3.588682  0
N  N47  1  0.00396180  0.35367619  0.02807029  1  0  -0.444261  0  3.351448  0  0  -0.391886  0  3.596431  0  0  -0.414273  0  3.60741  0  0  -0.419645  -0.376626  0  3.58872  0
N  N48  1  0.44033448  0.41610082  0.44484698  1  0  -0.41077  0  3.371033  0  0  -0.321619  0  3.67176  0  0  -0.34232  0  3.68528  0  0  -0.384794  -0.307594  0  3.662231  0
N  N49  1  0.94031860  0.58391132  0.55514402  1  0  -0.410891  0  3.371421  0  0  -0.32175  0  3.672125  0  0  -0.342449  0  3.685658  0  0  -0.3848  -0.307725  0  3.662591  0
N  N50  1  0.25785561  0.49311303  0.62466703  1  0  -0.457019  0  3.271308  0  0  -0.37085  0  3.560606  0  0  -0.392484  0  3.57332  0  0  -0.377444  -0.356171  0  3.551645  0
N  N51  1  0.75785982  0.50689811  0.37531794  1  0  -0.457448  0  3.271438  0  0  -0.371259  0  3.560818  0  0  -0.392897  0  3.573525  0  0  -0.377596  -0.356577  0  3.551864  0
O  O52  1  0.51424287  0.49637950  0.13998447  1  0  -0.641536  0  2.085365  0  0  -0.564484  0  2.364802  0  0  -0.592024  0  2.348904  0  0  -0.333093  -0.54527  0  2.374972  0
O  O53  1  0.01423181  0.50361167  0.85998611  1  0  -0.641637  0  2.085329  0  0  -0.564585  0  2.364734  0  0  -0.592136  0  2.348865  0  0  -0.333163  -0.545384  0  2.374933  0
O  O54  1  0.27017414  0.50915176  0.17088740  1  0  -0.615281  0  1.967961  0  0  -0.570778  0  2.19755  0  0  -0.594055  0  2.18859  0  0  -0.317018  -0.554506  0  2.203161  0
O  O55  1  0.77016932  0.49083609  0.82910229  1  0  -0.615282  0  1.968202  0  0  -0.570808  0  2.197782  0  0  -0.594088  0  2.188821  0  0  -0.317019  -0.554537  0  2.203394  0
O  O56  1  0.39585522  0.89555665  0.05805294  1  0  -0.602624  0  1.885718  0  0  -0.557242  0  2.098757  0  0  -0.578536  0  2.091176  0  0  -0.326274  -0.542434  0  2.103572  0
O  O57  1  0.89584532  0.10444776  0.94196523  1  0  -0.602713  0  1.885599  0  0  -0.557305  0  2.098642  0  0  -0.578601  0  2.091064  0  0  -0.32634  -0.542499  0  2.103463  0
