# generated using pymatgen
data_ZnPH9C3NO3
_symmetry_space_group_name_H-M   'P 1'
_cell_length_a   7.62278603
_cell_length_b   8.21654986
_cell_length_c   11.96836551
_cell_angle_alpha   90.00000986
_cell_angle_beta   94.67157835
_cell_angle_gamma   90.00004336
_symmetry_Int_Tables_number   1
_chemical_formula_structural   ZnPH9C3NO3
_chemical_formula_sum   'Zn4 P4 H36 C12 N4 O12'
_cell_volume   747.12436761
_cell_formula_units_Z   4
loop_
 _symmetry_equiv_pos_site_id
 _symmetry_equiv_pos_as_xyz
  1  'x, y, z'
loop_
 _atom_site_type_symbol
 _atom_site_label
 _atom_site_symmetry_multiplicity
 _atom_site_fract_x
 _atom_site_fract_y
 _atom_site_fract_z
 _atom_site_occupancy
 _atom_site_hle17_bader_spin_density
 _atom_site_hle17_ddec_charge
 _atom_site_hle17_ddec_spin_density
 _atom_site_hle17_ddec_sum_bond_order
 _atom_site_hle17_magmom
 _atom_site_hse06_10hf_bader_spin_density
 _atom_site_hse06_10hf_ddec_charge
 _atom_site_hse06_10hf_ddec_spin_density
 _atom_site_hse06_10hf_ddec_sum_bond_order
 _atom_site_hse06_10hf_magmom
 _atom_site_hse06_bader_spin_density
 _atom_site_hse06_ddec_charge
 _atom_site_hse06_ddec_spin_density
 _atom_site_hse06_ddec_sum_bond_order
 _atom_site_hse06_magmom
 _atom_site_pbe_bader_spin_density
 _atom_site_pbe_cm5_charge
 _atom_site_pbe_ddec_charge
 _atom_site_pbe_ddec_spin_density
 _atom_site_pbe_ddec_sum_bond_order
 _atom_site_pbe_magmom
Zn  Zn0  1  0.21361489  0.02933726  0.42104043  1  0  1.147951  0  1.786423  0  0  0.977457  0  2.258273  0  0  1.018795  0  2.201625  0  0  0.707944  0.948405  0  2.297325  0
Zn  Zn1  1  0.28638427  0.52933670  0.57895970  1  0  1.147956  0  1.786413  0  0  0.977471  0  2.258268  0  0  1.018801  0  2.201614  0  0  0.707948  0.948421  0  2.297319  0
Zn  Zn2  1  0.78638434  0.97066323  0.57895855  1  0  1.147986  0  1.786395  0  0  0.97747  0  2.258238  0  0  1.018814  0  2.201595  0  0  0.707942  0.948417  0  2.297285  0
Zn  Zn3  1  0.71361494  0.47066379  0.42104012  1  0  1.14797  0  1.786406  0  0  0.977476  0  2.258266  0  0  1.018808  0  2.20161  0  0  0.707941  0.948424  0  2.297313  0
P  P4  1  0.58878066  0.10755391  0.35671388  1  0  1.420866  0  4.978183  0  0  1.232591  0  5.483159  0  0  1.283237  0  5.446142  0  0  0.276259  1.197308  0  5.50811  0
P  P5  1  0.91121964  0.60755589  0.64328481  1  0  1.420886  0  4.978144  0  0  1.232639  0  5.483099  0  0  1.283271  0  5.446082  0  0  0.276278  1.197356  0  5.508048  0
P  P6  1  0.41121988  0.89244658  0.64328518  1  0  1.420805  0  4.978075  0  0  1.232589  0  5.483029  0  0  1.28323  0  5.44601  0  0  0.276265  1.197303  0  5.507982  0
P  P7  1  0.08878089  0.39244581  0.35671508  1  0  1.420806  0  4.978172  0  0  1.23256  0  5.483134  0  0  1.283194  0  5.446117  0  0  0.276257  1.197278  0  5.508083  0
H  H8  1  0.66595750  0.14094994  0.25582976  1  0  -0.157406  0  0.893715  0  0  -0.123871  0  0.97686  0  0  -0.127683  0  0.971636  0  0  0.082951  -0.121436  0  0.980709  0
H  H9  1  0.83404282  0.64095067  0.74416893  1  0  -0.15742  0  0.893685  0  0  -0.123887  0  0.976824  0  0  -0.127699  0  0.971604  0  0  0.082932  -0.121452  0  0.980672  0
H  H10  1  0.33404172  0.85905177  0.74416922  1  0  -0.15743  0  0.893699  0  0  -0.123935  0  0.97687  0  0  -0.127749  0  0.971651  0  0  0.082931  -0.121495  0  0.980712  0
H  H11  1  0.16595772  0.35905103  0.25583013  1  0  -0.157409  0  0.893658  0  0  -0.123876  0  0.976805  0  0  -0.127687  0  0.97158  0  0  0.082933  -0.121442  0  0.980655  0
H  H12  1  0.99448055  0.70992609  0.20992297  1  0  0.047895  0  0.945035  0  0  0.065292  0  1.009092  0  0  0.065741  0  1.00889  0  0  0.095476  0.064858  0  1.009368  0
H  H13  1  0.50551983  0.20992537  0.79007574  1  0  0.047866  0  0.945051  0  0  0.06526  0  1.009118  0  0  0.065708  0  1.008918  0  0  0.095472  0.064826  0  1.009393  0
H  H14  1  0.00552129  0.29007562  0.79007700  1  0  0.047872  0  0.945027  0  0  0.065269  0  1.009093  0  0  0.065718  0  1.008891  0  0  0.095468  0.064834  0  1.009371  0
H  H15  1  0.49448203  0.79007512  0.20992340  1  0  0.047885  0  0.945034  0  0  0.065285  0  1.00909  0  0  0.065733  0  1.00889  0  0  0.095477  0.064851  0  1.009368  0
H  H16  1  0.21056819  0.79127748  0.22568349  1  0  0.056568  0  0.935538  0  0  0.077289  0  0.994654  0  0  0.076927  0  0.996105  0  0  0.102251  0.077461  0  0.993722  0
H  H17  1  0.28943119  0.29127452  0.77431668  1  0  0.056565  0  0.935567  0  0  0.077287  0  0.994681  0  0  0.076925  0  0.996132  0  0  0.102248  0.077459  0  0.993749  0
H  H18  1  0.78943232  0.20872423  0.77431724  1  0  0.056577  0  0.935525  0  0  0.077299  0  0.994643  0  0  0.076938  0  0.996094  0  0  0.102254  0.077471  0  0.993711  0
H  H19  1  0.71057066  0.70872354  0.22568329  1  0  0.05658  0  0.935567  0  0  0.077302  0  0.994679  0  0  0.07694  0  0.99613  0  0  0.102254  0.077473  0  0.993747  0
H  H20  1  0.16884520  0.89968547  0.02510322  1  0  0.057151  0  0.9262  0  0  0.078717  0  0.981365  0  0  0.079398  0  0.981813  0  0  0.087276  0.078132  0  0.981168  0
H  H21  1  0.33115295  0.39968380  0.97489689  1  0  0.057199  0  0.926246  0  0  0.078772  0  0.981393  0  0  0.079452  0  0.981843  0  0  0.087298  0.078189  0  0.981196  0
H  H22  1  0.83115005  0.10031502  0.97489720  1  0  0.057168  0  0.926236  0  0  0.078736  0  0.981395  0  0  0.079417  0  0.981843  0  0  0.087283  0.078152  0  0.9812  0
H  H23  1  0.66884891  0.60031425  0.02510225  1  0  0.057176  0  0.926241  0  0  0.078743  0  0.981399  0  0  0.079423  0  0.981848  0  0  0.087289  0.078158  0  0.981203  0
H  H24  1  0.95339182  0.81938318  0.01246507  1  0  0.05529  0  0.929995  0  0  0.074786  0  0.988363  0  0  0.075564  0  0.988627  0  0  0.086035  0.074168  0  0.988246  0
H  H25  1  0.54660731  0.31938132  0.98753525  1  0  0.055324  0  0.930026  0  0  0.074837  0  0.988372  0  0  0.075615  0  0.988635  0  0  0.086044  0.074214  0  0.988263  0
H  H26  1  0.04660603  0.18061730  0.98753717  1  0  0.055288  0  0.930065  0  0  0.074829  0  0.98838  0  0  0.075607  0  0.988643  0  0  0.086049  0.074208  0  0.988268  0
H  H27  1  0.45339324  0.68061673  0.01246381  1  0  0.055291  0  0.930064  0  0  0.074831  0  0.988372  0  0  0.075609  0  0.988635  0  0  0.08605  0.07421  0  0.98826  0
H  H28  1  0.09408925  0.07054426  0.18794090  1  0  0.067456  0  0.945854  0  0  0.086466  0  1.007619  0  0  0.086937  0  1.008003  0  0  0.090086  0.085993  0  1.0075  0
H  H29  1  0.40590991  0.57054141  0.81206090  1  0  0.067462  0  0.945836  0  0  0.086467  0  1.007596  0  0  0.086945  0  1.007973  0  0  0.09008  0.08599  0  1.007481  0
H  H30  1  0.90591256  0.92945744  0.81206074  1  0  0.06748  0  0.945856  0  0  0.086484  0  1.007613  0  0  0.086963  0  1.00799  0  0  0.090098  0.086008  0  1.007495  0
H  H31  1  0.59408929  0.42945786  0.18793975  1  0  0.067462  0  0.945869  0  0  0.086472  0  1.007626  0  0  0.08695  0  1.008005  0  0  0.090094  0.085999  0  1.007507  0
H  H32  1  0.87631412  0.99468547  0.17496877  1  0  0.061869  0  0.941707  0  0  0.080487  0  1.003047  0  0  0.080738  0  1.003829  0  0  0.087457  0.080209  0  1.002616  0
H  H33  1  0.62368515  0.49468484  0.82503157  1  0  0.061874  0  0.941663  0  0  0.080479  0  1.003012  0  0  0.080741  0  1.003781  0  0  0.087455  0.080202  0  1.002578  0
H  H34  1  0.12368770  0.00531502  0.82503287  1  0  0.061881  0  0.941684  0  0  0.080495  0  1.00302  0  0  0.080753  0  1.003796  0  0  0.087457  0.080216  0  1.002588  0
H  H35  1  0.37631406  0.50531565  0.17496824  1  0  0.061873  0  0.941644  0  0  0.08048  0  1.002998  0  0  0.080743  0  1.003766  0  0  0.087452  0.080204  0  1.002564  0
H  H36  1  0.07930025  0.74660785  0.40033135  1  0  0.309291  0  0.918281  0  0  0.292904  0  0.981522  0  0  0.299439  0  0.976894  0  0  0.291048  0.288242  0  0.984873  0
H  H37  1  0.42069778  0.24660859  0.59966874  1  0  0.309283  0  0.918303  0  0  0.292897  0  0.981549  0  0  0.299433  0  0.976917  0  0  0.291039  0.288236  0  0.9849  0
H  H38  1  0.92070027  0.25339264  0.59966938  1  0  0.309303  0  0.918263  0  0  0.292905  0  0.981509  0  0  0.299444  0  0.976878  0  0  0.291052  0.288245  0  0.984861  0
H  H39  1  0.57930144  0.75339190  0.40033108  1  0  0.3093  0  0.918274  0  0  0.292909  0  0.981522  0  0  0.299447  0  0.97689  0  0  0.29105  0.288247  0  0.984874  0
H  H40  1  0.92655834  0.88499835  0.36806556  1  0  0.307361  0  0.92235  0  0  0.295701  0  0.977045  0  0  0.301768  0  0.973517  0  0  0.289117  0.291393  0  0.97958  0
H  H41  1  0.57344084  0.38499885  0.63193477  1  0  0.307355  0  0.922363  0  0  0.295729  0  0.977026  0  0  0.30179  0  0.973501  0  0  0.289111  0.291421  0  0.979561  0
H  H42  1  0.07344220  0.11500092  0.63193350  1  0  0.307343  0  0.922358  0  0  0.295668  0  0.977063  0  0  0.301734  0  0.973537  0  0  0.289106  0.29136  0  0.979597  0
H  H43  1  0.42655969  0.61500163  0.36806513  1  0  0.307358  0  0.922365  0  0  0.29573  0  0.977026  0  0  0.301793  0  0.973501  0  0  0.289119  0.291423  0  0.979561  0
C  C44  1  0.07169478  0.81905186  0.23544779  1  0  0.085102  0  3.647478  0  0  0.024609  0  3.916543  0  0  0.028817  0  3.929916  0  0  -0.077176  0.021855  0  3.907315  0
C  C45  1  0.42830592  0.31905021  0.76455330  1  0  0.08516  0  3.647537  0  0  0.024663  0  3.916607  0  0  0.028867  0  3.929983  0  0  -0.07716  0.021911  0  3.907377  0
C  C46  1  0.92830704  0.18094863  0.76455386  1  0  0.08519  0  3.647526  0  0  0.024684  0  3.916577  0  0  0.028894  0  3.929955  0  0  -0.077133  0.021929  0  3.907348  0
C  C47  1  0.57169593  0.68094906  0.23544667  1  0  0.085108  0  3.647554  0  0  0.024611  0  3.91663  0  0  0.028819  0  3.930007  0  0  -0.077177  0.021857  0  3.907403  0
C  C48  1  0.01392330  0.96339952  0.16195875  1  0  -0.13728  0  3.699504  0  0  -0.176555  0  3.961884  0  0  -0.178159  0  3.97752  0  0  -0.167262  -0.175207  0  3.950968  0
C  C49  1  0.48607490  0.46339672  0.83804137  1  0  -0.137352  0  3.699579  0  0  -0.1766  0  3.961975  0  0  -0.178218  0  3.977608  0  0  -0.167297  -0.175253  0  3.951063  0
C  C50  1  0.98607722  0.03660219  0.83804197  1  0  -0.137396  0  3.699594  0  0  -0.176652  0  3.961985  0  0  -0.178266  0  3.977619  0  0  -0.167327  -0.175307  0  3.95108  0
C  C51  1  0.51392564  0.53660256  0.16195769  1  0  -0.137388  0  3.699656  0  0  -0.176662  0  3.962078  0  0  -0.178281  0  3.977711  0  0  -0.167341  -0.175317  0  3.951175  0
C  C52  1  0.03049103  0.92896292  0.03793715  1  0  -0.097058  0  3.705951  0  0  -0.134845  0  3.96613  0  0  -0.13623  0  3.982455  0  0  -0.162219  -0.133703  0  3.954716  0
C  C53  1  0.46950846  0.42896013  0.96206304  1  0  -0.097106  0  3.706103  0  0  -0.13493  0  3.966299  0  0  -0.136315  0  3.982627  0  0  -0.162225  -0.133787  0  3.95489  0
C  C54  1  0.96950685  0.07103879  0.96206342  1  0  -0.096997  0  3.706087  0  0  -0.134826  0  3.966268  0  0  -0.136211  0  3.982595  0  0  -0.162188  -0.133689  0  3.95486  0
C  C55  1  0.53049209  0.57103792  0.03793602  1  0  -0.096999  0  3.706139  0  0  -0.134808  0  3.966311  0  0  -0.136193  0  3.982641  0  0  -0.16218  -0.133668  0  3.954901  0
N  N56  1  0.05425815  0.85218986  0.35575329  1  0  -0.65847  0  3.117182  0  0  -0.590525  0  3.383137  0  0  -0.611114  0  3.378173  0  0  -0.635119  -0.576225  0  3.386429  0
N  N57  1  0.44574129  0.35219064  0.64424606  1  0  -0.658458  0  3.117215  0  0  -0.590549  0  3.383139  0  0  -0.611127  0  3.378169  0  0  -0.635095  -0.576249  0  3.386432  0
N  N58  1  0.94574238  0.14781063  0.64424660  1  0  -0.658516  0  3.117189  0  0  -0.590547  0  3.383181  0  0  -0.611144  0  3.378224  0  0  -0.635134  -0.576246  0  3.38647  0
N  N59  1  0.55425794  0.64780985  0.35575293  1  0  -0.658462  0  3.117199  0  0  -0.590541  0  3.383118  0  0  -0.611129  0  3.378152  0  0  -0.635104  -0.576241  0  3.386409  0
O  O60  1  0.40518875  0.03951433  0.32096100  1  0  -0.853035  0  2.037926  0  0  -0.75554  0  2.336143  0  0  -0.783976  0  2.312533  0  0  -0.389473  -0.73536  0  2.351633  0
O  O61  1  0.09481044  0.53951367  0.67903829  1  0  -0.853009  0  2.037876  0  0  -0.755539  0  2.336107  0  0  -0.783975  0  2.312501  0  0  -0.389478  -0.735359  0  2.351595  0
O  O62  1  0.59481180  0.96048616  0.67903806  1  0  -0.853001  0  2.037976  0  0  -0.755496  0  2.336146  0  0  -0.783937  0  2.312551  0  0  -0.389441  -0.735315  0  2.351632  0
O  O63  1  0.90518879  0.46048561  0.32096069  1  0  -0.853014  0  2.037923  0  0  -0.755537  0  2.336147  0  0  -0.783973  0  2.31254  0  0  -0.389474  -0.735356  0  2.351633  0
O  O64  1  0.58161806  0.26516630  0.42424173  1  0  -0.854775  0  2.065535  0  0  -0.755697  0  2.373993  0  0  -0.783024  0  2.348208  0  0  -0.385967  -0.736415  0  2.391225  0
O  O65  1  0.91838233  0.76516705  0.57575866  1  0  -0.854787  0  2.06556  0  0  -0.755713  0  2.374026  0  0  -0.78304  0  2.348249  0  0  -0.385963  -0.73643  0  2.391256  0
O  O66  1  0.41838115  0.73483297  0.57575809  1  0  -0.854748  0  2.065495  0  0  -0.755674  0  2.373931  0  0  -0.783001  0  2.348148  0  0  -0.385978  -0.736393  0  2.391165  0
O  O67  1  0.08161688  0.23483344  0.42424116  1  0  -0.854752  0  2.065522  0  0  -0.755689  0  2.373989  0  0  -0.783018  0  2.348211  0  0  -0.385971  -0.736407  0  2.391221  0
O  O68  1  0.70798895  0.97657564  0.41746147  1  0  -0.858812  0  2.07813  0  0  -0.74928  0  2.363098  0  0  -0.777201  0  2.338655  0  0  -0.378684  -0.729687  0  2.379536  0
O  O69  1  0.79201165  0.47657873  0.58253728  1  0  -0.858828  0  2.078162  0  0  -0.749328  0  2.363161  0  0  -0.777214  0  2.338683  0  0  -0.378692  -0.729736  0  2.3796  0
O  O70  1  0.29201029  0.02342363  0.58253668  1  0  -0.858744  0  2.078024  0  0  -0.749247  0  2.363003  0  0  -0.777151  0  2.338546  0  0  -0.378696  -0.729655  0  2.379444  0
O  O71  1  0.20798888  0.52342176  0.41746262  1  0  -0.858777  0  2.078161  0  0  -0.749279  0  2.363155  0  0  -0.777163  0  2.338678  0  0  -0.378676  -0.729686  0  2.379593  0
