# generated using pymatgen
data_ZnH19C21NO6
_symmetry_space_group_name_H-M   'P 1'
_cell_length_a   10.75606956
_cell_length_b   13.95488255
_cell_length_c   15.28002598
_cell_angle_alpha   90.19453121
_cell_angle_beta   91.41132364
_cell_angle_gamma   89.14386082
_symmetry_Int_Tables_number   1
_chemical_formula_structural   ZnH19C21NO6
_chemical_formula_sum   'Zn2 H38 C42 N2 O12'
_cell_volume   2292.56488740
_cell_formula_units_Z   2
loop_
 _symmetry_equiv_pos_site_id
 _symmetry_equiv_pos_as_xyz
  1  'x, y, z'
loop_
 _atom_site_type_symbol
 _atom_site_label
 _atom_site_symmetry_multiplicity
 _atom_site_fract_x
 _atom_site_fract_y
 _atom_site_fract_z
 _atom_site_occupancy
 _atom_site_pbe_bader_charge
 _atom_site_pbe_bader_spin_density
 _atom_site_pbe_cm5_charge
 _atom_site_pbe_ddec_charge
 _atom_site_pbe_ddec_spin_density
 _atom_site_pbe_ddec_sum_bond_order
 _atom_site_pbe_magmom
Zn  Zn0  1  0.49734663  0.39749122  0.49946294  1  1.271999  0  0.664477  0.823888  0  2.432412  0
Zn  Zn1  1  0.49986885  0.59984715  0.50098012  1  1.287398  0  0.665315  0.825194  0  2.393273  0
H  H2  1  0.87869102  0.56027342  0.37381564  1  0.080502  0  0.096773  0.085035  0  0.993942  0
H  H3  1  0.57355680  0.64572355  0.05960701  1  0.050415  0  0.097119  0.095196  0  1.010178  0
H  H4  1  0.46443610  0.35334752  0.22356400  1  0.098313  0  0.10022  0.10391  0  1.010981  0
H  H5  1  0.41234769  0.64476973  0.77797753  1  0.10684  0  0.10215  0.106698  0  1.000148  0
H  H6  1  0.53333068  0.35110953  0.77607625  1  0.088665  0  0.100275  0.104282  0  1.009147  0
H  H7  1  0.58812229  0.64349008  0.22300531  1  0.092178  0  0.101805  0.105806  0  1.001543  0
H  H8  1  0.31965069  0.75017140  0.45542897  1  0.141162  0  0.11873  0.106348  0  1.053364  0
H  H9  1  0.38302841  0.24865125  0.60503587  1  0.115953  0  0.122426  0.107975  0  1.026066  0
H  H10  1  0.68336870  0.74698026  0.54555771  1  0.142556  0  0.119627  0.107156  0  1.044964  0
H  H11  1  0.61151482  0.24784174  0.39242501  1  0.127207  0  0.122167  0.10825  0  1.026858  0
H  H12  1  0.15220016  0.85357694  0.47211134  1  0.044926  0  0.101287  0.056785  0  0.97837  0
H  H13  1  0.11774379  0.45121283  0.63230173  1  0.052978  0  0.095732  0.083021  0  0.99328  0
H  H14  1  0.20971599  0.84412078  0.36389273  1  0.06791  0  0.107008  0.068319  0  0.958166  0
H  H15  1  0.12121744  0.00670391  0.32740358  1  0.039131  0  0.097059  0.132468  0  0.985569  0
H  H16  1  0.00286039  0.93033645  0.36546258  1  0.034829  0  0.094517  0.123608  0  1.008959  0
H  H17  1  0.06720514  0.01959796  0.43609784  1  0.053908  0  0.093795  0.125934  0  1.005547  0
H  H18  1  0.22766185  0.14727257  0.65121694  1  0.053739  0  0.105369  0.065148  0  0.959684  0
H  H19  1  0.36234010  0.15265856  0.72158446  1  0.049052  0  0.105397  0.065212  0  0.962241  0
H  H20  1  0.31829240  0.98746402  0.77772529  1  0.032968  0  0.096559  0.130832  0  0.988189  0
H  H21  1  0.19005240  0.06708495  0.79496064  1  0.044958  0  0.097537  0.129084  0  0.990247  0
H  H22  1  0.18359036  0.98200661  0.70786666  1  0.009327  0  0.092182  0.123292  0  1.013089  0
H  H23  1  0.85133883  0.84658786  0.52647294  1  0.028718  0  0.103131  0.061434  0  0.967593  0
H  H24  1  0.05197954  0.40322975  0.37833646  1  0.047828  0  0.09459  0.079365  0  0.997689  0
H  H25  1  0.79453536  0.84104947  0.63494639  1  0.053733  0  0.106577  0.066857  0  0.960162  0
H  H26  1  0.88225512  0.00278032  0.66873582  1  0.051758  0  0.097036  0.131675  0  0.986291  0
H  H27  1  0.00100972  0.92331840  0.63135937  1  0.027308  0  0.094904  0.124023  0  1.007983  0
H  H28  1  0.93525607  0.01205717  0.55963805  1  0.057051  0  0.093473  0.125019  0  1.008283  0
H  H29  1  0.76901332  0.14691129  0.34518124  1  0.059475  0  0.10535  0.065131  0  0.958896  0
H  H30  1  0.63355263  0.15115155  0.27529415  1  0.032008  0  0.105338  0.065027  0  0.962319  0
H  H31  1  0.68517994  0.98596819  0.21866117  1  0.039141  0  0.096636  0.130801  0  0.988283  0
H  H32  1  0.80964968  0.06614122  0.20149049  1  0.040715  0  0.097974  0.129568  0  0.990688  0
H  H33  1  0.82030655  0.98144482  0.28834915  1  0.033659  0  0.091908  0.122458  0  1.014936  0
H  H34  1  0.94557480  0.60850212  0.62799022  1  0.071308  0  0.091252  0.074878  0  1.004603  0
H  H35  1  0.93988990  0.34011751  0.53549038  1  0.078274  0  0.090565  0.075789  0  1.006274  0
H  H36  1  0.05583258  0.67165818  0.47015313  1  0.038055  0  0.084258  0.06339  0  1.026697  0
H  H37  1  0.44327801  0.35539130  0.06069448  1  0.061984  0  0.096546  0.09379  0  1.014267  0
H  H38  1  0.42893691  0.64751573  0.94136290  1  0.038004  0  0.097352  0.095233  0  1.010656  0
H  H39  1  0.55651447  0.35346476  0.93894571  1  0.054788  0  0.096331  0.093692  0  1.013939  0
C  C40  1  0.53116934  0.49599445  0.33101635  1  1.564424  0  0.209342  0.585138  0  4.193031  0
C  C41  1  0.56316474  0.20349888  0.43863453  1  0.49622  0  0.022274  -0.077964  0  3.962964  0
C  C42  1  0.50162973  0.94571096  0.49876260  1  0.131183  0  -0.007898  -0.073779  0  3.966602  0
C  C43  1  0.50079552  0.05161844  0.49862449  1  0.034508  0  -0.007689  -0.072581  0  3.96628  0
C  C44  1  0.25885208  0.50802050  0.47848151  1  1.582643  0  0.211366  0.592404  0  4.191307  0
C  C45  1  0.73782432  0.49870730  0.52517892  1  1.560719  0  0.210981  0.591831  0  4.196665  0
C  C46  1  0.02633626  0.44820540  0.43402060  1  -0.018814  0  -0.076654  -0.064938  0  3.643877  0
C  C47  1  0.97016868  0.56334518  0.57211974  1  -0.044552  0  -0.080976  -0.071111  0  3.654219  0
C  C48  1  0.96749665  0.41335914  0.52093105  1  -0.058295  0  -0.083081  -0.072773  0  3.663863  0
C  C49  1  0.02931626  0.59813148  0.48506206  1  -0.049107  0  -0.085409  -0.073677  0  3.669345  0
C  C50  1  0.93452215  0.53629784  0.43067024  1  -0.046551  0  -0.073869  -0.062757  0  3.625252  0
C  C51  1  0.46634348  0.49578895  0.66935992  1  1.569767  0  0.209566  0.583742  0  4.192732  0
C  C52  1  0.06217502  0.47516376  0.57532703  1  -0.026169  0  -0.075123  -0.060844  0  3.630755  0
C  C53  1  0.87515675  0.50082902  0.51842077  1  0.018004  0  -0.009701  -0.025659  0  3.657342  0
C  C54  1  0.12177039  0.51061284  0.48817934  1  -0.00265  0  -0.009094  -0.025308  0  3.651569  0
C  C55  1  0.47787331  0.41814042  0.09575670  1  -0.099596  0  -0.09736  -0.141101  0  4.010647  0
C  C56  1  0.45384897  0.58262651  0.90538051  1  0.020631  0  -0.096473  -0.141655  0  3.999531  0
C  C57  1  0.52203208  0.41697683  0.90415056  1  -0.083357  0  -0.097457  -0.141847  0  4.008296  0
C  C58  1  0.54759703  0.58176450  0.09532247  1  -0.083733  0  -0.0953  -0.139981  0  3.996257  0
C  C59  1  0.48866098  0.41663513  0.18647399  1  -0.016451  0  -0.090491  -0.094066  0  4.011061  0
C  C60  1  0.44286498  0.58124168  0.81436969  1  -0.096476  0  -0.086876  -0.089111  0  3.992801  0
C  C61  1  0.51007653  0.41528445  0.81343299  1  -0.00945  0  -0.090895  -0.094816  0  4.008347  0
C  C62  1  0.39553998  0.89472368  0.47177336  1  0.467787  0  0.092839  0.187493  0  4.071981  0
C  C63  1  0.55740866  0.58059961  0.18639289  1  -0.01174  0  -0.088037  -0.091227  0  3.996502  0
C  C64  1  0.52768295  0.49799357  0.23288193  1  0.030131  0  -0.021074  -0.033092  0  3.971619  0
C  C65  1  0.47112386  0.49753821  0.76749789  1  0.014137  0  -0.02126  -0.033065  0  3.970727  0
C  C66  1  0.50686884  0.50073772  0.04831474  1  -0.029041  0  -0.007817  0.071755  0  4.007887  0
C  C67  1  0.49436362  0.50066647  0.95193930  1  -0.116181  0  -0.007577  0.072164  0  4.008388  0
C  C68  1  0.18549591  0.89514411  0.41625766  1  0.38744  0  -0.060671  0.085931  0  3.910723  0
C  C69  1  0.08876136  0.96752743  0.38445517  1  -0.065476  0  -0.239802  -0.39548  0  3.975474  0
C  C70  1  0.30051751  0.10368309  0.68485737  1  0.406599  0  -0.05963  0.085496  0  3.909203  0
C  C71  1  0.24497003  0.03053897  0.74478925  1  -0.023802  0  -0.239793  -0.393037  0  3.975758  0
C  C72  1  0.81814486  0.89027865  0.58174561  1  0.414922  0  -0.060341  0.085855  0  3.90774  0
C  C73  1  0.43272474  0.10369221  0.56066043  1  0.538296  0  0.093575  0.185905  0  4.075572  0
C  C74  1  0.91464628  0.96162204  0.61213077  1  -0.065582  0  -0.240103  -0.394794  0  3.976988  0
C  C75  1  0.69798056  0.10272666  0.31176660  1  0.418058  0  -0.0592  0.087467  0  3.906669  0
C  C76  1  0.75656671  0.02950263  0.25161181  1  -0.044301  0  -0.240265  -0.393442  0  3.976858  0
C  C77  1  0.60775419  0.89295514  0.52649014  1  0.443099  0  0.093541  0.18654  0  4.073394  0
C  C78  1  0.56689158  0.10309197  0.43647803  1  0.527758  0  0.093627  0.187165  0  4.074814  0
C  C79  1  0.39844482  0.79441025  0.47416891  1  0.560135  0  0.019431  -0.08113  0  3.960107  0
C  C80  1  0.43285147  0.20404866  0.55865517  1  0.493156  0  0.021679  -0.076959  0  3.963269  0
C  C81  1  0.60473363  0.79259649  0.52585296  1  0.490762  0  0.019792  -0.079489  0  3.959253  0
N  N82  1  0.50147920  0.74656471  0.50051647  1  -1.237158  0  -0.323029  -0.138558  0  3.61767  0
N  N83  1  0.49729728  0.25075245  0.49870083  1  -1.211894  0  -0.322796  -0.137524  0  3.614644  0
O  O84  1  0.51361718  0.41484205  0.36636843  1  -1.172286  0  -0.320085  -0.55266  0  2.343829  0
O  O85  1  0.37127751  0.05185588  0.62053078  1  -1.068504  0  -0.17697  -0.19429  0  2.548373  0
O  O86  1  0.70835193  0.94378504  0.55390936  1  -1.061347  0  -0.177089  -0.193705  0  2.540032  0
O  O87  1  0.63002784  0.05095842  0.37635045  1  -1.07386  0  -0.17719  -0.195981  0  2.544687  0
O  O88  1  0.44890461  0.57528026  0.62998223  1  -1.169016  0  -0.322554  -0.553342  0  2.300534  0
O  O89  1  0.48260742  0.41425650  0.63305565  1  -1.173788  0  -0.321599  -0.554851  0  2.338495  0
O  O90  1  0.54885860  0.57483184  0.37135252  1  -1.177278  0  -0.322844  -0.556896  0  2.302741  0
O  O91  1  0.30989232  0.42558132  0.48730985  1  -1.168148  0  -0.32335  -0.551178  0  2.312655  0
O  O92  1  0.68251552  0.57874436  0.53957822  1  -1.172964  0  -0.324478  -0.556244  0  2.315644  0
O  O93  1  0.68606820  0.41855961  0.51130649  1  -1.169242  0  -0.319548  -0.545886  0  2.315422  0
O  O94  1  0.31457792  0.58659328  0.46545298  1  -1.17047  0  -0.320894  -0.550693  0  2.31756  0
O  O95  1  0.29484996  0.94708234  0.44359419  1  -1.053824  0  -0.176418  -0.192972  0  2.542015  0
