# generated using pymatgen
data_CdH8C10SN4O3
_symmetry_space_group_name_H-M   'P 1'
_cell_length_a   9.15638923
_cell_length_b   10.09186468
_cell_length_c   15.04208879
_cell_angle_alpha   73.29892696
_cell_angle_beta   86.50982769
_cell_angle_gamma   83.34610687
_symmetry_Int_Tables_number   1
_chemical_formula_structural   CdH8C10SN4O3
_chemical_formula_sum   'Cd4 H32 C40 S4 N16 O12'
_cell_volume   1321.80881753
_cell_formula_units_Z   4
loop_
 _symmetry_equiv_pos_site_id
 _symmetry_equiv_pos_as_xyz
  1  'x, y, z'
loop_
 _atom_site_type_symbol
 _atom_site_label
 _atom_site_symmetry_multiplicity
 _atom_site_fract_x
 _atom_site_fract_y
 _atom_site_fract_z
 _atom_site_occupancy
 _atom_site_hle17_bader_spin_density
 _atom_site_hle17_ddec_charge
 _atom_site_hle17_ddec_spin_density
 _atom_site_hle17_ddec_sum_bond_order
 _atom_site_hle17_magmom
 _atom_site_hse06_10hf_bader_charge
 _atom_site_hse06_10hf_bader_spin_density
 _atom_site_hse06_10hf_ddec_charge
 _atom_site_hse06_10hf_ddec_spin_density
 _atom_site_hse06_10hf_ddec_sum_bond_order
 _atom_site_hse06_10hf_magmom
 _atom_site_hse06_bader_spin_density
 _atom_site_hse06_ddec_charge
 _atom_site_hse06_ddec_spin_density
 _atom_site_hse06_ddec_sum_bond_order
 _atom_site_hse06_magmom
 _atom_site_pbe_bader_spin_density
 _atom_site_pbe_cm5_charge
 _atom_site_pbe_ddec_charge
 _atom_site_pbe_ddec_spin_density
 _atom_site_pbe_ddec_sum_bond_order
 _atom_site_pbe_magmom
Cd  Cd0  1  0.14239068  0.57699947  0.26768270  1  0  1.164736  0  1.806272  0  1.350019  0  0.971821  0  2.288853  0  0  1.022318  0  2.237523  0  0  0.821409  0.936279  0  2.323596  0
Cd  Cd1  1  0.85761334  0.42300081  0.73231504  1  0  1.164744  0  1.806209  0  1.349987  0  0.971819  0  2.288776  0  0  1.022319  0  2.237445  0  0  0.821428  0.93627  0  2.323517  0
Cd  Cd2  1  0.53849208  0.74633941  0.28162383  1  0  1.067032  0  1.751918  0  1.268203  0  0.890665  0  2.201286  0  0  0.945279  0  2.152061  0  0  0.717457  0.852226  0  2.234607  0
Cd  Cd3  1  0.46151157  0.25366395  0.71837536  1  0  1.067014  0  1.752037  0  1.268161  0  0.890647  0  2.201415  0  0  0.94526  0  2.152194  0  0  0.717444  0.852207  0  2.234734  0
H  H4  1  0.81096259  0.53410340  0.18394027  1  0  0.120846  0  0.938395  0  0.206436  0  0.128628  0  1.002429  0  0  0.131227  0  0.999387  0  0  0.145163  0.126734  0  1.004534  0
H  H5  1  0.18903081  0.46589376  0.81605904  1  0  0.120861  0  0.938354  0  0.206484  0  0.128654  0  1.00235  0  0  0.131256  0  0.999306  0  0  0.145169  0.126758  0  1.004456  0
H  H6  1  0.03111945  0.25811692  0.04327791  1  0  0.117577  0  0.903607  0  0.172563  0  0.132022  0  0.954415  0  0  0.134748  0  0.951416  0  0  0.150981  0.129843  0  0.956912  0
H  H7  1  0.96888123  0.74188330  0.95672327  1  0  0.117574  0  0.903621  0  0.172546  0  0.132019  0  0.954434  0  0  0.134744  0  0.951435  0  0  0.150982  0.12984  0  0.956929  0
H  H8  1  0.80769774  0.34217084  0.94733240  1  0  0.113446  0  0.975405  0  0.109868  0  0.117034  0  1.051369  0  0  0.120673  0  1.048364  0  0  0.106374  0.114417  0  1.05354  0
H  H9  1  0.19229919  0.65782427  0.05266518  1  0  0.113476  0  0.97544  0  0.109888  0  0.117073  0  1.051408  0  0  0.120709  0  1.048399  0  0  0.106389  0.114453  0  1.053578  0
H  H10  1  0.34991504  0.30184239  0.01848128  1  0  0.104353  0  0.951335  0  0.130302  0  0.110544  0  1.018501  0  0  0.114659  0  1.014828  0  0  0.102949  0.107533  0  1.021221  0
H  H11  1  0.65008096  0.69816100  0.98151747  1  0  0.104342  0  0.951317  0  0.130372  0  0.110572  0  1.018438  0  0  0.114689  0  1.014762  0  0  0.102971  0.107539  0  1.02118  0
H  H12  1  0.38604066  0.33193701  0.17305503  1  0  0.094076  0  0.986789  0  0.116798  0  0.097993  0  1.058535  0  0  0.100613  0  1.057534  0  0  0.098406  0.095975  0  1.059631  0
H  H13  1  0.61395566  0.66806324  0.82694495  1  0  0.094084  0  0.98681  0  0.116883  0  0.09799  0  1.058562  0  0  0.100608  0  1.057566  0  0  0.098417  0.095973  0  1.05966  0
H  H14  1  0.63468375  0.36370983  0.21748389  1  0  0.102361  0  0.975865  0  0.117608  0  0.105534  0  1.051793  0  0  0.108686  0  1.050454  0  0  0.097933  0.103276  0  1.052801  0
H  H15  1  0.36531622  0.63628734  0.78251456  1  0  0.102365  0  0.975844  0  0.117575  0  0.10553  0  1.051781  0  0  0.108682  0  1.050442  0  0  0.097918  0.103272  0  1.052789  0
H  H16  1  0.99233072  0.71733935  0.44483765  1  0  0.123767  0  0.920244  0  0.177007  0  0.134608  0  0.977822  0  0  0.136746  0  0.975524  0  0  0.150303  0.133073  0  0.979416  0
H  H17  1  0.00766861  0.28266290  0.55516586  1  0  0.123795  0  0.92018  0  0.177007  0  0.134593  0  0.977797  0  0  0.136731  0  0.975502  0  0  0.150311  0.133059  0  0.979392  0
H  H18  1  0.40762581  0.84646368  0.47358756  1  0  0.119315  0  0.955492  0  0.224721  0  0.122872  0  1.026246  0  0  0.126135  0  1.022062  0  0  0.135644  0.120498  0  1.02912  0
H  H19  1  0.59237165  0.15354705  0.52640647  1  0  0.119302  0  0.955537  0  0.224701  0  0.122873  0  1.026274  0  0  0.126137  0  1.02209  0  0  0.135644  0.120499  0  1.029149  0
H  H20  1  0.28718949  0.00288940  0.53588253  1  0  0.109596  0  0.998082  0  0.132554  0  0.11187  0  1.075427  0  0  0.115817  0  1.072291  0  0  0.097015  0.109019  0  1.077746  0
H  H21  1  0.71280496  0.99711813  0.46411617  1  0  0.109638  0  0.998055  0  0.132526  0  0.111888  0  1.075428  0  0  0.115829  0  1.072302  0  0  0.097027  0.109036  0  1.077745  0
H  H22  1  0.99245465  0.98700929  0.77105480  1  0  0.085728  0  0.964357  0  0.092347  0  0.097358  0  1.026909  0  0  0.100854  0  1.023987  0  0  0.10046  0.09476  0  1.029212  0
H  H23  1  0.00754603  0.01299093  0.22894638  1  0  0.08576  0  0.964309  0  0.092375  0  0.097376  0  1.026877  0  0  0.100873  0  1.023953  0  0  0.100485  0.094778  0  1.02918  0
H  H24  1  0.85158765  0.82198470  0.72483839  1  0  0.094017  0  0.970873  0  0.109025  0  0.101294  0  1.036131  0  0  0.103815  0  1.035488  0  0  0.099151  0.0995  0  1.036667  0
H  H25  1  0.14841204  0.17801447  0.27516368  1  0  0.094076  0  0.970844  0  0.108874  0  0.101353  0  1.036092  0  0  0.103868  0  1.035463  0  0  0.099164  0.099561  0  1.036631  0
H  H26  1  0.93946407  0.73085515  0.59339176  1  0  0.110024  0  0.964119  0  0.106451  0  0.119257  0  1.028012  0  0  0.121513  0  1.027415  0  0  0.107486  0.117565  0  1.028724  0
H  H27  1  0.06053891  0.26914403  0.40660955  1  0  0.110009  0  0.964134  0  0.10628  0  0.119253  0  1.028018  0  0  0.121508  0  1.027423  0  0  0.107475  0.117563  0  1.028728  0
H  H28  1  0.94097813  0.82712050  0.19034174  1  0  0.434252  0  0.869245  0  0.666912  0  0.399611  0  0.938147  0  0  0.411466  0  0.921019  0  0  0.28092  0.391171  0  0.950348  0
H  H29  1  0.05903029  0.17287863  0.80966141  1  0  0.434294  0  0.869165  0  0.66688  0  0.399651  0  0.938081  0  0  0.411505  0  0.920956  0  0  0.280929  0.391202  0  0.950292  0
H  H30  1  0.10877454  0.84228430  0.15310202  1  0  0.419625  0  0.832898  0  0.59818  0  0.40134  0  0.889302  0  0  0.409928  0  0.879396  0  0  0.31014  0.395145  0  0.896586  0
H  H31  1  0.89123451  0.15770970  0.84689806  1  0  0.419639  0  0.832909  0  0.597644  0  0.401357  0  0.889309  0  0  0.409944  0  0.879404  0  0  0.310145  0.395158  0  0.896591  0
H  H32  1  0.43145401  0.04056803  0.25108617  1  0  0.379695  0  0.92724  0  0.625301  0  0.347606  0  1.003421  0  0  0.357088  0  0.990095  0  0  0.265131  0.340913  0  1.012812  0
H  H33  1  0.56855096  0.95943325  0.74891336  1  0  0.379672  0  0.927254  0  0.625308  0  0.347586  0  1.003445  0  0  0.357067  0  0.990121  0  0  0.265125  0.340895  0  1.012835  0
H  H34  1  0.49964917  0.03230763  0.15543009  1  0  0.419473  0  0.823095  0  0.601152  0  0.403794  0  0.875699  0  0  0.411397  0  0.867765  0  0  0.313495  0.398528  0  0.881172  0
H  H35  1  0.50035219  0.96769679  0.84456831  1  0  0.419533  0  0.82306  0  0.601192  0  0.403858  0  0.875656  0  0  0.411462  0  0.867722  0  0  0.313543  0.398595  0  0.881132  0
C  C36  1  0.89843455  0.47193278  0.15770314  1  0  0.172495  0  3.615784  0  1.019438  0  0.11139  0  3.877482  0  0  0.12476  0  3.890498  0  0  0.165057  0.102666  0  3.8685  0
C  C37  1  0.10156091  0.52806541  0.84229658  1  0  0.17239  0  3.615687  0  1.019407  0  0.111263  0  3.877407  0  0  0.124632  0  3.890425  0  0  0.164989  0.10254  0  3.86842  0
C  C38  1  0.01217901  0.33159774  0.08418798  1  0  0.143513  0  3.642478  0  0.977114  0  0.084846  0  3.921837  0  0  0.095848  0  3.933132  0  0  0.155331  0.077744  0  3.91406  0
C  C39  1  0.98781950  0.66840250  0.91581261  1  0  0.143504  0  3.642433  0  0.977513  0  0.084814  0  3.921786  0  0  0.095816  0  3.933083  0  0  0.155331  0.077714  0  3.914006  0
C  C40  1  0.73477763  0.35548946  0.08447744  1  0  0.170974  0  3.777857  0  0.250608  0  0.165397  0  4.027845  0  0  0.168872  0  4.050696  0  0  0.090266  0.162887  0  4.012429  0
C  C41  1  0.26522343  0.64450769  0.91552164  1  0  0.171075  0  3.777677  0  0.250627  0  0.165432  0  4.027729  0  0  0.16891  0  4.050577  0  0  0.090256  0.16292  0  4.012311  0
C  C42  1  0.71657496  0.33671281  0.99775355  1  0  -0.140189  0  3.699866  0  0.017069  0  -0.174402  0  3.951477  0  0  -0.175352  0  3.971103  0  0  -0.083241  -0.173544  0  3.938198  0
C  C43  1  0.28342203  0.66328119  0.00224823  1  0  -0.140294  0  3.699868  0  0.016873  0  -0.174543  0  3.951579  0  0  -0.175487  0  3.971194  0  0  -0.083289  -0.173685  0  3.938299  0
C  C44  1  0.57702457  0.31625163  0.97441690  1  0  -0.057669  0  3.774117  0  -0.016656  0  -0.027453  0  3.997453  0  0  -0.036415  0  4.022177  0  0  -0.019096  -0.021814  0  3.980845  0
C  C45  1  0.42297144  0.68374134  0.02558443  1  0  -0.057628  0  3.773981  0  -0.016957  0  -0.027437  0  3.997339  0  0  -0.036399  0  4.022066  0  0  -0.019097  -0.021799  0  3.980725  0
C  C46  1  0.45863837  0.31464941  0.03813754  1  0  -0.068424  0  3.729635  0  0.000979  0  -0.097284  0  3.980938  0  0  -0.096349  0  4.00005  0  0  -0.081917  -0.097602  0  3.967833  0
C  C47  1  0.54136083  0.68534462  0.96186217  1  0  -0.068422  0  3.729577  0  0.000963  0  -0.097293  0  3.980844  0  0  -0.09636  0  3.999958  0  0  -0.081914  -0.097583  0  3.967737  0
C  C48  1  0.47939171  0.33182968  0.12488797  1  0  -0.064736  0  3.784502  0  -0.065429  0  -0.076192  0  4.038552  0  0  -0.07949  0  4.060918  0  0  -0.089633  -0.073964  0  4.023538  0
C  C49  1  0.52060944  0.66816640  0.87511263  1  0  -0.06479  0  3.784522  0  -0.065509  0  -0.076263  0  4.0386  0  0  -0.079563  0  4.060967  0  0  -0.089706  -0.074036  0  4.023584  0
C  C50  1  0.61804685  0.35131554  0.14922516  1  0  -0.121054  0  3.705914  0  -0.034031  0  -0.145434  0  3.958882  0  0  -0.147311  0  3.979014  0  0  -0.083325  -0.144025  0  3.945345  0
C  C51  1  0.38195322  0.64868056  0.85077481  1  0  -0.12104  0  3.705897  0  -0.033955  0  -0.145366  0  3.958811  0  0  -0.147242  0  3.978944  0  0  -0.08325  -0.143955  0  3.945275  0
C  C52  1  0.55178261  0.30159645  0.88055836  1  0  0.65367  0  3.899676  0  1.574069  0  0.605403  0  4.180902  0  0  0.640558  0  4.175075  0  0  0.200765  0.581596  0  4.184275  0
C  C53  1  0.44821559  0.69839652  0.11944291  1  0  0.653756  0  3.899565  0  1.574354  0  0.605555  0  4.180681  0  0  0.640708  0  4.174858  0  0  0.200821  0.58175  0  4.184053  0
C  C54  1  0.10579825  0.73997129  0.43333188  1  0  0.181658  0  3.616455  0  1.039584  0  0.115685  0  3.889349  0  0  0.128752  0  3.902292  0  0  0.169026  0.107156  0  3.880322  0
C  C55  1  0.89420112  0.26003102  0.56666830  1  0  0.181607  0  3.61637  0  1.040008  0  0.115676  0  3.889261  0  0  0.128741  0  3.902206  0  0  0.168991  0.107147  0  3.880235  0
C  C56  1  0.31874971  0.80770929  0.44699818  1  0  0.183061  0  3.607782  0  0.994033  0  0.117989  0  3.880558  0  0  0.132807  0  3.890925  0  0  0.16718  0.108509  0  3.872935  0
C  C57  1  0.68125034  0.19229721  0.55299988  1  0  0.182933  0  3.607803  0  0.994151  0  0.117852  0  3.880554  0  0  0.132669  0  3.890925  0  0  0.167088  0.108376  0  3.872928  0
C  C58  1  0.12207220  0.85781691  0.55828023  1  0  0.177446  0  3.772289  0  0.246401  0  0.173048  0  4.019218  0  0  0.176939  0  4.041817  0  0  0.093387  0.170321  0  4.004117  0
C  C59  1  0.87792977  0.14218119  0.44172330  1  0  0.177493  0  3.772388  0  0.246523  0  0.173088  0  4.019309  0  0  0.176982  0  4.041906  0  0  0.093428  0.170359  0  4.004204  0
C  C60  1  0.19532806  0.95829677  0.57908687  1  0  -0.142573  0  3.715956  0  0.073141  0  -0.175999  0  3.967508  0  0  -0.176981  0  3.986708  0  0  -0.085516  -0.175177  0  3.954301  0
C  C61  1  0.80467249  0.04170447  0.42091546  1  0  -0.142736  0  3.716  0  0.073178  0  -0.176124  0  3.967524  0  0  -0.177099  0  3.986705  0  0  -0.085578  -0.175287  0  3.95433  0
C  C62  1  0.15028886  0.00344547  0.65697388  1  0  -0.057231  0  3.77425  0  -0.097002  0  -0.030127  0  4.006203  0  0  -0.038082  0  4.029342  0  0  -0.021346  -0.024952  0  3.990579  0
C  C63  1  0.84971294  0.99655477  0.34302594  1  0  -0.05716  0  3.774119  0  -0.096969  0  -0.030074  0  4.006078  0  0  -0.038025  0  4.029216  0  0  -0.021353  -0.024936  0  3.990504  0
C  C64  1  0.02705144  0.95265381  0.71005550  1  0  -0.07482  0  3.738458  0  -0.037062  0  -0.103659  0  3.989938  0  0  -0.103675  0  4.010126  0  0  -0.090154  -0.103312  0  3.976195  0
C  C65  1  0.97295130  0.04734742  0.28994677  1  0  -0.074827  0  3.738356  0  -0.037002  0  -0.103644  0  3.989834  0  0  -0.10366  0  4.010021  0  0  -0.090154  -0.103285  0  3.976103  0
C  C66  1  0.94909257  0.85909884  0.68478936  1  0  -0.054571  0  3.763277  0  -0.079404  0  -0.06895  0  4.021878  0  0  -0.071524  0  4.044512  0  0  -0.092816  -0.067302  0  4.006533  0
C  C67  1  0.05091345  0.14090239  0.31521281  1  0  -0.054673  0  3.763354  0  -0.079191  0  -0.06906  0  4.021966  0  0  -0.071637  0  4.044599  0  0  -0.092868  -0.067413  0  4.006623  0
C  C68  1  0.99751827  0.80872009  0.60973638  1  0  -0.125845  0  3.703142  0  0.035378  0  -0.152224  0  3.959363  0  0  -0.154716  0  3.980584  0  0  -0.08579  -0.15057  0  3.945655  0
C  C69  1  0.00248375  0.19127808  0.39026382  1  0  -0.125797  0  3.7032  0  0.035166  0  -0.15217  0  3.959408  0  0  -0.154661  0  3.980626  0  0  -0.085767  -0.150519  0  3.945701  0
C  C70  1  0.23981802  0.10096133  0.68355750  1  0  0.631567  0  3.929514  0  1.606465  0  0.580289  0  4.220339  0  0  0.61451  0  4.214984  0  0  0.194686  0.55681  0  4.223493  0
C  C71  1  0.76018583  0.89903992  0.31644340  1  0  0.631537  0  3.92949  0  1.606474  0  0.580252  0  4.220334  0  0  0.614471  0  4.214979  0  0  0.194659  0.556784  0  4.223491  0
C  C72  1  0.80776864  0.51906703  0.36489225  1  0  0.299195  0  4.013403  0  0.580907  0  0.277984  0  4.320514  0  0  0.30062  0  4.334372  0  0  0.142968  0.262168  0  4.312091  0
C  C73  1  0.19223598  0.48093736  0.63510739  1  0  0.299141  0  4.013491  0  0.580928  0  0.277933  0  4.320583  0  0  0.300564  0  4.33444  0  0  0.142942  0.262119  0  4.312165  0
C  C74  1  0.35988437  0.28003234  0.35127717  1  0  0.324008  0  4.031983  0  0.587272  0  0.305322  0  4.32761  0  0  0.328837  0  4.340156  0  0  0.150069  0.289336  0  4.318679  0
C  C75  1  0.64011766  0.71996584  0.64872236  1  0  0.323881  0  4.031766  0  0.587681  0  0.305192  0  4.327417  0  0  0.328709  0  4.339966  0  0  0.150021  0.289204  0  4.318479  0
S  S76  1  0.63727900  0.48482080  0.36924751  1  0  -0.309627  0  2.176961  0  0.083482  0  -0.283016  0  2.509372  0  0  -0.301028  0  2.5027  0  0  -0.124195  -0.270487  0  2.513741  0
S  S77  1  0.36273258  0.51518053  0.63074848  1  0  -0.309735  0  2.176781  0  0.083276  0  -0.283124  0  2.509186  0  0  -0.301137  0  2.502515  0  0  -0.124263  -0.270594  0  2.513555  0
S  S78  1  0.45066292  0.12712251  0.37372146  1  0  -0.35527  0  2.154878  0  0.078697  0  -0.328905  0  2.473146  0  0  -0.345838  0  2.46758  0  0  -0.129663  -0.316956  0  2.476503  0
S  S79  1  0.54933963  0.87288084  0.62627842  1  0  -0.35523  0  2.154742  0  0.078427  0  -0.328861  0  2.473015  0  0  -0.345793  0  2.46745  0  0  -0.129657  -0.316915  0  2.476372  0
N  N80  1  0.19598888  0.70791689  0.36925662  1  0  -0.252656  0  3.130859  0  -0.767339  0  -0.197807  0  3.419036  0  0  -0.212725  0  3.43615  0  0  -0.23061  -0.187352  0  3.406628  0
N  N81  1  0.80400809  0.29208752  0.63074258  1  0  -0.252627  0  3.130917  0  -0.767727  0  -0.197788  0  3.419083  0  0  -0.212706  0  3.436197  0  0  -0.230588  -0.187334  0  3.406676  0
N  N82  1  0.33009676  0.75084395  0.37800467  1  0  -0.242927  0  3.160033  0  -0.769646  0  -0.182847  0  3.443166  0  0  -0.199465  0  3.460744  0  0  -0.235523  -0.17156  0  3.43056  0
N  N83  1  0.66990088  0.24916464  0.62199241  1  0  -0.242871  0  3.160058  0  -0.76972  0  -0.182761  0  3.443153  0  0  -0.199376  0  3.460731  0  0  -0.235499  -0.171475  0  3.430547  0
N  N84  1  0.17784868  0.80490753  0.48325640  1  0  -0.112759  0  3.56006  0  -1.304489  0  -0.021896  0  3.772962  0  0  -0.038871  0  3.796507  0  0  -0.208681  -0.0108  0  3.757088  0
N  N85  1  0.82215168  0.19509583  0.51674289  1  0  -0.112709  0  3.560103  0  -1.304526  0  -0.021863  0  3.773013  0  0  -0.038836  0  3.796558  0  0  -0.20863  -0.010768  0  3.757137  0
N  N86  1  0.04159123  0.47102411  0.16567518  1  0  -0.282689  0  3.15996  0  -0.796312  0  -0.217399  0  3.453259  0  0  -0.235247  0  3.470724  0  0  -0.235202  -0.205155  0  3.441153  0
N  N87  1  0.95840191  0.52897509  0.83432576  1  0  -0.282604  0  3.159863  0  -0.797071  0  -0.217316  0  3.453171  0  0  -0.235164  0  3.470638  0  0  -0.235135  -0.205068  0  3.44106  0
N  N88  1  0.11441896  0.38207775  0.11917432  1  0  -0.216366  0  2.947761  0  -0.723314  0  -0.197031  0  3.238278  0  0  -0.204157  0  3.253697  0  0  -0.217889  -0.192201  0  3.227737  0
N  N89  1  0.88557623  0.61792245  0.88082837  1  0  -0.216339  0  2.947829  0  -0.722699  0  -0.197008  0  3.238351  0  0  -0.204134  0  3.253773  0  0  -0.217872  -0.192177  0  3.227807  0
N  N90  1  0.87456059  0.38431457  0.10709133  1  0  -0.111978  0  3.58617  0  -1.318538  0  -0.023535  0  3.804266  0  0  -0.039543  0  3.828472  0  0  -0.213098  -0.012967  0  3.787731  0
N  N91  1  0.12543805  0.61568466  0.89290744  1  0  -0.112017  0  3.586042  0  -1.318761  0  -0.023491  0  3.804088  0  0  -0.039499  0  3.828295  0  0  -0.213114  -0.012923  0  3.78755  0
N  N92  1  0.29534886  0.39284512  0.33408549  1  0  -0.577075  0  2.881238  0  -1.375844  0  -0.511698  0  3.160859  0  0  -0.535107  0  3.163463  0  0  -0.413527  -0.495386  0  3.158455  0
N  N93  1  0.70465551  0.60715205  0.66591215  1  0  -0.576977  0  2.88117  0  -1.375976  0  -0.511588  0  3.160782  0  0  -0.534998  0  3.163391  0  0  -0.413484  -0.495277  0  3.158372  0
N  N94  1  0.93264810  0.54108562  0.36179070  1  0  -0.563354  0  2.848035  0  -1.320597  0  -0.509893  0  3.127748  0  0  -0.531301  0  3.132974  0  0  -0.39854  -0.495334  0  3.124877  0
N  N95  1  0.06737171  0.45891976  0.63820962  1  0  -0.5632  0  2.848246  0  -1.320403  0  -0.509727  0  3.127918  0  0  -0.53113  0  3.133145  0  0  -0.398455  -0.495159  0  3.125042  0
O  O96  1  0.34563698  0.14768275  0.62848616  1  0  -0.615872  0  1.984787  0  -1.182635  0  -0.547648  0  2.22312  0  0  -0.577502  0  2.215882  0  0  -0.327337  -0.526935  0  2.227471  0
O  O97  1  0.65436668  0.85232063  0.37151237  1  0  -0.61588  0  1.984948  0  -1.182632  0  -0.54761  0  2.223206  0  0  -0.577464  0  2.215968  0  0  -0.327319  -0.526895  0  2.227552  0
O  O98  1  0.21270101  0.12976950  0.76044825  1  0  -0.653286  0  1.979217  0  -1.218694  0  -0.587425  0  2.198644  0  0  -0.614482  0  2.187637  0  0  -0.329392  -0.568177  0  2.205759  0
O  O99  1  0.78730600  0.87023277  0.23955303  1  0  -0.653245  0  1.979114  0  -1.218719  0  -0.587394  0  2.198541  0  0  -0.614452  0  2.187533  0  0  -0.329367  -0.568152  0  2.205661  0
O  O100  1  0.65827286  0.30570866  0.82123928  1  0  -0.676907  0  2.038225  0  -1.220233  0  -0.603953  0  2.294839  0  0  -0.633948  0  2.282517  0  0  -0.338273  -0.582984  0  2.302797  0
O  O101  1  0.34172590  0.69428954  0.17875967  1  0  -0.676906  0  2.038192  0  -1.220268  0  -0.603977  0  2.294789  0  0  -0.633963  0  2.282447  0  0  -0.338251  -0.583007  0  2.302749  0
O  O102  1  0.42205415  0.28291132  0.86335627  1  0  -0.621083  0  1.967401  0  -1.173233  0  -0.556565  0  2.201442  0  0  -0.586068  0  2.192072  0  0  -0.32887  -0.535994  0  2.207074  0
O  O103  1  0.57794198  0.71708061  0.13664525  1  0  -0.621138  0  1.967279  0  -1.173117  0  -0.556639  0  2.201298  0  0  -0.586141  0  2.191923  0  0  -0.328937  -0.53607  0  2.206927  0
O  O104  1  0.02942302  0.78289915  0.16184544  1  0  -0.833928  0  1.839348  0  -1.243054  0  -0.778011  0  2.028999  0  0  -0.799073  0  1.999281  0  0  -0.585522  -0.763018  0  2.049894  0
O  O105  1  0.97058131  0.21709798  0.83815421  1  0  -0.833958  0  1.839277  0  -1.24249  0  -0.778051  0  2.028899  0  0  -0.79911  0  1.999185  0  0  -0.585535  -0.763047  0  2.049791  0
O  O106  1  0.43309663  0.98697766  0.20503360  1  0  -0.784627  0  1.855939  0  -1.22653  0  -0.731885  0  2.025407  0  0  -0.751259  0  2.000435  0  0  -0.579976  -0.718118  0  2.042691  0
O  O107  1  0.56691051  0.01302360  0.79496653  1  0  -0.784684  0  1.855936  0  -1.226583  0  -0.731943  0  2.025398  0  0  -0.751316  0  2.000425  0  0  -0.580032  -0.718177  0  2.04268  0
