# generated using pymatgen
data_RbH14C6IN4O
_symmetry_space_group_name_H-M   'P 1'
_cell_length_a   6.91431404
_cell_length_b   9.60245748
_cell_length_c   10.19035892
_cell_angle_alpha   65.99374348
_cell_angle_beta   70.16901086
_cell_angle_gamma   68.90540237
_symmetry_Int_Tables_number   1
_chemical_formula_structural   RbH14C6IN4O
_chemical_formula_sum   'Rb2 H28 C12 I2 N8 O2'
_cell_volume   561.68974310
_cell_formula_units_Z   2
loop_
 _symmetry_equiv_pos_site_id
 _symmetry_equiv_pos_as_xyz
  1  'x, y, z'
loop_
 _atom_site_type_symbol
 _atom_site_label
 _atom_site_symmetry_multiplicity
 _atom_site_fract_x
 _atom_site_fract_y
 _atom_site_fract_z
 _atom_site_occupancy
 _atom_site_hle17_bader_spin_density
 _atom_site_hle17_ddec_charge
 _atom_site_hle17_ddec_spin_density
 _atom_site_hle17_ddec_sum_bond_order
 _atom_site_hle17_magmom
 _atom_site_hse06_10hf_bader_spin_density
 _atom_site_hse06_10hf_ddec_charge
 _atom_site_hse06_10hf_ddec_spin_density
 _atom_site_hse06_10hf_ddec_sum_bond_order
 _atom_site_hse06_10hf_magmom
 _atom_site_hse06_bader_spin_density
 _atom_site_hse06_ddec_charge
 _atom_site_hse06_ddec_spin_density
 _atom_site_hse06_ddec_sum_bond_order
 _atom_site_hse06_magmom
 _atom_site_pbe_bader_spin_density
 _atom_site_pbe_cm5_charge
 _atom_site_pbe_ddec_charge
 _atom_site_pbe_ddec_spin_density
 _atom_site_pbe_ddec_sum_bond_order
 _atom_site_pbe_magmom
Rb  Rb0  1  0.52677062  0.16018603  0.78634019  1  0  0.877471  0  0.52034  0  0  0.812353  0  0.739759  0  0  0.827456  0  0.717449  0  0  0.609659  0.800598  0  0.75757  0
Rb  Rb1  1  0.47322613  0.83981433  0.21365999  1  0  0.877468  0  0.520336  0  0  0.812338  0  0.739771  0  0  0.827432  0  0.717475  0  0  0.609653  0.800579  0  0.757585  0
H  H2  1  0.78665613  0.77805668  0.88025668  1  0  0.365076  0  0.966215  0  0  0.327582  0  1.040452  0  0  0.338541  0  1.02495  0  0  0.268242  0.319827  0  1.051444  0
H  H3  1  0.44457991  0.22191368  0.11974297  1  0  0.364258  0  0.966531  0  0  0.32699  0  1.040535  0  0  0.337888  0  1.025094  0  0  0.267647  0.319029  0  1.051724  0
H  H4  1  0.21334475  0.22194486  0.11974321  1  0  0.365084  0  0.966206  0  0  0.327586  0  1.04045  0  0  0.338546  0  1.024946  0  0  0.268243  0.319833  0  1.051439  0
H  H5  1  0.55542117  0.77808667  0.88025595  1  0  0.364255  0  0.966528  0  0  0.326981  0  1.040548  0  0  0.337879  0  1.025108  0  0  0.267644  0.319017  0  1.05174  0
H  H6  1  0.13280024  0.47919179  0.91332159  1  0  0.059053  0  0.939522  0  0  0.072271  0  1.010344  0  0  0.073054  0  1.009101  0  0  0.115705  0.071382  0  1.011747  0
H  H7  1  0.52521773  0.52072785  0.08660622  1  0  0.058952  0  0.939457  0  0  0.072039  0  1.010408  0  0  0.07272  0  1.009315  0  0  0.115674  0.071591  0  1.011219  0
H  H8  1  0.86719671  0.52080858  0.08667992  1  0  0.059077  0  0.939532  0  0  0.072289  0  1.010368  0  0  0.073069  0  1.009128  0  0  0.115726  0.0714  0  1.011769  0
H  H9  1  0.47478021  0.47927251  0.91339431  1  0  0.05897  0  0.939473  0  0  0.072052  0  1.010436  0  0  0.072732  0  1.009344  0  0  0.115693  0.071602  0  1.01125  0
H  H10  1  0.05838304  0.53600884  0.74313358  1  0  0.069594  0  0.93318  0  0  0.081348  0  1.00248  0  0  0.082337  0  1.001453  0  0  0.106706  0.078932  0  1.005813  0
H  H11  1  0.33717033  0.46399416  0.25672779  1  0  0.069256  0  0.934274  0  0  0.080329  0  1.004708  0  0  0.08164  0  1.003214  0  0  0.106985  0.079051  0  1.00644  0
H  H12  1  0.94161567  0.46399271  0.25686694  1  0  0.06956  0  0.933131  0  0  0.081311  0  1.002444  0  0  0.082301  0  1.001417  0  0  0.106684  0.078896  0  1.005777  0
H  H13  1  0.66283059  0.53600383  0.74327284  1  0  0.069258  0  0.934262  0  0  0.080333  0  1.004698  0  0  0.081644  0  1.003203  0  0  0.107006  0.079055  0  1.006429  0
H  H14  1  0.00016225  0.80864516  0.58677384  1  0  0.065269  0  0.932253  0  0  0.077576  0  1.000669  0  0  0.07863  0  0.999437  0  0  0.107527  0.075832  0  1.003227  0
H  H15  1  0.39535775  0.19118393  0.41323073  1  0  0.065822  0  0.933621  0  0  0.077811  0  1.001972  0  0  0.078969  0  1.000609  0  0  0.108127  0.076623  0  1.003555  0
H  H16  1  0.99983548  0.19135640  0.41322766  1  0  0.065272  0  0.932277  0  0  0.077602  0  1.000679  0  0  0.078655  0  0.999451  0  0  0.107534  0.075859  0  1.003237  0
H  H17  1  0.60464157  0.80881524  0.58676919  1  0  0.065857  0  0.933623  0  0  0.077852  0  1.001947  0  0  0.079009  0  1.000587  0  0  0.108152  0.076664  0  1.00353  0
H  H18  1  0.03000314  0.95365049  0.64323176  1  0  0.058972  0  0.950366  0  0  0.070027  0  1.022636  0  0  0.071011  0  1.021667  0  0  0.107861  0.069366  0  1.023067  0
H  H19  1  0.62669969  0.04629890  0.35672542  1  0  0.059103  0  0.950744  0  0  0.069721  0  1.02309  0  0  0.070783  0  1.022051  0  0  0.107669  0.069051  0  1.023674  0
H  H20  1  0.96999975  0.04634869  0.35676920  1  0  0.058945  0  0.950285  0  0  0.069997  0  1.022592  0  0  0.070977  0  1.021625  0  0  0.107851  0.069337  0  1.023021  0
H  H21  1  0.37330299  0.95370028  0.64327421  1  0  0.059109  0  0.950759  0  0  0.069715  0  1.023122  0  0  0.070768  0  1.022089  0  0  0.107679  0.069044  0  1.023709  0
H  H22  1  0.56551198  0.61605866  0.51515123  1  0  0.061709  0  0.947889  0  0  0.072138  0  1.020865  0  0  0.073166  0  1.019826  0  0  0.107172  0.071378  0  1.021446  0
H  H23  1  0.69616637  0.38401867  0.48485337  1  0  0.061627  0  0.949377  0  0  0.072817  0  1.021295  0  0  0.073775  0  1.020382  0  0  0.107711  0.071679  0  1.022657  0
H  H24  1  0.43448893  0.38393933  0.48484940  1  0  0.061674  0  0.947906  0  0  0.07212  0  1.020871  0  0  0.073147  0  1.019834  0  0  0.107169  0.071359  0  1.021452  0
H  H25  1  0.30383197  0.61598051  0.51514752  1  0  0.061661  0  0.949365  0  0  0.072836  0  1.021283  0  0  0.073796  0  1.020367  0  0  0.107716  0.0717  0  1.022642  0
H  H26  1  0.16653247  0.67810867  0.98909986  1  0  0.062721  0  0.928471  0  0  0.073978  0  0.999549  0  0  0.074449  0  0.999381  0  0  0.112282  0.072633  0  1.001327  0
H  H27  1  0.83346923  0.32189051  0.01090076  1  0  0.062777  0  0.928459  0  0  0.07403  0  0.999525  0  0  0.0745  0  0.999358  0  0  0.112304  0.072686  0  1.001303  0
H  H28  1  0.12605304  0.87843184  0.86977624  1  0  0.064113  0  0.935518  0  0  0.075393  0  1.003951  0  0  0.076728  0  1.002439  0  0  0.11633  0.072872  0  1.007761  0
H  H29  1  0.87394943  0.12156853  0.13022436  1  0  0.064103  0  0.935518  0  0  0.075364  0  1.003965  0  0  0.076699  0  1.002455  0  0  0.116321  0.072844  0  1.007774  0
C  C30  1  0.14845921  0.55961135  0.79897921  1  0  0.082039  0  3.64084  0  0  0.008616  0  3.90747  0  0  0.016699  0  3.915862  0  0  0.013287  0.003328  0  3.901765  0
C  C31  1  0.50672365  0.44035204  0.20096424  1  0  0.081934  0  3.641815  0  0  0.008944  0  3.908938  0  0  0.017022  0  3.917236  0  0  0.013376  0.00372  0  3.902654  0
C  C32  1  0.85153950  0.44039020  0.20102131  1  0  0.08209  0  3.640782  0  0  0.008676  0  3.907406  0  0  0.016761  0  3.915796  0  0  0.013309  0.003391  0  3.901696  0
C  C33  1  0.49327469  0.55964714  0.79903665  1  0  0.081978  0  3.641829  0  0  0.008989  0  3.908957  0  0  0.017065  0  3.917261  0  0  0.013361  0.003766  0  3.902675  0
C  C34  1  0.09033352  0.83070655  0.64367672  1  0  0.086181  0  3.619012  0  0  0.017725  0  3.877072  0  0  0.025356  0  3.885934  0  0  0.017317  0.013575  0  3.870148  0
C  C35  1  0.56449385  0.16922629  0.35629538  1  0  0.085161  0  3.621386  0  0  0.018785  0  3.877638  0  0  0.026223  0  3.886691  0  0  0.017119  0.01402  0  3.871072  0
C  C36  1  0.90966794  0.16929616  0.35632182  1  0  0.086215  0  3.618909  0  0  0.01773  0  3.877019  0  0  0.025355  0  3.885904  0  0  0.017336  0.013581  0  3.870096  0
C  C37  1  0.43550804  0.83077170  0.64370427  1  0  0.085105  0  3.621457  0  0  0.018738  0  3.877708  0  0  0.026182  0  3.886764  0  0  0.017074  0.013977  0  3.871134  0
C  C38  1  0.39589452  0.63735940  0.57132149  1  0  0.055745  0  3.6866  0  0  -0.009416  0  3.94668  0  0  -0.002936  0  3.957549  0  0  -0.005166  -0.013372  0  3.938496  0
C  C39  1  0.60410263  0.36263978  0.42867905  1  0  0.055777  0  3.686538  0  0  -0.009388  0  3.946584  0  0  -0.002908  0  3.957456  0  0  -0.00515  -0.01334  0  3.938399  0
C  C40  1  0.18631983  0.75449961  0.87321187  1  0  0.089685  0  3.61459  0  0  0.018874  0  3.870713  0  0  0.026613  0  3.87999  0  0  0.02388  0.014365  0  3.864417  0
C  C41  1  0.81368125  0.24550074  0.12678705  1  0  0.089641  0  3.614594  0  0  0.018852  0  3.870704  0  0  0.026591  0  3.879981  0  0  0.023873  0.014341  0  3.864411  0
I  I42  1  0.03176399  0.25222062  0.68432407  1  0  -0.738536  0  0.648093  0  0  -0.691678  0  0.901684  0  0  -0.705338  0  0.881306  0  0  -0.356049  -0.679455  0  0.922099  0
I  I43  1  0.96823432  0.74778090  0.31567379  1  0  -0.738537  0  0.648093  0  0  -0.691655  0  0.901658  0  0  -0.705315  0  0.881286  0  0  -0.356049  -0.679435  0  0.922072  0
N  N44  1  0.37480072  0.52710793  0.72371997  1  0  -0.31701  0  3.17884  0  0  -0.247047  0  3.445476  0  0  -0.262069  0  3.462331  0  0  -0.39905  -0.23594  0  3.432412  0
N  N45  1  0.62519722  0.47289244  0.27628056  1  0  -0.317002  0  3.17877  0  0  -0.247066  0  3.445452  0  0  -0.262084  0  3.462305  0  0  -0.399072  -0.235961  0  3.432386  0
N  N46  1  0.06122873  0.72476876  0.79953024  1  0  -0.289526  0  3.144697  0  0  -0.200438  0  3.370747  0  0  -0.216442  0  3.386883  0  0  -0.333272  -0.188936  0  3.358329  0
N  N47  1  0.58519370  0.27518392  0.20046400  1  0  -0.288566  0  3.14549  0  0  -0.201426  0  3.372808  0  0  -0.217232  0  3.388871  0  0  -0.333182  -0.189446  0  3.360413  0
N  N48  1  0.93877137  0.27523160  0.20046966  1  0  -0.289533  0  3.14472  0  0  -0.200443  0  3.370792  0  0  -0.216446  0  3.386927  0  0  -0.333268  -0.188941  0  3.358373  0
N  N49  1  0.41480759  0.72481644  0.79953625  1  0  -0.288567  0  3.145506  0  0  -0.201446  0  3.37285  0  0  -0.217254  0  3.388917  0  0  -0.333182  -0.189467  0  3.360453  0
N  N50  1  0.31554621  0.80393414  0.56530057  1  0  -0.315709  0  3.160847  0  0  -0.251636  0  3.431803  0  0  -0.266257  0  3.448018  0  0  -0.383396  -0.241436  0  3.420334  0
N  N51  1  0.68445192  0.19606503  0.43469899  1  0  -0.315667  0  3.160711  0  0  -0.251601  0  3.431709  0  0  -0.266222  0  3.447927  0  0  -0.38341  -0.2414  0  3.420241  0
O  O52  1  0.63062019  0.81715487  0.92201381  1  0  -0.894472  0  1.84096  0  0  -0.833725  0  2.03099  0  0  -0.852822  0  1.999164  0  0  -0.740176  -0.820317  0  2.054737  0
O  O53  1  0.36938090  0.18284549  0.07798510  1  0  -0.894491  0  1.840944  0  0  -0.833744  0  2.030982  0  0  -0.852843  0  1.999152  0  0  -0.74018  -0.820339  0  2.054725  0
