# generated using pymatgen
data_ZnH12C22S3NO14
_symmetry_space_group_name_H-M   'P 1'
_cell_length_a   13.95474084
_cell_length_b   15.31888768
_cell_length_c   15.12770979
_cell_angle_alpha   89.23600783
_cell_angle_beta   89.99541582
_cell_angle_gamma   90.01009805
_symmetry_Int_Tables_number   1
_chemical_formula_structural   ZnH12C22S3NO14
_chemical_formula_sum   'Zn2 H24 C44 S6 N2 O28'
_cell_volume   3233.57972767
_cell_formula_units_Z   2
loop_
 _symmetry_equiv_pos_site_id
 _symmetry_equiv_pos_as_xyz
  1  'x, y, z'
loop_
 _atom_site_type_symbol
 _atom_site_label
 _atom_site_symmetry_multiplicity
 _atom_site_fract_x
 _atom_site_fract_y
 _atom_site_fract_z
 _atom_site_occupancy
 _atom_site_pbe_bader_charge
 _atom_site_pbe_bader_spin_density
 _atom_site_pbe_cm5_charge
 _atom_site_pbe_ddec_charge
 _atom_site_pbe_ddec_spin_density
 _atom_site_pbe_ddec_sum_bond_order
 _atom_site_pbe_magmom
Zn  Zn0  1  0.60458448  0.50001892  0.50003425  1  1.277628  0  0.691737  0.822389  0  2.386632  0
Zn  Zn1  1  0.39649821  0.50001918  0.49999032  1  1.258094  0  0.690208  0.828671  0  2.333509  0
H  H2  1  0.50958174  0.22566406  0.36257991  1  0.104794  0  0.112759  0.12815  0  1.024476  0
H  H3  1  0.50906918  0.77438357  0.63740463  1  0.106592  0  0.112647  0.128201  0  1.024524  0
H  H4  1  0.51638163  0.21690721  0.64631542  1  0.157338  0  0.114794  0.133471  0  1.028706  0
H  H5  1  0.51702413  0.78314989  0.35367995  1  0.158255  0  0.114764  0.133381  0  1.028436  0
H  H6  1  0.62949275  0.42848448  0.94117058  1  0.140233  0  0.121866  0.137337  0  0.987347  0
H  H7  1  0.36582739  0.42433822  0.06264417  1  0.144685  0  0.122215  0.140143  0  0.981253  0
H  H8  1  0.62952880  0.57146032  0.05884724  1  0.14064  0  0.121894  0.137406  0  0.987394  0
H  H9  1  0.36575977  0.57546369  0.93744433  1  0.146478  0  0.12163  0.136944  0  0.984503  0
H  H10  1  0.06788382  0.64079335  0.50822118  1  0.092928  0  0.121162  0.12535  0  0.979869  0
H  H11  1  0.93225101  0.39988139  0.40034355  1  0.099511  0  0.123135  0.13124  0  0.972904  0
H  H12  1  0.06787286  0.35916670  0.49182380  1  0.093787  0  0.121145  0.12529  0  0.97984  0
H  H13  1  0.93226585  0.60005669  0.59969728  1  0.099578  0  0.123151  0.131183  0  0.973114  0
H  H14  1  0.24652960  0.63492417  0.50827768  1  0.12222  0  0.128297  0.099714  0  0.974794  0
H  H15  1  0.75343936  0.40545455  0.40317030  1  0.141168  0  0.135013  0.114894  0  0.952684  0
H  H16  1  0.24651929  0.36508094  0.49174130  1  0.121905  0  0.128258  0.099351  0  0.974726  0
H  H17  1  0.75345352  0.59447972  0.59687514  1  0.140946  0  0.13484  0.114654  0  0.952658  0
H  H18  1  0.46360741  0.05368043  0.79982632  1  0.111297  0  0.113058  0.057195  0  0.94827  0
H  H19  1  0.46502034  0.94616087  0.19998635  1  0.08534  0  0.113359  0.057064  0  0.948328  0
H  H20  1  0.66951799  0.95569752  0.81845014  1  0.624856  0  0.365643  0.414395  0  0.814734  0
H  H21  1  0.67077194  0.04422321  0.18211485  1  0.6711  0  0.365641  0.414921  0  0.813722  0
H  H22  1  0.61452971  0.35489990  0.64066363  1  0.67337  0  0.312112  0.379911  0  0.955824  0
H  H23  1  0.39385358  0.34587973  0.36613909  1  0.678297  0  0.309478  0.372672  0  0.964731  0
H  H24  1  0.61476646  0.64499316  0.35934991  1  0.673344  0  0.311954  0.380098  0  0.954816  0
H  H25  1  0.39373893  0.65389695  0.63391830  1  0.676989  0  0.309418  0.372807  0  0.964201  0
C  C26  1  0.50164642  0.50459195  0.66488435  1  1.592595  0  0.211093  0.56788  0  4.223519  0
C  C27  1  0.50168998  0.49535741  0.33516853  1  1.593532  0  0.211057  0.567937  0  4.223994  0
C  C28  1  0.53064911  0.95061409  0.66185265  1  -0.188618  0  -0.005132  -0.166408  0  3.915034  0
C  C29  1  0.53138491  0.04946675  0.33820597  1  -0.175274  0  -0.00527  -0.165681  0  3.914895  0
C  C30  1  0.57249856  0.46221855  0.90538186  1  -0.004096  0  -0.065648  -0.119766  0  3.925978  0
C  C31  1  0.42370890  0.45771325  0.09672113  1  0.061858  0  -0.065023  -0.12108  0  3.921664  0
C  C32  1  0.57253234  0.53771419  0.09464890  1  0.005107  0  -0.065547  -0.120136  0  3.925681  0
C  C33  1  0.42365540  0.54211657  0.90335965  1  0.05939  0  -0.064163  -0.117672  0  3.920063  0
C  C34  1  0.57444016  0.46326752  0.81327199  1  -0.094624  0  -0.00297  -0.083686  0  3.881932  0
C  C35  1  0.42623451  0.45521226  0.18892404  1  -0.223686  0  -0.002353  -0.082608  0  3.880374  0
C  C36  1  0.57449980  0.53662520  0.18675908  1  -0.100202  0  -0.003111  -0.083576  0  3.882208  0
C  C37  1  0.42616392  0.54463905  0.81115408  1  -0.221888  0  -0.002722  -0.08348  0  3.879033  0
C  C38  1  0.50109787  0.50454042  0.76408895  1  0.03497  0  0.004057  -0.01972  0  3.894301  0
C  C39  1  0.50116506  0.49533830  0.23596630  1  0.039555  0  0.004129  -0.019765  0  3.894579  0
C  C40  1  0.49692046  0.50087743  0.95110073  1  -0.076272  0  0.008878  0.09288  0  3.984957  0
C  C41  1  0.49693385  0.49902698  0.04896809  1  0.040642  0  0.00907  0.093273  0  3.986213  0
C  C42  1  0.10451640  0.57813591  0.50531050  1  0.144788  0  -0.064971  -0.157986  0  3.915587  0
C  C43  1  0.89562846  0.44346584  0.44551536  1  0.059988  0  -0.066874  -0.161592  0  3.914  0
C  C44  1  0.10451216  0.42183276  0.49472403  1  0.143455  0  -0.06483  -0.157551  0  3.915  0
C  C45  1  0.89564089  0.55646299  0.55453593  1  0.060067  0  -0.066804  -0.161414  0  3.914167  0
C  C46  1  0.20380372  0.57554456  0.50481905  1  0.41192  0  0.067916  0.126091  0  3.905913  0
C  C47  1  0.79633533  0.44593246  0.44661570  1  0.425977  0  0.067608  0.131684  0  3.901323  0
C  C48  1  0.20379463  0.42444983  0.49521609  1  0.412158  0  0.06798  0.126606  0  3.90539  0
C  C49  1  0.79634703  0.55399746  0.55342821  1  0.426287  0  0.067413  0.131467  0  3.901034  0
C  C50  1  0.05277631  0.49997958  0.50002251  1  -0.19066  0  0.02754  0.121697  0  3.967398  0
C  C51  1  0.94717271  0.49996420  0.50002637  1  0.082371  0  0.02405  0.109426  0  3.982012  0
C  C52  1  0.50259522  0.67320495  0.49489105  1  1.587187  0  0.243086  0.635449  0  4.075447  0
C  C53  1  0.50249759  0.32684104  0.50510182  1  1.589255  0  0.242877  0.634989  0  4.077236  0
C  C54  1  0.51390118  0.18716709  0.42334321  1  0.079856  0  -0.074717  -0.129625  0  3.892536  0
C  C55  1  0.51361339  0.81289055  0.57666129  1  0.079579  0  -0.074405  -0.1295  0  3.891828  0
C  C56  1  0.50966067  0.22926862  0.50432313  1  -0.069757  0  -0.01117  -0.01668  0  3.995172  0
C  C57  1  0.50973408  0.77078826  0.49565741  1  -0.070213  0  -0.011217  -0.016518  0  3.994057  0
C  C58  1  0.51548602  0.18255415  0.58391030  1  0.008086  0  -0.073734  -0.133881  0  3.889542  0
C  C59  1  0.51586381  0.81751057  0.41608168  1  0.007983  0  -0.073744  -0.134568  0  3.889709  0
C  C60  1  0.52086141  0.09095120  0.58393025  1  -0.054908  0  0.004582  0.060997  0  3.96219  0
C  C61  1  0.52124032  0.90911386  0.41609500  1  -0.05491  0  0.004835  0.062038  0  3.961707  0
C  C62  1  0.52370176  0.04645409  0.50109392  1  0.046107  0  0.011151  0.010045  0  3.907025  0
C  C63  1  0.52372719  0.95360098  0.49895397  1  -0.077083  0  0.011191  0.009797  0  3.907379  0
C  C64  1  0.52422152  0.09609899  0.42013688  1  -0.007675  0  0.000687  0.074222  0  4.008865  0
C  C65  1  0.52387889  0.90396328  0.57991825  1  0.006656  0  0.000402  0.074186  0  4.008781  0
C  C66  1  0.52445339  0.04022343  0.66545152  1  0.052918  0  -0.00436  -0.024501  0  3.94401  0
C  C67  1  0.52523286  0.95985624  0.33457248  1  0.054821  0  -0.004725  -0.026076  0  3.944283  0
C  C68  1  0.51429249  0.08574681  0.75282064  1  0.959711  0  0.103579  0.273172  0  3.965909  0
C  C69  1  0.51561410  0.91429862  0.24719588  1  0.98613  0  0.103074  0.274127  0  3.967243  0
S  S70  1  0.55246880  0.88607372  0.76055180  1  3.050775  0  0.542969  1.140778  0  5.996396  0
S  S71  1  0.55376381  0.11411405  0.23968560  1  3.046846  0  0.543066  1.140455  0  5.995277  0
S  S72  1  0.67416105  0.40364727  0.76637027  1  3.12229  0  0.538973  1.165002  0  6.010832  0
S  S73  1  0.33109790  0.39124695  0.23980119  1  3.104793  0  0.537419  1.159746  0  5.999666  0
S  S74  1  0.67430896  0.59613825  0.23364236  1  3.12583  0  0.538437  1.164622  0  6.01074  0
S  S75  1  0.33098241  0.60851743  0.76029733  1  3.104134  0  0.537811  1.1607  0  5.996518  0
N  N76  1  0.25263670  0.50000294  0.50000994  1  -1.216542  0  -0.32423  -0.205242  0  3.540241  0
N  N77  1  0.74785837  0.49996457  0.50001766  1  -1.265266  0  -0.331937  -0.226495  0  3.563428  0
O  O78  1  0.57543662  0.53464108  0.62591927  1  -1.150753  0  -0.305479  -0.52422  0  2.378788  0
O  O79  1  0.42776917  0.52608254  0.37258842  1  -1.144495  0  -0.306057  -0.520495  0  2.380411  0
O  O80  1  0.57542814  0.46530555  0.37417698  1  -1.152597  0  -0.305686  -0.524586  0  2.379266  0
O  O81  1  0.42770852  0.47395774  0.62741002  1  -1.143734  0  -0.306272  -0.520818  0  2.380695  0
O  O82  1  0.57261524  0.63149508  0.46147402  1  -1.178429  0  -0.295616  -0.544651  0  2.356859  0
O  O83  1  0.42847611  0.36326062  0.47147817  1  -1.180999  0  -0.294772  -0.54996  0  2.327123  0
O  O84  1  0.57248303  0.36855504  0.53857392  1  -1.178924  0  -0.295588  -0.54434  0  2.358871  0
O  O85  1  0.42856235  0.63675857  0.52848406  1  -1.17881  0  -0.295197  -0.550429  0  2.327322  0
O  O86  1  0.55315119  0.15459291  0.77066966  1  -1.05492  0  -0.242602  -0.314496  0  2.150043  0
O  O87  1  0.55484355  0.84560812  0.22948242  1  -1.055639  0  -0.242385  -0.314848  0  2.151127  0
O  O88  1  0.46272663  0.86189917  0.79952516  1  -1.259178  0  -0.287984  -0.47637  0  2.100823  0
O  O89  1  0.62563708  0.82297347  0.74064464  1  -1.278066  0  -0.311189  -0.527155  0  2.107044  0
O  O90  1  0.59992060  0.95568080  0.82717412  1  -1.170176  0  -0.340622  -0.517984  0  2.175179  0
O  O91  1  0.46424436  0.13862899  0.20050565  1  -1.259823  0  -0.287897  -0.475944  0  2.09868  0
O  O92  1  0.62712345  0.17694062  0.25997016  1  -1.283769  0  -0.311247  -0.527168  0  2.106593  0
O  O93  1  0.60122097  0.04451400  0.17307708  1  -1.206359  0  -0.340648  -0.518672  0  2.174702  0
O  O94  1  0.73466758  0.46099262  0.71477944  1  -1.295362  0  -0.321044  -0.553048  0  2.188086  0
O  O95  1  0.71448507  0.35289854  0.83751777  1  -1.291187  0  -0.31175  -0.515282  0  2.108809  0
O  O96  1  0.62159231  0.33629747  0.70433719  1  -1.261726  0  -0.358935  -0.536598  0  2.275186  0
O  O97  1  0.26878274  0.44490843  0.29210697  1  -1.290973  0  -0.323719  -0.547023  0  2.162363  0
O  O98  1  0.29215903  0.33835843  0.17101930  1  -1.285946  0  -0.309372  -0.510558  0  2.108862  0
O  O99  1  0.38982229  0.32668560  0.30296076  1  -1.264707  0  -0.363604  -0.541875  0  2.258539  0
O  O100  1  0.73468535  0.53871089  0.28525003  1  -1.2967  0  -0.32075  -0.552881  0  2.188073  0
O  O101  1  0.71475031  0.64681605  0.16250023  1  -1.292561  0  -0.311606  -0.515013  0  2.108616  0
O  O102  1  0.62185819  0.66355617  0.29566960  1  -1.261754  0  -0.35859  -0.536746  0  2.274252  0
O  O103  1  0.26865318  0.55479968  0.70807394  1  -1.291971  0  -0.323406  -0.546586  0  2.161616  0
O  O104  1  0.29207318  0.66143408  0.82908011  1  -1.28624  0  -0.309556  -0.510604  0  2.107411  0
O  O105  1  0.38967548  0.67309547  0.69708388  1  -1.261524  0  -0.363886  -0.542544  0  2.257271  0
