# generated using pymatgen
data_HgH9C11N3Cl2
_symmetry_space_group_name_H-M   'P 1'
_cell_length_a   7.50718268
_cell_length_b   12.62604958
_cell_length_c   13.10570000
_cell_angle_alpha   90.00000000
_cell_angle_beta   90.00000000
_cell_angle_gamma   96.06705012
_symmetry_Int_Tables_number   1
_chemical_formula_structural   HgH9C11N3Cl2
_chemical_formula_sum   'Hg4 H36 C44 N12 Cl8'
_cell_volume   1235.27976697
_cell_formula_units_Z   4
loop_
 _symmetry_equiv_pos_site_id
 _symmetry_equiv_pos_as_xyz
  1  'x, y, z'
loop_
 _atom_site_type_symbol
 _atom_site_label
 _atom_site_symmetry_multiplicity
 _atom_site_fract_x
 _atom_site_fract_y
 _atom_site_fract_z
 _atom_site_occupancy
 _atom_site_hle17_bader_spin_density
 _atom_site_hle17_ddec_charge
 _atom_site_hle17_ddec_spin_density
 _atom_site_hle17_ddec_sum_bond_order
 _atom_site_hle17_magmom
 _atom_site_hse06_10hf_bader_spin_density
 _atom_site_hse06_10hf_ddec_charge
 _atom_site_hse06_10hf_ddec_spin_density
 _atom_site_hse06_10hf_ddec_sum_bond_order
 _atom_site_hse06_10hf_magmom
 _atom_site_hse06_bader_spin_density
 _atom_site_hse06_ddec_charge
 _atom_site_hse06_ddec_spin_density
 _atom_site_hse06_ddec_sum_bond_order
 _atom_site_hse06_magmom
 _atom_site_pbe_bader_charge
 _atom_site_pbe_bader_spin_density
 _atom_site_pbe_cm5_charge
 _atom_site_pbe_ddec_charge
 _atom_site_pbe_ddec_spin_density
 _atom_site_pbe_ddec_sum_bond_order
 _atom_site_pbe_magmom
Hg  Hg0  1  0.74255672  0.74976207  0.84972493  1  0  0.736729  0  2.077472  0  0  0.564192  0  2.570883  0  0  0.616586  0  2.537492  0  0.848083  0  0.521934  0.528651  0  2.592695  0
Hg  Hg1  1  0.75744307  0.75023757  0.34972569  1  0  0.736728  0  2.077525  0  0  0.564196  0  2.570932  0  0  0.616588  0  2.537539  0  0.848119  0  0.521941  0.528655  0  2.592744  0
Hg  Hg2  1  0.25744082  0.25023716  0.15027507  1  0  0.736746  0  2.077536  0  0  0.564208  0  2.570948  0  0  0.616601  0  2.537551  0  0.848093  0  0.521932  0.528666  0  2.592762  0
Hg  Hg3  1  0.24255742  0.24976325  0.65027507  1  0  0.736741  0  2.077522  0  0  0.564208  0  2.570935  0  0  0.616601  0  2.53754  0  0.848125  0  0.521948  0.528666  0  2.592748  0
H  H4  1  0.61972107  0.65288528  0.08264801  1  0  0.07389  0  0.967194  0  0  0.080216  0  1.03643  0  0  0.08189  0  1.03588  0  0.107811  0  0.110703  0.07896  0  1.036894  0
H  H5  1  0.88027858  0.84711356  0.58264801  1  0  0.073898  0  0.967224  0  0  0.080226  0  1.036445  0  0  0.081901  0  1.035895  0  0.107843  0  0.110713  0.07897  0  1.03691  0
H  H6  1  0.38027781  0.34711394  0.91735199  1  0  0.073897  0  0.967155  0  0  0.080222  0  1.036393  0  0  0.081895  0  1.035844  0  0.107783  0  0.110712  0.078966  0  1.036858  0
H  H7  1  0.11972191  0.15288726  0.41735199  1  0  0.073881  0  0.967208  0  0  0.080197  0  1.036462  0  0  0.08187  0  1.035914  0  0.107773  0  0.110707  0.078942  0  1.036926  0
H  H8  1  0.61568701  0.48963429  0.18735512  1  0  0.110198  0  0.976734  0  0  0.114946  0  1.046662  0  0  0.118461  0  1.044785  0  0.12622  0  0.096486  0.112385  0  1.048202  0
H  H9  1  0.88431179  0.01036373  0.68735512  1  0  0.110184  0  0.976758  0  0  0.114936  0  1.046684  0  0  0.118456  0  1.044796  0  0.126194  0  0.09649  0.112372  0  1.048234  0
H  H10  1  0.38431053  0.51036493  0.81264488  1  0  0.110206  0  0.976742  0  0  0.114952  0  1.046672  0  0  0.11847  0  1.044788  0  0.126203  0  0.096497  0.11239  0  1.048215  0
H  H11  1  0.11568737  0.98963709  0.31264412  1  0  0.110185  0  0.976745  0  0  0.114934  0  1.046667  0  0  0.118454  0  1.044782  0  0.126177  0  0.096487  0.112368  0  1.048221  0
H  H12  1  0.74821151  0.33060223  0.11486071  1  0  0.100884  0  0.95896  0  0  0.108247  0  1.024999  0  0  0.110851  0  1.0233  0  0.121343  0  0.101794  0.10629  0  1.026326  0
H  H13  1  0.75178890  0.16939738  0.61486147  1  0  0.100864  0  0.958946  0  0  0.108225  0  1.024989  0  0  0.11083  0  1.023291  0  0.121438  0  0.101787  0.10627  0  1.026314  0
H  H14  1  0.25178751  0.66939779  0.88513929  1  0  0.100881  0  0.958961  0  0  0.108241  0  1.025005  0  0  0.110844  0  1.023308  0  0.121394  0  0.101793  0.106286  0  1.02633  0
H  H15  1  0.24821026  0.83060344  0.38513776  1  0  0.100865  0  0.958946  0  0  0.108224  0  1.024991  0  0  0.110828  0  1.023294  0  0.121441  0  0.101785  0.106269  0  1.026314  0
H  H16  1  0.86422224  0.34186040  0.93282007  1  0  0.120243  0  0.960044  0  0  0.128181  0  1.023003  0  0  0.131257  0  1.022418  0  0.131138  0  0.101432  0.12591  0  1.023585  0
H  H17  1  0.63577831  0.15814001  0.43282083  1  0  0.120256  0  0.96004  0  0  0.128196  0  1.022989  0  0  0.131272  0  1.022406  0  0.131146  0  0.101437  0.125918  0  1.023588  0
H  H18  1  0.13577958  0.65814042  0.06718069  1  0  0.120234  0  0.960044  0  0  0.128182  0  1.022982  0  0  0.131258  0  1.022399  0  0.131122  0  0.101422  0.125919  0  1.023567  0
H  H19  1  0.36422085  0.84186081  0.56717840  1  0  0.120286  0  0.960029  0  0  0.128225  0  1.022984  0  0  0.1313  0  1.022401  0  0.130889  0  0.101453  0.125952  0  1.023571  0
H  H20  1  0.92521011  0.43861532  0.78097698  1  0  0.081378  0  0.966685  0  0  0.087745  0  1.040131  0  0  0.090471  0  1.03636  0  0.147574  0  0.105191  0.085746  0  1.042891  0
H  H21  1  0.57479164  0.06138429  0.28097698  1  0  0.081348  0  0.966664  0  0  0.087709  0  1.040154  0  0  0.090438  0  1.036384  0  0.147589  0  0.105187  0.08571  0  1.042915  0
H  H22  1  0.07479157  0.56138470  0.21902378  1  0  0.081402  0  0.966628  0  0  0.087735  0  1.040147  0  0  0.090462  0  1.03638  0  0.147569  0  0.105215  0.085736  0  1.042907  0
H  H23  1  0.42520458  0.93861494  0.71902302  1  0  0.081235  0  0.966675  0  0  0.087653  0  1.040127  0  0  0.090381  0  1.036357  0  0.147602  0  0.105164  0.085653  0  1.042888  0
H  H24  1  0.19191834  0.54194037  0.69754687  1  0  0.104244  0  0.961087  0  0  0.114126  0  1.026873  0  0  0.11639  0  1.025515  0  0.1049  0  0.105045  0.112469  0  1.027907  0
H  H25  1  0.30808700  0.95805847  0.19754916  1  0  0.104231  0  0.961097  0  0  0.114085  0  1.026923  0  0  0.116344  0  1.025571  0  0.104256  0  0.105054  0.112432  0  1.027947  0
H  H26  1  0.80808453  0.45805886  0.30245084  1  0  0.104233  0  0.961088  0  0  0.114088  0  1.026913  0  0  0.11635  0  1.025558  0  0.104288  0  0.105041  0.112433  0  1.027941  0
H  H27  1  0.69191336  0.04194155  0.80245084  1  0  0.104227  0  0.96109  0  0  0.114082  0  1.026919  0  0  0.116342  0  1.025566  0  0.104261  0  0.105056  0.112427  0  1.027945  0
H  H28  1  0.31911686  0.57589567  0.52227275  1  0  0.112509  0  0.951352  0  0  0.118756  0  1.015679  0  0  0.121935  0  1.014299  0  0.153738  0  0.101447  0.116505  0  1.016763  0
H  H29  1  0.18088372  0.92410636  0.02227657  1  0  0.112506  0  0.951392  0  0  0.118754  0  1.01571  0  0  0.121937  0  1.014322  0  0.153744  0  0.101441  0.116504  0  1.016793  0
H  H30  1  0.68088497  0.42410515  0.47772496  1  0  0.112552  0  0.951345  0  0  0.118787  0  1.015667  0  0  0.121965  0  1.014294  0  0.153766  0  0.101446  0.116535  0  1.016753  0
H  H31  1  0.81911411  0.07589446  0.97772420  1  0  0.112539  0  0.951373  0  0  0.118785  0  1.015679  0  0  0.121959  0  1.014317  0  0.153771  0  0.101451  0.116533  0  1.016765  0
H  H32  1  0.13630251  0.66010055  0.39181196  1  0  0.073499  0  0.984217  0  0  0.075687  0  1.062745  0  0  0.078292  0  1.060144  0  0.134274  0  0.096088  0.073818  0  1.06462  0
H  H33  1  0.36369083  0.83989830  0.89181425  1  0  0.073483  0  0.984223  0  0  0.075717  0  1.062715  0  0  0.078328  0  1.060101  0  0.13423  0  0.096122  0.073849  0  1.064588  0
H  H34  1  0.86369798  0.33990027  0.60818651  1  0  0.073543  0  0.984163  0  0  0.075716  0  1.062705  0  0  0.078314  0  1.060121  0  0.134243  0  0.096112  0.073846  0  1.06458  0
H  H35  1  0.63630258  0.16010014  0.10818651  1  0  0.073527  0  0.984203  0  0  0.075711  0  1.062733  0  0  0.078309  0  1.060151  0  0.134242  0  0.096105  0.073841  0  1.064609  0
H  H36  1  0.71277263  0.67136827  0.59542871  1  0  0.092664  0  0.962172  0  0  0.096696  0  1.035109  0  0  0.099737  0  1.031865  0  0.125404  0  0.105463  0.09443  0  1.037569  0
H  H37  1  0.78722968  0.82863057  0.09542642  1  0  0.092689  0  0.962164  0  0  0.096758  0  1.035045  0  0  0.099799  0  1.031802  0  0.125406  0  0.105481  0.094491  0  1.037508  0
H  H38  1  0.28723333  0.32863335  0.40457282  1  0  0.092695  0  0.962236  0  0  0.096783  0  1.035103  0  0  0.099824  0  1.03186  0  0.125367  0  0.105498  0.094516  0  1.037567  0
H  H39  1  0.21276611  0.17136627  0.90457282  1  0  0.092686  0  0.962198  0  0  0.096777  0  1.035059  0  0  0.099819  0  1.031816  0  0.125365  0  0.105481  0.094509  0  1.037525  0
C  C40  1  0.67469899  0.58297712  0.05216661  1  0  0.135688  0  3.705518  0  0  0.103507  0  3.961145  0  0  0.110148  0  3.980716  0  0.477887  0  0.05076  0.099195  0  3.94781  0
C  C41  1  0.82529919  0.91702092  0.55216738  1  0  0.135592  0  3.705603  0  0  0.103427  0  3.961235  0  0  0.110062  0  3.980813  0  0.477796  0  0.050701  0.099116  0  3.9479  0
C  C42  1  0.32530136  0.41702290  0.94783339  1  0  0.135713  0  3.705478  0  0  0.103526  0  3.96112  0  0  0.110165  0  3.98069  0  0.4779  0  0.050754  0.099214  0  3.947786  0
C  C43  1  0.17469836  0.08297831  0.44783262  1  0  0.135658  0  3.705558  0  0  0.103493  0  3.961174  0  0  0.110128  0  3.98076  0  0.47789  0  0.050736  0.099182  0  3.947838  0
C  C44  1  0.67384105  0.49068564  0.11104786  1  0  -0.108019  0  3.700325  0  0  -0.122679  0  3.954699  0  0  -0.129321  0  3.976225  0  -0.02252  0  -0.079561  -0.118406  0  3.940272  0
C  C45  1  0.82615761  0.00931158  0.61104863  1  0  -0.108031  0  3.700349  0  0  -0.122706  0  3.954721  0  0  -0.129351  0  3.976255  0  -0.022518  0  -0.079578  -0.118434  0  3.940291  0
C  C46  1  0.32615783  0.50931359  0.88895214  1  0  -0.108055  0  3.700368  0  0  -0.122713  0  3.954749  0  0  -0.129354  0  3.976273  0  -0.022501  0  -0.079572  -0.118441  0  3.94032  0
C  C47  1  0.17384141  0.99068844  0.38895061  1  0  -0.108065  0  3.700321  0  0  -0.12274  0  3.954711  0  0  -0.129373  0  3.976212  0  -0.022565  0  -0.0796  -0.11847  0  3.940284  0
C  C48  1  0.74474411  0.40267521  0.06958117  1  0  -0.002134  0  3.703728  0  0  -0.021048  0  3.955795  0  0  -0.018946  0  3.975214  0  -0.067064  0  -0.067184  -0.022135  0  3.942489  0
C  C49  1  0.75525602  0.09732281  0.56958194  1  0  -0.002034  0  3.703673  0  0  -0.020931  0  3.955729  0  0  -0.018831  0  3.975148  0  -0.067109  0  -0.067114  -0.022018  0  3.942422  0
C  C50  1  0.25525624  0.59732482  0.93041883  1  0  -0.002113  0  3.70375  0  0  -0.021028  0  3.955822  0  0  -0.018928  0  3.975244  0  -0.067107  0  -0.06717  -0.022113  0  3.942516  0
C  C51  1  0.24474300  0.90267721  0.43041806  1  0  -0.002032  0  3.703697  0  0  -0.02093  0  3.95575  0  0  -0.018828  0  3.975172  0  -0.067113  0  -0.067113  -0.022016  0  3.942442  0
C  C52  1  0.80913266  0.40874992  0.96974751  1  0  -0.125435  0  3.655575  0  0  -0.143112  0  3.895936  0  0  -0.149273  0  3.917754  0  -0.026993  0  -0.072624  -0.139047  0  3.88125  0
C  C53  1  0.69086909  0.09124969  0.46974751  1  0  -0.12543  0  3.655603  0  0  -0.143142  0  3.895953  0  0  -0.149298  0  3.917764  0  -0.026957  0  -0.072632  -0.139079  0  3.881265  0
C  C54  1  0.19086917  0.59125090  0.03025325  1  0  -0.125386  0  3.655564  0  0  -0.143082  0  3.895903  0  0  -0.149242  0  3.917721  0  -0.026981  0  -0.072613  -0.139031  0  3.881207  0
C  C55  1  0.30913140  0.90875113  0.53025172  1  0  -0.125464  0  3.655624  0  0  -0.143164  0  3.895982  0  0  -0.149325  0  3.917803  0  -0.026694  0  -0.072638  -0.139098  0  3.881296  0
C  C56  1  0.80387824  0.50384659  0.91534599  1  0  0.183638  0  3.790559  0  0  0.186219  0  4.028371  0  0  0.190176  0  4.050401  0  0.51745  0  0.113463  0.183588  0  4.013456  0
C  C57  1  0.69612274  0.99615226  0.41534599  1  0  0.183465  0  3.790567  0  0  0.186151  0  4.028284  0  0  0.19011  0  4.050316  0  0.517471  0  0.113404  0.183521  0  4.013368  0
C  C58  1  0.19612344  0.49615344  0.08465401  1  0  0.183534  0  3.790653  0  0  0.186203  0  4.028381  0  0  0.190162  0  4.050413  0  0.517467  0  0.113458  0.183571  0  4.013469  0
C  C59  1  0.30387628  0.00384777  0.58465324  1  0  0.183488  0  3.790575  0  0  0.186148  0  4.02838  0  0  0.190105  0  4.050412  0  0.517432  0  0.113409  0.183517  0  4.013464  0
C  C60  1  0.87186180  0.51066202  0.81048551  1  0  0.117628  0  3.645856  0  0  0.079095  0  3.896707  0  0  0.090771  0  3.908163  0  0.63691  0  0.088713  0.071141  0  3.889033  0
C  C61  1  0.62814065  0.98933762  0.31048475  1  0  0.117771  0  3.645742  0  0  0.079162  0  3.896666  0  0  0.090826  0  3.908136  0  0.636925  0  0.088715  0.071209  0  3.888992  0
C  C62  1  0.12814135  0.48933880  0.18951525  1  0  0.117713  0  3.645802  0  0  0.079118  0  3.896736  0  0  0.090781  0  3.908208  0  0.636917  0  0.088692  0.071166  0  3.889059  0
C  C63  1  0.37185704  0.01066240  0.68951449  1  0  0.117911  0  3.645652  0  0  0.079222  0  3.896661  0  0  0.09089  0  3.908128  0  0.636941  0  0.088765  0.071268  0  3.888988  0
C  C64  1  0.94266195  0.60508089  0.65967098  1  0  0.165796  0  3.816155  0  0  0.169408  0  4.061714  0  0  0.170427  0  4.086918  0  0.443329  0  0.096697  0.168451  0  4.044738  0
C  C65  1  0.55734169  0.89491796  0.15967098  1  0  0.165839  0  3.816236  0  0  0.169494  0  4.061711  0  0  0.170516  0  4.086911  0  0.443264  0  0.096697  0.168535  0  4.04474  0
C  C66  1  0.05734239  0.39491914  0.34032978  1  0  0.165771  0  3.816261  0  0  0.169371  0  4.061829  0  0  0.170391  0  4.087035  0  0.443316  0  0.09667  0.168418  0  4.044848  0
C  C67  1  0.44265571  0.10508047  0.84032902  1  0  0.16579  0  3.816202  0  0  0.169479  0  4.061639  0  0  0.170501  0  4.086839  0  0.443228  0  0.096718  0.168518  0  4.044668  0
C  C68  1  0.11441164  0.57667542  0.63850233  1  0  -0.077452  0  3.675105  0  0  -0.1024  0  3.92113  0  0  -0.10159  0  3.940359  0  -0.039247  0  -0.065388  -0.102601  0  3.907991  0
C  C69  1  0.38559264  0.92332502  0.13850386  1  0  -0.077413  0  3.67518  0  0  -0.102342  0  3.921148  0  0  -0.101537  0  3.940392  0  -0.038575  0  -0.065388  -0.102541  0  3.908008  0
C  C70  1  0.88559285  0.42332540  0.36149691  1  0  -0.077363  0  3.675108  0  0  -0.102296  0  3.921111  0  0  -0.101486  0  3.940344  0  -0.038621  0  -0.065357  -0.102498  0  3.907972  0
C  C71  1  0.61440638  0.07667501  0.86149614  1  0  -0.077287  0  3.675135  0  0  -0.10225  0  3.921111  0  0  -0.10144  0  3.940341  0  -0.038565  0  -0.065356  -0.102449  0  3.907972  0
C  C72  1  0.18569525  0.59591824  0.54160098  1  0  -0.088271  0  3.735984  0  0  -0.099429  0  3.984729  0  0  -0.105397  0  4.007242  0  -0.056389  0  -0.081991  -0.095518  0  3.969502  0
C  C73  1  0.31430665  0.90408379  0.04160327  1  0  -0.088324  0  3.736117  0  0  -0.09948  0  3.984854  0  0  -0.105446  0  4.007364  0  -0.056121  0  -0.081985  -0.095567  0  3.969624  0
C  C74  1  0.81430776  0.40408178  0.45839825  1  0  -0.088404  0  3.736074  0  0  -0.099524  0  3.98477  0  0  -0.105491  0  4.007278  0  -0.056058  0  -0.081994  -0.095613  0  3.969544  0
C  C75  1  0.68569132  0.09591783  0.95839749  1  0  -0.088446  0  3.73619  0  0  -0.09957  0  3.984885  0  0  -0.105538  0  4.007389  0  -0.056099  0  -0.082027  -0.095659  0  3.969658  0
C  C76  1  0.08441294  0.64239731  0.46842519  1  0  0.09707  0  3.721299  0  0  0.066753  0  3.972885  0  0  0.071885  0  3.994494  0  0.413965  0  0.033764  0.063055  0  3.958876  0
C  C77  1  0.41558602  0.85760313  0.96842595  1  0  0.09707  0  3.72128  0  0  0.066706  0  3.972871  0  0  0.071838  0  3.99448  0  0.413769  0  0.033699  0.062999  0  3.958878  0
C  C78  1  0.91559036  0.35760431  0.53157481  1  0  0.097111  0  3.721227  0  0  0.066794  0  3.972793  0  0  0.071924  0  3.994397  0  0.413353  0  0.033773  0.063099  0  3.958779  0
C  C79  1  0.58441167  0.14239690  0.03157405  1  0  0.09708  0  3.72131  0  0  0.066744  0  3.972889  0  0  0.071874  0  3.994493  0  0.413354  0  0.033758  0.063046  0  3.958879  0
C  C80  1  0.84821886  0.65058825  0.58130661  1  0  0.042576  0  3.664634  0  0  0.007077  0  3.916092  0  0  0.01245  0  3.933051  0  0.50385  0  0.04472  0.003652  0  3.904542  0
C  C81  1  0.65178226  0.84941139  0.08130584  1  0  0.042445  0  3.664765  0  0  0.006904  0  3.916201  0  0  0.01228  0  3.93315  0  0.503855  0  0.044654  0.003481  0  3.90465  0
C  C82  1  0.15178577  0.34941337  0.41869416  1  0  0.042492  0  3.664837  0  0  0.006947  0  3.916265  0  0  0.012323  0  3.933214  0  0.503949  0  0.044668  0.003522  0  3.904715  0
C  C83  1  0.34821543  0.15058864  0.91869416  1  0  0.042447  0  3.664658  0  0  0.006874  0  3.916077  0  0  0.012248  0  3.933027  0  0.503918  0  0.044655  0.003451  0  3.904529  0
N  N84  1  0.73952555  0.58997973  0.95714002  1  0  -0.315794  0  3.226088  0  0  -0.242998  0  3.481088  0  0  -0.262489  0  3.5024  0  -1.196036  0  -0.298074  -0.229778  0  3.466357  0
N  N85  1  0.76047558  0.91001991  0.45714079  1  0  -0.315665  0  3.226027  0  0  -0.242905  0  3.481007  0  0  -0.262392  0  3.502311  0  -1.196059  0  -0.298022  -0.229686  0  3.466274  0
N  N86  1  0.26047481  0.41002030  0.04285921  1  0  -0.315816  0  3.226121  0  0  -0.243036  0  3.481106  0  0  -0.262522  0  3.502409  0  -1.196039  0  -0.29809  -0.229817  0  3.466376  0
N  N87  1  0.23952344  0.08998011  0.54285845  1  0  -0.315685  0  3.226076  0  0  -0.242899  0  3.481039  0  0  -0.262386  0  3.502342  0  -1.196022  0  -0.298037  -0.229681  0  3.466308  0
N  N88  1  0.86606989  0.59529381  0.75687907  1  0  -0.297182  0  3.240858  0  0  -0.230324  0  3.500291  0  0  -0.251417  0  3.521701  0  -1.209325  0  -0.291992  -0.215999  0  3.485606  0
N  N89  1  0.63393376  0.90470504  0.25687830  1  0  -0.297235  0  3.240817  0  0  -0.230385  0  3.500284  0  0  -0.251475  0  3.521697  0  -1.209427  0  -0.291975  -0.21606  0  3.485601  0
N  N90  1  0.13393313  0.40470622  0.24312246  1  0  -0.297219  0  3.240825  0  0  -0.230334  0  3.500286  0  0  -0.251422  0  3.521699  0  -1.209364  0  -0.291985  -0.216011  0  3.485599  0
N  N91  1  0.36606379  0.09529419  0.74312246  1  0  -0.297274  0  3.240827  0  0  -0.230402  0  3.500311  0  0  -0.251492  0  3.521722  0  -1.209435  0  -0.292017  -0.216075  0  3.485626  0
N  N92  1  0.91881219  0.66872796  0.48833714  1  0  -0.290797  0  3.29548  0  0  -0.210627  0  3.555027  0  0  -0.231636  0  3.579403  0  -1.209327  0  -0.312117  -0.196156  0  3.537916  0
N  N93  1  0.58118599  0.83127009  0.98833714  1  0  -0.290678  0  3.295416  0  0  -0.210517  0  3.554979  0  0  -0.231525  0  3.579355  0  -1.209309  0  -0.312044  -0.196044  0  3.537863  0
N  N94  1  0.08119111  0.33127366  0.51166286  1  0  -0.290793  0  3.295484  0  0  -0.210625  0  3.555043  0  0  -0.231632  0  3.579419  0  -1.209106  0  -0.312116  -0.196153  0  3.53793  0
N  N95  1  0.41880994  0.16872755  0.01166363  1  0  -0.290714  0  3.295384  0  0  -0.210541  0  3.554942  0  0  -0.231548  0  3.579319  0  -1.208962  0  -0.312094  -0.19607  0  3.537829  0
Cl  Cl96  1  0.00414168  0.88490388  0.83194564  1  0  -0.512562  0  0.860142  0  0  -0.452403  0  1.111233  0  0  -0.469111  0  1.094002  0  -0.56896  0  -0.312044  -0.440756  0  1.122865  0
Cl  Cl97  1  0.49585994  0.61509655  0.33194488  1  0  -0.512571  0  0.860153  0  0  -0.452416  0  1.111256  0  0  -0.469113  0  1.094005  0  -0.568957  0  -0.312054  -0.440771  0  1.122887  0
Cl  Cl98  1  0.99585762  0.11509773  0.16805665  1  0  -0.51257  0  0.860188  0  0  -0.452407  0  1.111284  0  0  -0.469106  0  1.094045  0  -0.568963  0  -0.31205  -0.440758  0  1.122917  0
Cl  Cl99  1  0.50414279  0.38490188  0.66805817  1  0  -0.512578  0  0.860164  0  0  -0.45242  0  1.111264  0  0  -0.469121  0  1.094025  0  -0.568959  0  -0.312059  -0.440774  0  1.122896  0
Cl  Cl100  1  0.48450787  0.74363240  0.72512418  1  0  -0.530982  0  0.919497  0  0  -0.475824  0  1.189497  0  0  -0.492547  0  1.171018  0  -0.598008  0  -0.292729  -0.463838  0  1.20198  0
Cl  Cl101  1  0.01549081  0.75636644  0.22512418  1  0  -0.531003  0  0.919503  0  0  -0.475828  0  1.189493  0  0  -0.492552  0  1.171017  0  -0.598011  0  -0.292728  -0.463843  0  1.201981  0
Cl  Cl102  1  0.51549101  0.25636682  0.27487429  1  0  -0.531001  0  0.919515  0  0  -0.475834  0  1.189516  0  0  -0.492553  0  1.171035  0  -0.597989  0  -0.292733  -0.463846  0  1.202002  0
Cl  Cl103  1  0.98450674  0.24363279  0.77487429  1  0  -0.530995  0  0.919499  0  0  -0.475838  0  1.189511  0  0  -0.492557  0  1.171032  0  -0.598008  0  -0.29274  -0.463853  0  1.201996  0
