# generated using pymatgen
data_ZnH20C16(NO3)2
_symmetry_space_group_name_H-M   'P 1'
_cell_length_a   8.76564059
_cell_length_b   9.45384690
_cell_length_c   9.91324025
_cell_angle_alpha   104.59266951
_cell_angle_beta   89.99998811
_cell_angle_gamma   89.99994973
_symmetry_Int_Tables_number   1
_chemical_formula_structural   ZnH20C16(NO3)2
_chemical_formula_sum   'Zn2 H40 C32 N4 O12'
_cell_volume   795.00009850
_cell_formula_units_Z   2
loop_
 _symmetry_equiv_pos_site_id
 _symmetry_equiv_pos_as_xyz
  1  'x, y, z'
loop_
 _atom_site_type_symbol
 _atom_site_label
 _atom_site_symmetry_multiplicity
 _atom_site_fract_x
 _atom_site_fract_y
 _atom_site_fract_z
 _atom_site_occupancy
 _atom_site_hle17_bader_spin_density
 _atom_site_hle17_ddec_charge
 _atom_site_hle17_ddec_spin_density
 _atom_site_hle17_ddec_sum_bond_order
 _atom_site_hle17_magmom
 _atom_site_hse06_10hf_bader_spin_density
 _atom_site_hse06_10hf_ddec_charge
 _atom_site_hse06_10hf_ddec_spin_density
 _atom_site_hse06_10hf_ddec_sum_bond_order
 _atom_site_hse06_10hf_magmom
 _atom_site_hse06_bader_spin_density
 _atom_site_hse06_ddec_charge
 _atom_site_hse06_ddec_spin_density
 _atom_site_hse06_ddec_sum_bond_order
 _atom_site_hse06_magmom
 _atom_site_pbe_bader_spin_density
 _atom_site_pbe_cm5_charge
 _atom_site_pbe_ddec_charge
 _atom_site_pbe_ddec_spin_density
 _atom_site_pbe_ddec_sum_bond_order
 _atom_site_pbe_magmom
Zn  Zn0  1  0.99999934  0.99999941  0.99999891  1  0  1.037671  0  1.808508  0  0  0.864375  0  2.244019  0  0  0.911031  0  2.192636  0  0  0.666397  0.831334  0  2.279366  0
Zn  Zn1  1  0.50000081  0.49999971  0.50000047  1  0  1.037692  0  1.808498  0  0  0.864403  0  2.24399  0  0  0.911063  0  2.192604  0  0  0.666399  0.831359  0  2.279335  0
H  H2  1  0.52611045  0.97126581  0.80751712  1  0  0.082652  0  0.9419  0  0  0.098914  0  1.005703  0  0  0.100118  0  1.005102  0  0  0.096301  0.097739  0  1.006508  0
H  H3  1  0.02611527  0.52873484  0.69248472  1  0  0.082654  0  0.94193  0  0  0.098923  0  1.005715  0  0  0.100126  0  1.005118  0  0  0.096308  0.097765  0  1.006501  0
H  H4  1  0.47388661  0.02873581  0.19248634  1  0  0.082673  0  0.941952  0  0  0.09893  0  1.005743  0  0  0.100138  0  1.005146  0  0  0.096296  0.097759  0  1.006545  0
H  H5  1  0.97388521  0.47126455  0.30751318  1  0  0.082604  0  0.941909  0  0  0.098882  0  1.005709  0  0  0.100085  0  1.00511  0  0  0.09627  0.097725  0  1.006496  0
H  H6  1  0.36908983  0.08652752  0.80339418  1  0  0.083  0  0.927271  0  0  0.10144  0  0.985861  0  0  0.101559  0  0.987522  0  0  0.096534  0.101299  0  0.984756  0
H  H7  1  0.86909194  0.41347633  0.69660888  1  0  0.083029  0  0.927251  0  0  0.101463  0  0.985847  0  0  0.101584  0  0.987506  0  0  0.09655  0.10132  0  0.984745  0
H  H8  1  0.63090951  0.91347629  0.19660980  1  0  0.083097  0  0.927245  0  0  0.101529  0  0.985818  0  0  0.101654  0  0.987479  0  0  0.096555  0.101389  0  0.984715  0
H  H9  1  0.13090854  0.58652307  0.30338902  1  0  0.0831  0  0.927224  0  0  0.101545  0  0.985807  0  0  0.101668  0  0.987463  0  0  0.096569  0.101404  0  0.984706  0
H  H10  1  0.44616583  0.16593644  0.03369482  1  0  0.097379  0  0.964339  0  0  0.112398  0  1.030366  0  0  0.114087  0  1.030442  0  0  0.100454  0.111126  0  1.030623  0
H  H11  1  0.94616680  0.33406505  0.46630699  1  0  0.097405  0  0.964318  0  0  0.112416  0  1.030356  0  0  0.114106  0  1.030432  0  0  0.100476  0.111147  0  1.030616  0
H  H12  1  0.55383465  0.83406517  0.96630763  1  0  0.097383  0  0.964338  0  0  0.112399  0  1.03037  0  0  0.114087  0  1.03045  0  0  0.100466  0.111128  0  1.030628  0
H  H13  1  0.05383482  0.66593326  0.53369167  1  0  0.097364  0  0.964345  0  0  0.112381  0  1.030378  0  0  0.11407  0  1.030456  0  0  0.100471  0.11111  0  1.030635  0
H  H14  1  0.53207381  0.29641877  0.96219561  1  0  0.096178  0  0.938075  0  0  0.11447  0  0.996996  0  0  0.116103  0  0.997154  0  0  0.099235  0.113568  0  0.996783  0
H  H15  1  0.03207622  0.20358212  0.53780682  1  0  0.096206  0  0.938067  0  0  0.114508  0  0.996973  0  0  0.116132  0  0.997143  0  0  0.099245  0.113604  0  0.996769  0
H  H16  1  0.46792667  0.70358285  0.03780685  1  0  0.096209  0  0.938056  0  0  0.114499  0  0.99698  0  0  0.116133  0  0.997136  0  0  0.099249  0.113598  0  0.996768  0
H  H17  1  0.96792540  0.79641620  0.46219184  1  0  0.096188  0  0.938094  0  0  0.114488  0  0.997009  0  0  0.116122  0  0.997165  0  0  0.099246  0.113584  0  0.996801  0
H  H18  1  0.88301807  0.17224603  0.20573825  1  0  0.407018  0  0.902226  0  0  0.371461  0  0.977252  0  0  0.383284  0  0.959984  0  0  0.282647  0.363004  0  0.989534  0
H  H19  1  0.38301802  0.32775442  0.29426333  1  0  0.407019  0  0.902303  0  0  0.371465  0  0.977272  0  0  0.383289  0  0.960003  0  0  0.282655  0.363008  0  0.989554  0
H  H20  1  0.11698241  0.82775338  0.79426167  1  0  0.407044  0  0.902242  0  0  0.371493  0  0.977222  0  0  0.383316  0  0.959954  0  0  0.282666  0.363034  0  0.989507  0
H  H21  1  0.61698132  0.67224718  0.70573812  1  0  0.407051  0  0.902239  0  0  0.371494  0  0.977224  0  0  0.383321  0  0.95995  0  0  0.282668  0.363038  0  0.989505  0
H  H22  1  0.05778003  0.17420509  0.26588667  1  0  0.416227  0  0.885443  0  0  0.382588  0  0.95721  0  0  0.393862  0  0.940846  0  0  0.285922  0.374367  0  0.969095  0
H  H23  1  0.55777993  0.32579457  0.23411377  1  0  0.41624  0  0.885425  0  0  0.382599  0  0.957193  0  0  0.393873  0  0.940828  0  0  0.285934  0.374377  0  0.969079  0
H  H24  1  0.94222045  0.82579541  0.73411149  1  0  0.416243  0  0.885408  0  0  0.382597  0  0.957192  0  0  0.393873  0  0.940826  0  0  0.285946  0.374376  0  0.969079  0
H  H25  1  0.44221941  0.67420594  0.76588741  1  0  0.416256  0  0.885375  0  0  0.382609  0  0.957176  0  0  0.393884  0  0.94081  0  0  0.285944  0.374388  0  0.969062  0
H  H26  1  0.43549217  0.33319334  0.72361994  1  0  0.084939  0  0.947772  0  0  0.092536  0  1.015822  0  0  0.094691  0  1.014862  0  0  0.113238  0.090966  0  1.016532  0
H  H27  1  0.93549335  0.16680825  0.77638055  1  0  0.084959  0  0.947781  0  0  0.092556  0  1.015824  0  0  0.094713  0  1.014862  0  0  0.113249  0.090986  0  1.016536  0
H  H28  1  0.56450945  0.66680827  0.27638150  1  0  0.084966  0  0.947739  0  0  0.09255  0  1.015802  0  0  0.094706  0  1.014841  0  0  0.113243  0.090981  0  1.016511  0
H  H29  1  0.06451055  0.83319115  0.22361735  1  0  0.084974  0  0.947692  0  0  0.092563  0  1.015765  0  0  0.094719  0  1.014806  0  0  0.11325  0.090993  0  1.016475  0
H  H30  1  0.71273803  0.94302624  0.63071544  1  0  0.112087  0  0.9743  0  0  0.12082  0  1.035972  0  0  0.124238  0  1.033651  0  0  0.105455  0.118302  0  1.038005  0
H  H31  1  0.21274050  0.55697316  0.86928809  1  0  0.11202  0  0.974378  0  0  0.120861  0  1.035931  0  0  0.124279  0  1.033608  0  0  0.105441  0.118341  0  1.037966  0
H  H32  1  0.28726017  0.05697210  0.36928726  1  0  0.112035  0  0.974384  0  0  0.12085  0  1.035962  0  0  0.124269  0  1.033639  0  0  0.105432  0.118332  0  1.037996  0
H  H33  1  0.78725770  0.44302843  0.13071133  1  0  0.112016  0  0.974412  0  0  0.120875  0  1.035942  0  0  0.124278  0  1.033637  0  0  0.105438  0.118356  0  1.037976  0
H  H34  1  0.81319322  0.02240903  0.42171417  1  0  0.10237  0  0.95065  0  0  0.112656  0  1.010388  0  0  0.115941  0  1.009278  0  0  0.104939  0.110175  0  1.011607  0
H  H35  1  0.31319422  0.47758932  0.07828894  1  0  0.102374  0  0.950613  0  0  0.112702  0  1.010296  0  0  0.115987  0  1.009184  0  0  0.105022  0.110221  0  1.011513  0
H  H36  1  0.18680498  0.97758931  0.57828751  1  0  0.102364  0  0.950639  0  0  0.112686  0  1.01033  0  0  0.115971  0  1.00922  0  0  0.105017  0.110206  0  1.011546  0
H  H37  1  0.68680512  0.52241117  0.92170921  1  0  0.102374  0  0.950595  0  0  0.112697  0  1.010284  0  0  0.115983  0  1.009173  0  0  0.105017  0.110217  0  1.011501  0
H  H38  1  0.71476562  0.25304935  0.37724542  1  0  0.081284  0  0.981227  0  0  0.08883  0  1.04837  0  0  0.091841  0  1.045049  0  0  0.116292  0.086363  0  1.051165  0
H  H39  1  0.21476455  0.24695017  0.12275698  1  0  0.081283  0  0.981228  0  0  0.088832  0  1.048367  0  0  0.091843  0  1.045047  0  0  0.116291  0.086365  0  1.051163  0
H  H40  1  0.28523372  0.74694898  0.62275627  1  0  0.081284  0  0.981227  0  0  0.088804  0  1.048397  0  0  0.091816  0  1.045075  0  0  0.116269  0.086338  0  1.051191  0
H  H41  1  0.78523821  0.75304813  0.87723965  1  0  0.081238  0  0.981248  0  0  0.088781  0  1.048394  0  0  0.091794  0  1.045072  0  0  0.116267  0.086314  0  1.05119  0
C  C42  1  0.49391470  0.08501278  0.81459452  1  0  -0.122231  0  3.713887  0  0  -0.168461  0  3.965502  0  0  -0.168009  0  3.978984  0  0  -0.161109  -0.168633  0  3.956548  0
C  C43  1  0.99391681  0.41498985  0.68540722  1  0  -0.122281  0  3.713772  0  0  -0.168497  0  3.965397  0  0  -0.168044  0  3.978872  0  0  -0.161131  -0.168671  0  3.956437  0
C  C44  1  0.50608463  0.91498992  0.18540819  1  0  -0.122383  0  3.71391  0  0  -0.16858  0  3.965466  0  0  -0.168148  0  3.978973  0  0  -0.161123  -0.168758  0  3.956522  0
C  C45  1  0.00608367  0.58500954  0.31458967  1  0  -0.122328  0  3.713755  0  0  -0.168584  0  3.965392  0  0  -0.168134  0  3.978873  0  0  -0.161128  -0.168775  0  3.956447  0
C  C46  1  0.53467493  0.17931509  0.95940486  1  0  -0.269737  0  3.68474  0  0  -0.31078  0  3.93638  0  0  -0.317237  0  3.946018  0  0  -0.167332  -0.306159  0  3.929316  0
C  C47  1  0.03467609  0.32068688  0.54059680  1  0  -0.269797  0  3.68468  0  0  -0.310855  0  3.936326  0  0  -0.317302  0  3.94596  0  0  -0.167382  -0.306248  0  3.929286  0
C  C48  1  0.46532555  0.82068762  0.04059785  1  0  -0.269747  0  3.684717  0  0  -0.310809  0  3.936371  0  0  -0.317259  0  3.946014  0  0  -0.167363  -0.306187  0  3.929314  0
C  C49  1  0.96532439  0.67931252  0.45940110  1  0  -0.269665  0  3.68466  0  0  -0.310718  0  3.936328  0  0  -0.317176  0  3.945965  0  0  -0.16735  -0.306101  0  3.929279  0
C  C50  1  0.68610723  0.14777752  0.02101920  1  0  0.705888  0  3.823128  0  0  0.653054  0  4.128746  0  0  0.686579  0  4.121876  0  0  0.212627  0.630711  0  4.131253  0
C  C51  1  0.18610825  0.35222311  0.47898145  1  0  0.705811  0  3.823149  0  0  0.65299  0  4.128735  0  0  0.686511  0  4.121867  0  0  0.212621  0.630649  0  4.13124  0
C  C52  1  0.31389325  0.85222299  0.97898199  1  0  0.705807  0  3.8232  0  0  0.652954  0  4.128832  0  0  0.686477  0  4.121965  0  0  0.212599  0.63061  0  4.131339  0
C  C53  1  0.81389337  0.64777629  0.52101746  1  0  0.705649  0  3.823207  0  0  0.652802  0  4.12884  0  0  0.686329  0  4.121976  0  0  0.212555  0.630462  0  4.131341  0
C  C54  1  0.51979638  0.26024613  0.66094099  1  0  0.06973  0  3.666176  0  0  0.034281  0  3.912593  0  0  0.040121  0  3.930793  0  0  0.042756  0.030237  0  3.900316  0
C  C55  1  0.01979754  0.23975475  0.83905942  1  0  0.069662  0  3.66628  0  0  0.034224  0  3.912697  0  0  0.040062  0  3.9309  0  0  0.042743  0.030177  0  3.900422  0
C  C56  1  0.48020296  0.73975546  0.33905844  1  0  0.069679  0  3.666225  0  0  0.034227  0  3.912641  0  0  0.040063  0  3.930842  0  0  0.042737  0.030181  0  3.900365  0
C  C57  1  0.98020180  0.76024248  0.16093999  1  0  0.06969  0  3.666035  0  0  0.034194  0  3.912485  0  0  0.04003  0  3.930689  0  0  0.042724  0.030149  0  3.90021  0
C  C58  1  0.56524092  0.13125608  0.69426574  1  0  0.051211  0  3.725479  0  0  0.075333  0  3.965882  0  0  0.070586  0  3.991674  0  0  -0.004097  0.07837  0  3.948992  0
C  C59  1  0.06524197  0.36874587  0.80573794  1  0  0.051267  0  3.725374  0  0  0.075356  0  3.965841  0  0  0.070609  0  3.991632  0  0  -0.004111  0.078393  0  3.948953  0
C  C60  1  0.43475956  0.86874445  0.30573747  1  0  0.051198  0  3.725475  0  0  0.075347  0  3.965839  0  0  0.070607  0  3.991633  0  0  -0.00412  0.078387  0  3.948951  0
C  C61  1  0.93475851  0.63125572  0.19426149  1  0  0.051178  0  3.725422  0  0  0.075352  0  3.965813  0  0  0.070606  0  3.991599  0  0  -0.004148  0.078392  0  3.948929  0
C  C62  1  0.67405104  0.04434272  0.60803607  1  0  -0.062388  0  3.684067  0  0  -0.089992  0  3.932941  0  0  -0.087917  0  3.952067  0  0  -0.071734  -0.092202  0  3.920955  0
C  C63  1  0.17405199  0.45565696  0.89196806  1  0  -0.06238  0  3.683934  0  0  -0.090072  0  3.932846  0  0  -0.088  0  3.951979  0  0  -0.071714  -0.09228  0  3.92086  0
C  C64  1  0.32594716  0.95565672  0.39196689  1  0  -0.062379  0  3.683936  0  0  -0.090063  0  3.932834  0  0  -0.087993  0  3.951964  0  0  -0.071706  -0.092272  0  3.920847  0
C  C65  1  0.82594621  0.54434354  0.10803110  1  0  -0.062369  0  3.683923  0  0  -0.090097  0  3.932809  0  0  -0.088018  0  3.951956  0  0  -0.071691  -0.092307  0  3.920822  0
C  C66  1  0.72961115  0.08705517  0.49273741  1  0  -0.117499  0  3.75474  0  0  -0.127469  0  4.008542  0  0  -0.134487  0  4.030783  0  0  -0.086437  -0.122683  0  3.993723  0
C  C67  1  0.22960995  0.41294325  0.00726574  1  0  -0.117436  0  3.754589  0  0  -0.12744  0  4.008445  0  0  -0.134457  0  4.030685  0  0  -0.086493  -0.122654  0  3.993624  0
C  C68  1  0.27038819  0.91294317  0.50726528  1  0  -0.117397  0  3.75449  0  0  -0.127404  0  4.008337  0  0  -0.134419  0  4.030577  0  0  -0.086482  -0.122616  0  3.993515  0
C  C69  1  0.77038939  0.58705832  0.99273167  1  0  -0.117422  0  3.754609  0  0  -0.127421  0  4.008456  0  0  -0.134436  0  4.030693  0  0  -0.086492  -0.122633  0  3.993636  0
C  C70  1  0.67608163  0.21615455  0.46680233  1  0  0.111384  0  3.715744  0  0  0.077605  0  3.969348  0  0  0.083833  0  3.98803  0  0  0.03927  0.0737  0  3.956434  0
C  C71  1  0.17608283  0.28384720  0.03320060  1  0  0.111343  0  3.715773  0  0  0.077561  0  3.969387  0  0  0.08379  0  3.988069  0  0  0.039246  0.073656  0  3.956471  0
C  C72  1  0.32391885  0.78384488  0.53319961  1  0  0.111333  0  3.715737  0  0  0.077573  0  3.969352  0  0  0.083801  0  3.988034  0  0  0.039286  0.073668  0  3.956436  0
C  C73  1  0.82391879  0.71615329  0.96679756  1  0  0.111389  0  3.715835  0  0  0.077608  0  3.969445  0  0  0.083835  0  3.988129  0  0  0.03927  0.073702  0  3.956532  0
N  N74  1  0.57375364  0.30198361  0.54989270  1  0  -0.322624  0  3.308217  0  0  -0.243431  0  3.572719  0  0  -0.261573  0  3.590827  0  0  -0.325233  -0.231029  0  3.559842  0
N  N75  1  0.07375253  0.19801722  0.95010870  1  0  -0.322579  0  3.308157  0  0  -0.243376  0  3.572646  0  0  -0.261517  0  3.590755  0  0  -0.325213  -0.230974  0  3.55977  0
N  N76  1  0.42624798  0.69801689  0.45010748  1  0  -0.322574  0  3.308162  0  0  -0.243375  0  3.572635  0  0  -0.261514  0  3.590742  0  0  -0.325212  -0.230973  0  3.559758  0
N  N77  1  0.92624795  0.80198327  0.04988946  1  0  -0.322549  0  3.307963  0  0  -0.243315  0  3.57243  0  0  -0.261455  0  3.59054  0  0  -0.325161  -0.230914  0  3.559558  0
O  O78  1  0.77037824  0.04680186  0.95073055  1  0  -0.628896  0  2.023582  0  0  -0.557818  0  2.278275  0  0  -0.585079  0  2.268384  0  0  -0.312041  -0.538027  0  2.283757  0
O  O79  1  0.27038041  0.45319880  0.54927076  1  0  -0.62887  0  2.023612  0  0  -0.557765  0  2.278241  0  0  -0.585029  0  2.268354  0  0  -0.31203  -0.537977  0  2.28373  0
O  O80  1  0.22962110  0.95319865  0.04926962  1  0  -0.628895  0  2.023639  0  0  -0.55776  0  2.278277  0  0  -0.585023  0  2.268387  0  0  -0.312032  -0.537971  0  2.283764  0
O  O81  1  0.72962121  0.54679843  0.45072865  1  0  -0.628799  0  2.02357  0  0  -0.557686  0  2.278216  0  0  -0.58495  0  2.268326  0  0  -0.312015  -0.537902  0  2.283705  0
O  O82  1  0.71647917  0.22626778  0.14363361  1  0  -0.671089  0  2.005976  0  0  -0.60117  0  2.225839  0  0  -0.627789  0  2.215354  0  0  -0.318886  -0.581883  0  2.23196  0
O  O83  1  0.21648030  0.27373174  0.35636778  1  0  -0.671042  0  2.005946  0  0  -0.601144  0  2.225815  0  0  -0.62776  0  2.215332  0  0  -0.318899  -0.581857  0  2.231933  0
O  O84  1  0.28352131  0.77373274  0.85636859  1  0  -0.671051  0  2.005959  0  0  -0.601126  0  2.225831  0  0  -0.627747  0  2.215354  0  0  -0.318886  -0.581838  0  2.231953  0
O  O85  1  0.78352132  0.72626767  0.64363113  1  0  -0.67102  0  2.005974  0  0  -0.601057  0  2.225803  0  0  -0.627689  0  2.215331  0  0  -0.318871  -0.58177  0  2.231921  0
O  O86  1  0.97262593  0.11107329  0.21839594  1  0  -0.825712  0  1.914629  0  0  -0.769479  0  2.132214  0  0  -0.790292  0  2.097077  0  0  -0.581997  -0.755003  0  2.157142  0
O  O87  1  0.47262468  0.38892489  0.28160408  1  0  -0.825722  0  1.914684  0  0  -0.769505  0  2.132227  0  0  -0.790319  0  2.097088  0  0  -0.58201  -0.755026  0  2.157154  0
O  O88  1  0.02737569  0.88892611  0.78160297  1  0  -0.825742  0  1.914619  0  0  -0.769531  0  2.1322  0  0  -0.790342  0  2.097058  0  0  -0.582036  -0.755052  0  2.157129  0
O  O89  1  0.52737466  0.61107562  0.71839610  1  0  -0.825765  0  1.914587  0  0  -0.76955  0  2.132171  0  0  -0.790365  0  2.097028  0  0  -0.58203  -0.755073  0  2.157097  0
