# generated using pymatgen
data_CuH5C9N3O4
_symmetry_space_group_name_H-M   'P 1'
_cell_length_a   4.76140970
_cell_length_b   11.19445864
_cell_length_c   20.20172649
_cell_angle_alpha   90.00000491
_cell_angle_beta   89.99991212
_cell_angle_gamma   98.72094236
_symmetry_Int_Tables_number   1
_chemical_formula_structural   CuH5C9N3O4
_chemical_formula_sum   'Cu4 H20 C36 N12 O16'
_cell_volume   1064.33122299
_cell_formula_units_Z   4
loop_
 _symmetry_equiv_pos_site_id
 _symmetry_equiv_pos_as_xyz
  1  'x, y, z'
loop_
 _atom_site_type_symbol
 _atom_site_label
 _atom_site_symmetry_multiplicity
 _atom_site_fract_x
 _atom_site_fract_y
 _atom_site_fract_z
 _atom_site_occupancy
 _atom_site_hle17_ddec_charge
 _atom_site_hle17_ddec_spin_density
 _atom_site_hle17_ddec_sum_bond_order
 _atom_site_hle17_magmom
 _atom_site_hse06_10hf_ddec_charge
 _atom_site_hse06_10hf_ddec_spin_density
 _atom_site_hse06_10hf_ddec_sum_bond_order
 _atom_site_hse06_10hf_magmom
 _atom_site_hse06_ddec_charge
 _atom_site_hse06_ddec_spin_density
 _atom_site_hse06_ddec_sum_bond_order
 _atom_site_hse06_magmom
 _atom_site_pbe_cm5_charge
 _atom_site_pbe_ddec_charge
 _atom_site_pbe_ddec_spin_density
 _atom_site_pbe_ddec_sum_bond_order
 _atom_site_pbe_magmom
Cu  Cu0  1  0.31413536  0.44234922  0.65949854  1  0.84211  -0.724548  1.864476  -0.506  0.82022  -0.805522  2.260235  -0.621  0.909538  -0.886266  2.190346  -0.71  0.749768  0.767583  -0.740563  2.307171  -0.557
Cu  Cu1  1  0.68586606  0.05765180  0.15949763  1  0.84217  -0.724541  1.864543  -0.506  0.820251  -0.805502  2.260267  -0.621  0.90959  -0.886264  2.190413  -0.71  0.749781  0.767653  -0.740571  2.307207  -0.557
Cu  Cu2  1  0.68586339  0.55765532  0.34050296  1  0.842263  0.724538  1.864298  0.506  0.820434  0.805517  2.25993  0.621  0.909702  0.886263  2.190068  0.71  0.749785  0.767781  0.740537  2.306869  0.557
Cu  Cu3  1  0.31413669  0.94234641  0.84050288  1  0.842192  0.72455  1.864441  0.506  0.820254  0.805503  2.260193  0.621  0.9096  0.886265  2.190284  0.71  0.74978  0.767634  0.740568  2.307142  0.557
H  H4  1  0.34689798  0.41446089  0.91344366  1  0.090865  -0.000697  0.935608  -0.001  0.099237  -0.000553  0.993149  -0.001  0.101263  -0.000363  0.992696  0.0  0.121396  0.097768  -0.000721  0.993647  -0.001
H  H5  1  0.65308785  0.08553646  0.41344326  1  0.090883  -0.000698  0.93557  -0.001  0.099247  -0.000553  0.993113  -0.001  0.101275  -0.000364  0.992658  0.0  0.1214  0.09778  -0.000721  0.99361  -0.001
H  H6  1  0.65310052  0.58552557  0.08655685  1  0.090905  0.000698  0.935506  0.001  0.099253  0.000553  0.993063  0.001  0.10128  0.000364  0.992608  0.0  0.121372  0.097784  0.000721  0.993561  0.001
H  H7  1  0.34689331  0.91447171  0.58655675  1  0.090875  0.000696  0.935529  0.001  0.099198  0.000553  0.993104  0.001  0.101225  0.000364  0.992649  0.0  0.121374  0.097735  0.000721  0.9936  0.001
H  H8  1  0.48939396  0.51690991  0.80410199  1  0.119857  -0.001046  0.969904  -0.002  0.123951  -0.000848  1.033406  -0.002  0.127611  -0.000638  1.030341  -0.001  0.126663  0.121058  -0.000983  1.035933  -0.002
H  H9  1  0.51060748  0.98308911  0.30410067  1  0.119807  -0.001046  0.969931  -0.002  0.123902  -0.000848  1.033444  -0.002  0.127562  -0.000638  1.030377  -0.001  0.126662  0.121008  -0.000983  1.035972  -0.002
H  H10  1  0.51061169  0.48308468  0.19590001  1  0.119796  0.001046  0.969972  0.002  0.123936  0.000848  1.033458  0.002  0.127597  0.000638  1.030395  0.001  0.12665  0.12104  0.000983  1.035987  0.002
H  H11  1  0.48939061  0.01691362  0.69589984  1  0.119812  0.001047  0.969913  0.002  0.123934  0.000848  1.033401  0.002  0.127594  0.000638  1.030335  0.001  0.12666  0.121036  0.000983  1.035932  0.002
H  H12  1  0.56716261  0.31249900  0.55472229  1  0.11535  -0.000404  0.907112  -0.001  0.124729  -0.000273  0.961211  -0.001  0.127797  -0.00021  0.958678  -0.001  0.138028  0.122084  -0.000319  0.963728  -0.001
H  H13  1  0.43285618  0.18750745  0.05472050  1  0.115314  -0.000403  0.907228  -0.001  0.124715  -0.000273  0.961304  -0.001  0.127783  -0.00021  0.958772  -0.001  0.138038  0.122086  -0.000319  0.963798  -0.001
H  H14  1  0.43284729  0.68750734  0.44527921  1  0.115317  0.000404  0.907138  0.001  0.124709  0.000273  0.961229  0.001  0.127778  0.00021  0.958696  0.001  0.13805  0.122075  0.000319  0.963734  0.001
H  H15  1  0.56714645  0.81249618  0.94527952  1  0.115388  0.000403  0.907207  0.001  0.12478  0.000273  0.961276  0.001  0.127848  0.00021  0.958746  0.001  0.138043  0.122149  0.000319  0.963769  0.001
H  H16  1  0.26877182  0.64333034  0.56353002  1  0.104712  -0.000474  0.976665  -0.001  0.103633  -0.000341  1.050783  -0.001  0.10717  -0.000254  1.047911  -0.001  0.124225  0.100821  -0.000397  1.05324  -0.001
H  H17  1  0.73123042  0.85667236  0.06352911  1  0.104689  -0.000474  0.976674  -0.001  0.103613  -0.000341  1.050793  -0.001  0.107151  -0.000254  1.04792  -0.001  0.124222  0.100799  -0.000398  1.053251  -0.001
H  H18  1  0.73123808  0.35667600  0.43647148  1  0.104657  0.000474  0.97672  0.001  0.10357  0.000341  1.050851  0.001  0.107108  0.000254  1.047979  0.001  0.124187  0.100758  0.000398  1.053306  0.001
H  H19  1  0.26876912  0.14332856  0.93647140  1  0.104653  0.000474  0.976707  0.001  0.103584  0.000341  1.050824  0.001  0.107121  0.000254  1.047954  0.001  0.124204  0.100787  0.000397  1.053267  0.001
H  H20  1  0.00578750  0.89993746  0.43808040  1  0.217462  0.000136  0.972349  0.0  0.21496  0.000205  1.032153  0.0  0.222721  0.000148  1.025352  0.0  0.126695  0.209418  0.000251  1.037034  0.0
H  H21  1  0.99419055  0.60005161  0.93807956  1  0.217471  0.000131  0.972408  0.0  0.214954  0.000204  1.032211  0.0  0.222717  0.000148  1.025406  0.0  0.1267  0.209411  0.000251  1.037088  0.0
H  H22  1  0.99418791  0.10004902  0.56192308  1  0.217527  -0.000136  0.972302  0.0  0.215007  -0.000204  1.032111  0.0  0.222768  -0.000148  1.02531  0.0  0.126717  0.209464  -0.000251  1.036999  0.0
H  H23  1  0.00581607  0.39994569  0.06192095  1  0.217537  -0.000131  0.972548  0.0  0.215028  -0.000204  1.032332  0.0  0.22279  -0.000147  1.025529  0.0  0.126716  0.209487  -0.000251  1.037211  0.0
C  C24  1  0.08501461  0.26959366  0.75139814  1  0.048604  0.006648  3.675084  0.007  0.047099  0.001256  3.914391  0.002  0.048457  0.001933  3.931779  0.003  0.118888  0.045409  0.000732  3.904497  0.001
C  C25  1  0.91498555  0.23040553  0.25139964  1  0.048776  0.006644  3.674973  0.007  0.047288  0.001256  3.914198  0.002  0.048641  0.001931  3.931583  0.003  0.118986  0.045603  0.000733  3.904316  0.001
C  C26  1  0.91497588  0.73040547  0.24859989  1  0.048638  -0.006649  3.674812  -0.007  0.047074  -0.001258  3.914215  -0.002  0.048434  -0.001933  3.931604  -0.003  0.118846  0.045371  -0.000733  3.904327  -0.001
C  C27  1  0.08502803  0.76959357  0.74860136  1  0.048731  -0.006688  3.6751  -0.007  0.047139  -0.001254  3.914447  -0.002  0.048499  -0.001938  3.931846  -0.003  0.118885  0.045448  -0.000732  3.904539  -0.001
C  C28  1  0.99511868  0.21768518  0.81225714  1  0.094475  0.000789  3.672231  0.002  0.09615  0.001815  3.914809  0.003  0.096219  0.000316  3.9274  0.001  0.138286  0.095379  0.002938  3.907342  0.004
C  C29  1  0.00487510  0.28231490  0.31225846  1  0.094311  0.000795  3.672293  0.002  0.09611  0.001815  3.914815  0.003  0.09618  0.000318  3.927406  0.001  0.138224  0.095329  0.002938  3.907351  0.004
C  C30  1  0.00487889  0.78231032  0.18773941  1  0.094598  -0.000789  3.672001  -0.002  0.096242  -0.001815  3.914708  -0.003  0.096306  -0.000317  3.927313  -0.001  0.138362  0.095471  -0.002937  3.907247  -0.004
C  C31  1  0.99512509  0.71768783  0.68774155  1  0.094404  -0.00075  3.672211  -0.002  0.096238  -0.001817  3.914753  -0.003  0.096304  -0.000312  3.927351  -0.001  0.138252  0.095465  -0.002938  3.907277  -0.004
C  C32  1  0.26667849  0.37394990  0.86677390  1  0.116095  -0.008341  3.642044  -0.009  0.089858  -0.003795  3.902894  -0.005  0.093212  -0.00364  3.914857  -0.004  0.071445  0.087447  -0.003871  3.895194  -0.005
C  C33  1  0.73331218  0.12604837  0.36677446  1  0.116097  -0.008333  3.641847  -0.009  0.08986  -0.003799  3.902732  -0.005  0.093213  -0.003633  3.914695  -0.004  0.071462  0.087447  -0.003871  3.895031  -0.005
C  C34  1  0.73332165  0.62604108  0.13322513  1  0.116222  0.008341  3.641755  0.009  0.090019  0.003797  3.902641  0.005  0.093376  0.003636  3.914605  0.004  0.071572  0.08761  0.003872  3.89494  0.005
C  C35  1  0.26667817  0.87395618  0.63322654  1  0.116192  0.008377  3.641875  0.009  0.090026  0.003796  3.902711  0.005  0.093381  0.003639  3.914675  0.004  0.071535  0.087604  0.003871  3.895022  0.005
C  C36  1  0.34729496  0.43111637  0.80673595  1  0.111158  0.008489  3.595297  0.009  0.081374  0.00212  3.852176  0.003  0.089456  0.002909  3.864985  0.004  0.066744  0.075552  0.001538  3.845078  0.002
C  C37  1  0.65270208  0.06888100  0.30673555  1  0.111312  0.008486  3.595187  0.008  0.081507  0.002123  3.852094  0.003  0.089593  0.002903  3.8649  0.004  0.066784  0.075695  0.001538  3.844997  0.002
C  C38  1  0.65270439  0.56887822  0.19326506  1  0.11129  -0.008491  3.595282  -0.009  0.081392  -0.002121  3.85223  -0.003  0.089469  -0.002905  3.865042  -0.004  0.066762  0.075571  -0.001538  3.845129  -0.002
C  C39  1  0.34729746  0.93111993  0.69326447  1  0.111248  -0.008525  3.595173  -0.009  0.08139  -0.00212  3.85204  -0.003  0.089473  -0.002908  3.864849  -0.004  0.066737  0.075576  -0.001538  3.844939  -0.002
C  C40  1  0.02381809  0.21194803  0.68458753  1  0.611078  0.00398  3.933905  0.006  0.569431  -0.0006  4.236934  0.001  0.605337  -0.000484  4.231888  0.001  0.205781  0.544772  -0.00071  4.239666  0.001
C  C41  1  0.97618704  0.28805208  0.18458752  1  0.610929  0.003982  3.934055  0.006  0.569231  -0.000602  4.23715  0.001  0.605158  -0.000484  4.232074  0.001  0.205703  0.544567  -0.000711  4.239891  0.001
C  C42  1  0.97616097  0.78806015  0.31540853  1  0.611042  -0.003983  3.933687  -0.006  0.569415  0.000601  4.23674  -0.001  0.605312  0.000485  4.231704  -0.001  0.205827  0.544781  0.00071  4.239431  -0.001
C  C43  1  0.02384314  0.71194068  0.81541052  1  0.610959  -0.003977  3.933698  -0.006  0.569301  0.0006  4.236786  -0.001  0.605199  0.000486  4.231752  -0.001  0.205738  0.544664  0.000711  4.239476  -0.001
C  C44  1  0.79637040  0.09959447  0.82017035  1  0.639324  -0.006192  3.906358  -0.009  0.593795  -0.00202  4.215484  -0.005  0.633547  -0.001962  4.204267  -0.004  0.211604  0.567169  -0.002006  4.221888  -0.005
C  C45  1  0.20362543  0.40040561  0.32017310  1  0.639672  -0.006192  3.905287  -0.009  0.593892  -0.00202  4.214771  -0.005  0.633641  -0.001962  4.203543  -0.004  0.211589  0.567263  -0.002006  4.221185  -0.005
C  C46  1  0.20362153  0.90040285  0.17982570  1  0.639364  0.006192  3.905911  0.009  0.593752  0.00202  4.215186  0.005  0.633506  0.001962  4.203962  0.004  0.211523  0.567128  0.002006  4.221598  0.005
C  C47  1  0.79637476  0.59959712  0.67982939  1  0.639468  0.006189  3.905744  0.009  0.593688  0.002021  4.215255  0.005  0.633441  0.001961  4.204037  0.004  0.211566  0.567068  0.002006  4.221644  0.005
C  C48  1  0.53771366  0.39607165  0.52995610  1  0.104603  0.015383  3.611572  0.016  0.077945  0.004577  3.857417  0.006  0.08303  0.005449  3.872315  0.007  0.073521  0.074163  0.003866  3.849014  0.005
C  C49  1  0.46229866  0.10393391  0.02995528  1  0.10488  0.015361  3.611577  0.016  0.0782  0.004577  3.857445  0.006  0.083288  0.005446  3.872338  0.007  0.073588  0.074407  0.003865  3.849037  0.005
C  C50  1  0.46229867  0.60393559  0.47004540  1  0.104855  -0.015381  3.611486  -0.016  0.078189  -0.004577  3.857359  -0.006  0.083274  -0.005448  3.872252  -0.007  0.073549  0.074394  -0.003865  3.848955  -0.005
C  C51  1  0.53770330  0.89606791  0.97004523  1  0.104612  -0.015361  3.611667  -0.016  0.07797  -0.004578  3.85748  -0.006  0.083056  -0.005446  3.872377  -0.007  0.073533  0.074178  -0.003865  3.849066  -0.005
C  C52  1  0.37322695  0.57971705  0.53496462  1  0.08744  0.015427  3.61485  0.016  0.063483  0.004811  3.86032  0.006  0.067421  0.005697  3.876887  0.007  0.063688  0.060521  0.004055  3.850581  0.005
C  C53  1  0.62677469  0.92028928  0.03496375  1  0.087622  0.015408  3.614935  0.016  0.063663  0.004812  3.860368  0.006  0.067603  0.005696  3.87693  0.007  0.0637  0.060704  0.004055  3.850641  0.005
C  C54  1  0.62678216  0.42029290  0.46503639  1  0.087663  -0.015428  3.614895  -0.016  0.06373  -0.004811  3.860329  -0.006  0.067667  -0.005697  3.876892  -0.007  0.063747  0.060765  -0.004055  3.850588  -0.005
C  C55  1  0.37322228  0.07971617  0.96503627  1  0.087555  -0.015412  3.614829  -0.016  0.063596  -0.004812  3.860276  -0.006  0.067532  -0.005696  3.876843  -0.007  0.063726  0.060623  -0.004055  3.850531  -0.005
C  C56  1  0.00226362  0.96298441  0.47822697  1  -0.218895  -0.000551  3.630574  0.0  -0.223556  -5.7e-05  3.851107  0.0  -0.22894  -1.6e-05  3.871231  0.0  -0.142596  -0.219595  -0.000109  3.837292  0.0
C  C57  1  0.99773490  0.53701548  0.97822464  1  -0.218805  -0.000421  3.629923  0.0  -0.223439  -5.7e-05  3.850456  0.0  -0.228823  -1.3e-05  3.870577  0.0  -0.142549  -0.219473  -0.000109  3.836635  0.0
C  C58  1  0.99773377  0.03700476  0.52177354  1  -0.218961  0.000552  3.63054  0.0  -0.22359  5.7e-05  3.851068  0.0  -0.228973  1.7e-05  3.87119  0.0  -0.142561  -0.219627  0.000109  3.837256  0.0
C  C59  1  0.00227239  0.46298363  0.02177835  1  -0.219057  0.000422  3.630093  0.0  -0.223711  5.7e-05  3.850627  0.0  -0.229095  1.4e-05  3.870746  0.0  -0.142586  -0.219753  0.000109  3.836812  0.0
N  N60  1  0.25637211  0.37701627  0.75017297  1  -0.250427  -0.075787  3.347712  -0.093  -0.21631  -0.053173  3.645503  -0.07  -0.24163  -0.04425  3.66367  -0.061  -0.329977  -0.202146  -0.057101  3.636481  -0.072
N  N61  1  0.74363016  0.12298292  0.25017304  1  -0.250622  -0.075786  3.347793  -0.093  -0.2165  -0.053174  3.645576  -0.07  -0.241826  -0.044245  3.663752  -0.061  -0.330051  -0.202352  -0.057099  3.636573  -0.072
N  N62  1  0.74362258  0.62298285  0.24982605  1  -0.250604  0.075789  3.347847  0.093  -0.216399  0.053173  3.645629  0.07  -0.241705  0.044246  3.663787  0.061  -0.329985  -0.202232  0.057104  3.636599  0.072
N  N63  1  0.25638342  0.87701618  0.74982747  1  -0.250637  0.075818  3.347802  0.093  -0.216427  0.053174  3.645556  0.07  -0.241753  0.044251  3.663725  0.061  -0.32998  -0.20227  0.057101  3.636542  0.072
N  N64  1  0.08918464  0.26958033  0.86972565  1  -0.266029  0.007442  3.043369  0.009  -0.242778  0.003524  3.308065  0.004  -0.248607  0.003217  3.319051  0.004  -0.289952  -0.238474  0.003895  3.300828  0.004
N  N65  1  0.91080423  0.23041884  0.36972567  1  -0.265995  0.007435  3.043608  0.009  -0.242751  0.003526  3.308243  0.004  -0.248584  0.003213  3.31923  0.004  -0.289914  -0.238438  0.003895  3.301001  0.004
N  N66  1  0.91081760  0.73041065  0.13027238  1  -0.266212  -0.007441  3.043589  -0.009  -0.242929  -0.003524  3.308288  -0.004  -0.248758  -0.003215  3.319274  -0.004  -0.29002  -0.238628  -0.003895  3.30105  -0.004
N  N67  1  0.08918257  0.76958752  0.63027385  1  -0.26603  -0.007471  3.043565  -0.009  -0.242811  -0.003524  3.308181  -0.004  -0.24864  -0.003219  3.319168  -0.004  -0.289911  -0.2385  -0.003895  3.300943  -0.004
N  N68  1  0.41207811  0.47586076  0.56444625  1  -0.229155  -0.069785  3.3186  -0.085  -0.179207  -0.048233  3.599478  -0.063  -0.201232  -0.041724  3.617325  -0.057  -0.322731  -0.167254  -0.051003  3.590113  -0.064
N  N69  1  0.58793188  0.02414480  0.06444439  1  -0.229425  -0.069766  3.318698  -0.085  -0.179511  -0.048234  3.599638  -0.063  -0.201539  -0.041722  3.617486  -0.057  -0.322835  -0.167573  -0.051003  3.590301  -0.064
N  N70  1  0.58793211  0.52414648  0.43555624  1  -0.229407  0.069782  3.318649  0.085  -0.179498  0.048233  3.59958  0.063  -0.201511  0.041723  3.617413  0.057  -0.322807  -0.167544  0.051006  3.590221  0.064
N  N71  1  0.41206799  0.97585703  0.93555563  1  -0.229231  0.069771  3.318471  0.085  -0.179295  0.048235  3.599336  0.063  -0.201326  0.041723  3.617187  0.057  -0.322748  -0.167352  0.051004  3.589995  0.064
O  O72  1  0.12963070  0.27680681  0.63472692  1  -0.590675  -0.103135  2.010379  -0.134  -0.573726  -0.067715  2.28447  -0.097  -0.617601  -0.052331  2.275909  -0.079  -0.329835  -0.545078  -0.076213  2.290538  -0.105
O  O73  1  0.87037718  0.22319421  0.13472794  1  -0.5906  -0.103123  2.010498  -0.134  -0.573627  -0.067712  2.28459  -0.097  -0.617513  -0.052326  2.276029  -0.079  -0.329819  -0.544987  -0.076204  2.290669  -0.105
O  O74  1  0.87034481  0.72320318  0.36527111  1  -0.590653  0.103137  2.01017  0.134  -0.573736  0.067717  2.284292  0.097  -0.617598  0.052332  2.275735  0.079  -0.329812  -0.545089  0.076221  2.290338  0.105
O  O75  1  0.12964946  0.77680036  0.86527257  1  -0.59062  0.103136  2.010142  0.134  -0.573668  0.067719  2.28427  0.097  -0.617549  0.052332  2.275717  0.079  -0.329758  -0.545032  0.076219  2.290327  0.105
O  O76  1  0.88988993  0.10791472  0.67997885  1  -0.54882  -0.024272  1.928187  -0.03  -0.516164  -0.010959  2.143704  -0.015  -0.544439  -0.00488  2.139497  -0.007  -0.293431  -0.494341  -0.01821  2.144914  -0.024
O  O77  1  0.11011877  0.39208357  0.17997966  1  -0.548798  -0.024276  1.92826  -0.03  -0.516134  -0.010958  2.143809  -0.015  -0.544418  -0.004884  2.139597  -0.007  -0.293404  -0.494303  -0.018211  2.145006  -0.024
O  O78  1  0.11008283  0.89209346  0.32001423  1  -0.548813  0.024271  1.928092  0.03  -0.516171  0.010958  2.143629  0.015  -0.544441  0.004881  2.139423  0.007  -0.293497  -0.494363  0.018209  2.144828  0.024
O  O79  1  0.88992690  0.60790555  0.82001739  1  -0.548787  0.024267  1.928093  0.03  -0.516127  0.010958  2.143621  0.015  -0.544396  0.00488  2.139417  0.007  -0.293472  -0.494314  0.018209  2.144813  0.024
O  O80  1  0.53111015  0.10416073  0.81247947  1  -0.575215  0.089348  2.035039  0.115  -0.550507  0.056707  2.308026  0.08  -0.59359  0.044173  2.303563  0.066  -0.311328  -0.521483  0.063404  2.310431  0.086
O  O81  1  0.46888541  0.39583845  0.31248064  1  -0.575396  0.089351  2.034835  0.115  -0.550574  0.056706  2.307869  0.08  -0.593642  0.044174  2.303402  0.066  -0.311294  -0.521538  0.063407  2.310267  0.086
O  O82  1  0.46888664  0.89583839  0.18751906  1  -0.575249  -0.089361  2.034888  -0.115  -0.550427  -0.056712  2.307791  -0.08  -0.593514  -0.044178  2.303336  -0.066  -0.311258  -0.521403  -0.063408  2.310196  -0.086
O  O83  1  0.53111348  0.60416066  0.68752482  1  -0.575226  -0.08935  2.034958  -0.115  -0.550449  -0.056707  2.308036  -0.08  -0.593526  -0.044173  2.303571  -0.066  -0.311271  -0.521422  -0.063406  2.310427  -0.086
O  O84  1  0.89435152  0.00764941  0.83932711  1  -0.624056  -0.002872  2.065441  -0.001  -0.603734  -0.001416  2.345654  0.001  -0.636872  -0.002187  2.33202  -0.001  -0.316948  -0.580902  -0.000711  2.354639  0.002
O  O85  1  0.10564983  0.49234885  0.33933188  1  -0.6242  -0.002874  2.064937  -0.001  -0.603857  -0.001416  2.345342  0.001  -0.636973  -0.002187  2.331694  -0.001  -0.316975  -0.581008  -0.00071  2.354306  0.002
O  O86  1  0.10564330  0.99234429  0.16066894  1  -0.624091  0.002874  2.065292  0.001  -0.603776  0.001416  2.345621  -0.001  -0.636912  0.002189  2.331989  0.001  -0.316986  -0.580943  0.000712  2.354592  -0.002
O  O87  1  0.89435424  0.50765297  0.66066913  1  -0.624141  0.002875  2.065121  0.001  -0.603759  0.001416  2.345516  -0.001  -0.636891  0.002186  2.331877  0.001  -0.316983  -0.580925  0.00071  2.354487  -0.002
