# generated using pymatgen
data_GdH6(CO3)3
_symmetry_space_group_name_H-M   'P 1'
_cell_length_a   9.23759906
_cell_length_b   9.94470063
_cell_length_c   11.24057318
_cell_angle_alpha   114.41006267
_cell_angle_beta   90.00002951
_cell_angle_gamma   89.99998665
_symmetry_Int_Tables_number   1
_chemical_formula_structural   GdH6(CO3)3
_chemical_formula_sum   'Gd4 H24 C12 O36'
_cell_volume   940.31251668
_cell_formula_units_Z   4
loop_
 _symmetry_equiv_pos_site_id
 _symmetry_equiv_pos_as_xyz
  1  'x, y, z'
loop_
 _atom_site_type_symbol
 _atom_site_label
 _atom_site_symmetry_multiplicity
 _atom_site_fract_x
 _atom_site_fract_y
 _atom_site_fract_z
 _atom_site_occupancy
 _atom_site_hle17_bader_spin_density
 _atom_site_hle17_ddec_charge
 _atom_site_hle17_ddec_spin_density
 _atom_site_hle17_ddec_sum_bond_order
 _atom_site_hle17_magmom
 _atom_site_hse06_10hf_bader_spin_density
 _atom_site_hse06_10hf_ddec_charge
 _atom_site_hse06_10hf_ddec_spin_density
 _atom_site_hse06_10hf_ddec_sum_bond_order
 _atom_site_hse06_10hf_magmom
 _atom_site_hse06_bader_spin_density
 _atom_site_hse06_ddec_charge
 _atom_site_hse06_ddec_spin_density
 _atom_site_hse06_ddec_sum_bond_order
 _atom_site_hse06_magmom
 _atom_site_pbe_bader_spin_density
 _atom_site_pbe_cm5_charge
 _atom_site_pbe_ddec_charge
 _atom_site_pbe_ddec_spin_density
 _atom_site_pbe_ddec_sum_bond_order
 _atom_site_pbe_magmom
Gd  Gd0  1  0.04218970  0.16239029  0.80303354  1  0  2.160232  0  1.738937  0  0  2.067131  0  2.082858  0  0  2.115939  0  2.035911  0  0  1.421985  2.028244  0  2.121179  0
Gd  Gd1  1  0.54219392  0.33761406  0.19697112  1  0  2.16027  0  1.739092  0  0  2.067094  0  2.083102  0  0  2.115864  0  2.036231  0  0  1.421952  2.028227  0  2.121406  0
Gd  Gd2  1  0.95780834  0.83760178  0.19696399  1  0  2.160141  0  1.739252  0  0  2.067112  0  2.08306  0  0  2.11589  0  2.036177  0  0  1.421928  2.028101  0  2.121561  0
Gd  Gd3  1  0.45781062  0.66239895  0.80304127  1  0  2.160125  0  1.739094  0  0  2.067254  0  2.082693  0  0  2.116023  0  2.035805  0  0  1.42201  2.028239  0  2.121204  0
H  H4  1  0.32458453  0.01283433  0.78968002  1  0  0.437904  0  0.853999  0  0  0.412743  0  0.907252  0  0  0.423153  0  0.8919  0  0  0.308929  0.405271  0  0.918269  0
H  H5  1  0.82458762  0.48715908  0.21030651  1  0  0.43801  0  0.853851  0  0  0.412794  0  0.907213  0  0  0.423206  0  0.891854  0  0  0.308908  0.405313  0  0.91825  0
H  H6  1  0.67542867  0.98716222  0.21030938  1  0  0.438041  0  0.853807  0  0  0.412852  0  0.907115  0  0  0.423264  0  0.891758  0  0  0.308965  0.405374  0  0.918147  0
H  H7  1  0.17542557  0.51283086  0.78967778  1  0  0.43804  0  0.853795  0  0  0.412844  0  0.907121  0  0  0.423255  0  0.891765  0  0  0.308947  0.405365  0  0.918154  0
H  H8  1  0.36613861  0.18484302  0.88186645  1  0  0.447677  0  0.850911  0  0  0.417512  0  0.911439  0  0  0.429278  0  0.894319  0  0  0.303917  0.409248  0  0.923405  0
H  H9  1  0.86613630  0.31514373  0.11812387  1  0  0.447624  0  0.850989  0  0  0.417547  0  0.911379  0  0  0.429266  0  0.894324  0  0  0.303956  0.409294  0  0.92333  0
H  H10  1  0.63386484  0.81515130  0.11812480  1  0  0.447616  0  0.850986  0  0  0.417528  0  0.911397  0  0  0.429256  0  0.894331  0  0  0.303953  0.409262  0  0.923367  0
H  H11  1  0.13386283  0.68484062  0.88186991  1  0  0.447632  0  0.85098  0  0  0.417545  0  0.911396  0  0  0.429268  0  0.894333  0  0  0.303912  0.409289  0  0.923354  0
H  H12  1  0.77748130  0.95478141  0.74917728  1  0  0.453186  0  0.794411  0  0  0.434845  0  0.84742  0  0  0.443827  0  0.834304  0  0  0.332623  0.428279  0  0.857059  0
H  H13  1  0.27748984  0.54521493  0.25082003  1  0  0.453175  0  0.79438  0  0  0.434828  0  0.847441  0  0  0.44381  0  0.834324  0  0  0.332629  0.428263  0  0.857078  0
H  H14  1  0.22250051  0.04520845  0.25081944  1  0  0.453249  0  0.794212  0  0  0.434912  0  0.847308  0  0  0.443895  0  0.83419  0  0  0.33267  0.428347  0  0.856947  0
H  H15  1  0.72251362  0.45478710  0.74917939  1  0  0.453231  0  0.79433  0  0  0.434884  0  0.84737  0  0  0.443869  0  0.834248  0  0  0.332628  0.428314  0  0.857014  0
H  H16  1  0.74856592  0.09698069  0.87252648  1  0  0.439213  0  0.855801  0  0  0.409531  0  0.916831  0  0  0.420555  0  0.900713  0  0  0.305221  0.40169  0  0.928275  0
H  H17  1  0.24856673  0.40301709  0.12746963  1  0  0.439149  0  0.855884  0  0  0.40946  0  0.916938  0  0  0.420484  0  0.90082  0  0  0.305194  0.401621  0  0.92838  0
H  H18  1  0.25143754  0.90301693  0.12746865  1  0  0.439192  0  0.855806  0  0  0.409516  0  0.916852  0  0  0.420539  0  0.900737  0  0  0.305227  0.401668  0  0.928311  0
H  H19  1  0.75143781  0.59697940  0.87252953  1  0  0.439209  0  0.855789  0  0  0.409497  0  0.916896  0  0  0.420522  0  0.900776  0  0  0.305206  0.401651  0  0.928349  0
H  H20  1  0.29362838  0.33070507  0.75159343  1  0  0.446609  0  0.848149  0  0  0.415686  0  0.911306  0  0  0.427228  0  0.894268  0  0  0.31236  0.407451  0  0.923471  0
H  H21  1  0.79363158  0.16929053  0.24839745  1  0  0.446662  0  0.848061  0  0  0.415741  0  0.911226  0  0  0.427285  0  0.894186  0  0  0.312352  0.407503  0  0.923398  0
H  H22  1  0.70637291  0.66928926  0.24839781  1  0  0.446592  0  0.848175  0  0  0.415657  0  0.911358  0  0  0.427202  0  0.894316  0  0  0.31229  0.407415  0  0.923536  0
H  H23  1  0.20637404  0.83070601  0.75159284  1  0  0.446621  0  0.848131  0  0  0.415694  0  0.911296  0  0  0.427236  0  0.894258  0  0  0.312348  0.407459  0  0.923459  0
H  H24  1  0.20184477  0.29741854  0.62571643  1  0  0.457658  0  0.782696  0  0  0.439538  0  0.833425  0  0  0.448505  0  0.823345  0  0  0.340828  0.432943  0  0.840902  0
H  H25  1  0.70184369  0.20258368  0.37427684  1  0  0.457704  0  0.782701  0  0  0.439463  0  0.833638  0  0  0.448432  0  0.823554  0  0  0.340737  0.432871  0  0.841111  0
H  H26  1  0.79816194  0.70257911  0.37427515  1  0  0.457746  0  0.782668  0  0  0.439484  0  0.833635  0  0  0.448453  0  0.823552  0  0  0.340763  0.432886  0  0.841108  0
H  H27  1  0.29815977  0.79741506  0.62571514  1  0  0.457661  0  0.782678  0  0  0.439558  0  0.83339  0  0  0.448524  0  0.82331  0  0  0.340833  0.432957  0  0.84087  0
C  C28  1  0.97437765  0.07368304  0.05356769  1  0  0.588844  0  3.870057  0  0  0.539476  0  4.174848  0  0  0.570499  0  4.16389  0  0  0.236132  0.518451  0  4.181289  0
C  C29  1  0.47437668  0.42631149  0.94641844  1  0  0.588918  0  3.869976  0  0  0.539438  0  4.17492  0  0  0.57046  0  4.163963  0  0  0.236196  0.518408  0  4.181358  0
C  C30  1  0.02562148  0.92630023  0.94642036  1  0  0.588904  0  3.870286  0  0  0.539562  0  4.175  0  0  0.570583  0  4.164043  0  0  0.236169  0.518491  0  4.181494  0
C  C31  1  0.52561703  0.57369503  0.05356931  1  0  0.588819  0  3.870012  0  0  0.539502  0  4.174797  0  0  0.570526  0  4.163836  0  0  0.236113  0.518457  0  4.181249  0
C  C32  1  0.07430605  0.50244222  0.03240137  1  0  0.550796  0  3.928542  0  0  0.505358  0  4.234034  0  0  0.535059  0  4.225838  0  0  0.21839  0.48504  0  4.238759  0
C  C33  1  0.57430625  0.99754633  0.96760185  1  0  0.550628  0  3.928744  0  0  0.505272  0  4.234121  0  0  0.534968  0  4.225923  0  0  0.218378  0.484959  0  4.238846  0
C  C34  1  0.92569092  0.49754096  0.96760354  1  0  0.550675  0  3.928677  0  0  0.505263  0  4.234093  0  0  0.534961  0  4.225897  0  0  0.218296  0.484947  0  4.238818  0
C  C35  1  0.42568854  0.00245237  0.03239813  1  0  0.551095  0  3.928418  0  0  0.505593  0  4.234011  0  0  0.535299  0  4.225812  0  0  0.218522  0.485273  0  4.238738  0
C  C36  1  0.94805923  0.06252814  0.50194430  1  0  0.551334  0  3.95227  0  0  0.511686  0  4.255458  0  0  0.541149  0  4.247417  0  0  0.209275  0.491665  0  4.25974  0
C  C37  1  0.44806887  0.43750158  0.49807973  1  0  0.551197  0  3.95212  0  0  0.511591  0  4.255291  0  0  0.541057  0  4.247242  0  0  0.209163  0.491566  0  4.259579  0
C  C38  1  0.05192258  0.93749151  0.49806875  1  0  0.551574  0  3.952251  0  0  0.511954  0  4.255413  0  0  0.541422  0  4.247363  0  0  0.209225  0.49192  0  4.259709  0
C  C39  1  0.55193892  0.56253673  0.50195891  1  0  0.551875  0  3.95222  0  0  0.512215  0  4.255392  0  0  0.541682  0  4.247342  0  0  0.209476  0.492187  0  4.259682  0
O  O40  1  0.97182610  0.18325279  0.02339142  1  0  -0.652358  0  2.133552  0  0  -0.603673  0  2.366038  0  0  -0.629345  0  2.357591  0  0  -0.335799  -0.585336  0  2.371467  0
O  O41  1  0.47183492  0.31672951  0.97660353  1  0  -0.652416  0  2.133004  0  0  -0.603637  0  2.365527  0  0  -0.629332  0  2.357091  0  0  -0.335777  -0.585293  0  2.370947  0
O  O42  1  0.02817195  0.81672821  0.97660646  1  0  -0.652447  0  2.133423  0  0  -0.603755  0  2.365869  0  0  -0.629432  0  2.357433  0  0  -0.335825  -0.585389  0  2.371312  0
O  O43  1  0.52816421  0.68326143  0.02339714  1  0  -0.652371  0  2.133723  0  0  -0.603709  0  2.366189  0  0  -0.629384  0  2.357742  0  0  -0.335848  -0.58535  0  2.371628  0
O  O44  1  0.11090755  0.62253042  0.12501365  1  0  -0.629727  0  2.023923  0  0  -0.590861  0  2.261833  0  0  -0.613779  0  2.252021  0  0  -0.359185  -0.57466  0  2.268684  0
O  O45  1  0.61090775  0.87747793  0.87500937  1  0  -0.629623  0  2.024626  0  0  -0.590807  0  2.262518  0  0  -0.613718  0  2.252696  0  0  -0.359092  -0.57461  0  2.269368  0
O  O46  1  0.88908724  0.37746039  0.87500922  1  0  -0.629634  0  2.024146  0  0  -0.590752  0  2.262006  0  0  -0.61367  0  2.252189  0  0  -0.359095  -0.574575  0  2.268857  0
O  O47  1  0.38908272  0.12255499  0.12500593  1  0  -0.629918  0  2.023585  0  0  -0.590976  0  2.2615  0  0  -0.613901  0  2.251681  0  0  -0.359256  -0.5748  0  2.268356  0
O  O48  1  0.14744542  0.38363135  0.98805765  1  0  -0.635587  0  2.089067  0  0  -0.582759  0  2.318116  0  0  -0.608433  0  2.312109  0  0  -0.334344  -0.564677  0  2.322053  0
O  O49  1  0.64744852  0.11638186  0.01194855  1  0  -0.635711  0  2.088621  0  0  -0.582826  0  2.317554  0  0  -0.608513  0  2.311583  0  0  -0.334444  -0.56475  0  2.321492  0
O  O50  1  0.85255154  0.61636734  0.01194321  1  0  -0.635666  0  2.089001  0  0  -0.582773  0  2.317938  0  0  -0.608468  0  2.31198  0  0  -0.334332  -0.564671  0  2.321871  0
O  O51  1  0.35255493  0.88364664  0.98806511  1  0  -0.635638  0  2.089261  0  0  -0.582935  0  2.318542  0  0  -0.608569  0  2.312442  0  0  -0.334416  -0.56482  0  2.322471  0
O  O52  1  0.28754135  0.11454751  0.83268252  1  0  -0.915259  0  1.885948  0  0  -0.874674  0  2.074764  0  0  -0.89385  0  2.041236  0  0  -0.659127  -0.860555  0  2.098281  0
O  O53  1  0.78754229  0.38545026  0.16731627  1  0  -0.915314  0  1.885883  0  0  -0.874751  0  2.074616  0  0  -0.893881  0  2.041169  0  0  -0.659149  -0.860633  0  2.09812  0
O  O54  1  0.71246427  0.88545007  0.16731883  1  0  -0.915326  0  1.885922  0  0  -0.874778  0  2.074635  0  0  -0.893916  0  2.041175  0  0  -0.659183  -0.860632  0  2.098165  0
O  O55  1  0.21246442  0.61454736  0.83268063  1  0  -0.915345  0  1.885862  0  0  -0.87483  0  2.074566  0  0  -0.893968  0  2.041117  0  0  -0.659132  -0.8607  0  2.098081  0
O  O56  1  0.19243758  0.31091258  0.71640047  1  0  -0.889479  0  1.917292  0  0  -0.847571  0  2.104269  0  0  -0.867914  0  2.075987  0  0  -0.599622  -0.832752  0  2.124356  0
O  O57  1  0.69243863  0.18908523  0.28359028  1  0  -0.889635  0  1.917259  0  0  -0.847618  0  2.10436  0  0  -0.867959  0  2.076076  0  0  -0.599583  -0.8328  0  2.124439  0
O  O58  1  0.80756588  0.68907845  0.28358777  1  0  -0.88958  0  1.917341  0  0  -0.847534  0  2.104465  0  0  -0.867877  0  2.076186  0  0  -0.599541  -0.832691  0  2.124552  0
O  O59  1  0.30756483  0.81091573  0.71640164  1  0  -0.88947  0  1.917277  0  0  -0.847597  0  2.104183  0  0  -0.867938  0  2.075905  0  0  -0.599632  -0.832767  0  2.124271  0
O  O60  1  0.93034901  0.17044259  0.61073802  1  0  -0.625559  0  2.026736  0  0  -0.590796  0  2.259642  0  0  -0.612712  0  2.248698  0  0  -0.367017  -0.575121  0  2.26703  0
O  O61  1  0.43036188  0.32956627  0.38925783  1  0  -0.625608  0  2.026007  0  0  -0.590843  0  2.258904  0  0  -0.612764  0  2.247965  0  0  -0.367039  -0.575159  0  2.26629  0
O  O62  1  0.06962847  0.82955837  0.38925479  1  0  -0.625724  0  2.026238  0  0  -0.590978  0  2.259141  0  0  -0.612897  0  2.248199  0  0  -0.367068  -0.575278  0  2.266534  0
O  O63  1  0.56964916  0.67044568  0.61074793  1  0  -0.625741  0  2.026924  0  0  -0.591008  0  2.259844  0  0  -0.612919  0  2.248897  0  0  -0.367113  -0.575308  0  2.267237  0
O  O64  1  0.89008743  0.04484146  0.39394442  1  0  -0.666855  0  2.054876  0  0  -0.627316  0  2.293222  0  0  -0.650888  0  2.282094  0  0  -0.378981  -0.610113  0  2.300491  0
O  O65  1  0.39009387  0.45517402  0.60605475  1  0  -0.666941  0  2.055431  0  0  -0.627447  0  2.293787  0  0  -0.65101  0  2.282651  0  0  -0.379082  -0.61024  0  2.301059  0
O  O66  1  0.10989654  0.95517057  0.60604803  1  0  -0.667077  0  2.055475  0  0  -0.627555  0  2.293853  0  0  -0.651125  0  2.282715  0  0  -0.379107  -0.610371  0  2.301128  0
O  O67  1  0.60991608  0.54484452  0.39395790  1  0  -0.66713  0  2.054806  0  0  -0.627572  0  2.29316  0  0  -0.651144  0  2.282026  0  0  -0.379091  -0.610385  0  2.300427  0
O  O68  1  0.06086221  0.92642552  0.83790328  1  0  -0.639373  0  2.10198  0  0  -0.591931  0  2.334528  0  0  -0.61622  0  2.324359  0  0  -0.327989  -0.574388  0  2.341218  0
O  O69  1  0.56086864  0.57356412  0.16210212  1  0  -0.639319  0  2.101382  0  0  -0.591897  0  2.333962  0  0  -0.616189  0  2.323797  0  0  -0.327992  -0.574356  0  2.340633  0
O  O70  1  0.93912825  0.07355437  0.16209598  1  0  -0.639262  0  2.101594  0  0  -0.591896  0  2.334217  0  0  -0.616186  0  2.324056  0  0  -0.328018  -0.57434  0  2.340879  0
O  O71  1  0.43913481  0.42643784  0.83790707  1  0  -0.639353  0  2.102023  0  0  -0.591905  0  2.334645  0  0  -0.616186  0  2.324475  0  0  -0.328028  -0.57436  0  2.341318  0
O  O72  1  0.79876617  0.06036401  0.78641359  1  0  -0.879089  0  1.833976  0  0  -0.843785  0  2.007472  0  0  -0.861885  0  1.976972  0  0  -0.627411  -0.8305  0  2.029076  0
O  O73  1  0.29876918  0.43963264  0.21358568  1  0  -0.87905  0  1.833975  0  0  -0.843732  0  2.007492  0  0  -0.86183  0  1.976998  0  0  -0.627419  -0.83045  0  2.029088  0
O  O74  1  0.20123403  0.93962474  0.21358360  1  0  -0.879144  0  1.833737  0  0  -0.843856  0  2.007245  0  0  -0.861959  0  1.976749  0  0  -0.627469  -0.830554  0  2.028862  0
O  O75  1  0.70123535  0.56036936  0.78641729  1  0  -0.879102  0  1.833812  0  0  -0.843826  0  2.007256  0  0  -0.861927  0  1.976759  0  0  -0.627398  -0.830522  0  2.028878  0
