# generated using pymatgen
data_ZnH10(C8N5)2
_symmetry_space_group_name_H-M   'P 1'
_cell_length_a   7.56475890
_cell_length_b   10.89691447
_cell_length_c   10.89693543
_cell_angle_alpha   60.58455867
_cell_angle_beta   80.40240547
_cell_angle_gamma   80.40250492
_symmetry_Int_Tables_number   1
_chemical_formula_structural   ZnH10(C8N5)2
_chemical_formula_sum   'Zn2 H20 C32 N20'
_cell_volume   767.73423923
_cell_formula_units_Z   2
loop_
 _symmetry_equiv_pos_site_id
 _symmetry_equiv_pos_as_xyz
  1  'x, y, z'
loop_
 _atom_site_type_symbol
 _atom_site_label
 _atom_site_symmetry_multiplicity
 _atom_site_fract_x
 _atom_site_fract_y
 _atom_site_fract_z
 _atom_site_occupancy
 _atom_site_pbe_bader_spin_density
 _atom_site_pbe_cm5_charge
 _atom_site_pbe_ddec_charge
 _atom_site_pbe_ddec_spin_density
 _atom_site_pbe_ddec_sum_bond_order
 _atom_site_pbe_magmom
Zn  Zn0  1  0.24999924  0.40542872  0.59457185  1  0  0.707105  0.517106  0  2.533149  0
Zn  Zn1  1  0.75000117  0.59457146  0.40542807  1  0  0.707099  0.517101  0  2.533172  0
H  H2  1  0.67412301  0.57535994  0.94062504  1  0  0.110239  0.117816  0  1.001085  0
H  H3  1  0.82587642  0.05937502  0.42464034  1  0  0.110241  0.117823  0  1.001083  0
H  H4  1  0.32587607  0.42464024  0.05937595  1  0  0.110224  0.117784  0  1.001137  0
H  H5  1  0.17412400  0.94062515  0.57536049  1  0  0.110259  0.117847  0  1.001088  0
H  H6  1  0.52812040  0.19229356  0.51176739  1  0  0.115116  0.081395  0  1.026404  0
H  H7  1  0.97187561  0.48823094  0.80770661  1  0  0.115102  0.08137  0  1.026424  0
H  H8  1  0.47187503  0.80770345  0.48823191  1  0  0.115112  0.081373  0  1.026403  0
H  H9  1  0.02812896  0.51176817  0.19229151  1  0  0.115122  0.081393  0  1.02641  0
H  H10  1  0.62441872  0.92992225  0.62928986  1  0  0.107265  0.116561  0  1.009011  0
H  H11  1  0.87557726  0.37071050  0.07007735  1  0  0.107258  0.116554  0  1.009006  0
H  H12  1  0.37557914  0.07007687  0.37070996  1  0  0.107277  0.116602  0  1.009006  0
H  H13  1  0.12442034  0.62929074  0.92991962  1  0  0.107251  0.116549  0  1.009027  0
H  H14  1  0.52085392  0.78176898  0.88539820  1  0  0.105468  0.106162  0  1.029385  0
H  H15  1  0.97914706  0.11460233  0.21823155  1  0  0.10546  0.106146  0  1.029379  0
H  H16  1  0.47914784  0.21823119  0.11460340  1  0  0.105465  0.106167  0  1.029386  0
H  H17  1  0.02085054  0.88539891  0.78176726  1  0  0.105474  0.106142  0  1.029402  0
H  H18  1  0.35103039  0.77003955  0.10896844  1  0  0.104239  0.113649  0  1.021298  0
H  H19  1  0.14897074  0.89103122  0.22996049  1  0  0.104237  0.113662  0  1.02127  0
H  H20  1  0.64897002  0.22996062  0.89103148  1  0  0.104238  0.113655  0  1.021273  0
H  H21  1  0.85103102  0.10896895  0.77004019  1  0  0.104244  0.113674  0  1.021276  0
C  C22  1  0.54959208  0.51507794  0.81629361  1  0  0.195215  0.251617  0  4.142962  0
C  C23  1  0.95040710  0.18370647  0.48492269  1  0  0.195231  0.251662  0  4.142873  0
C  C24  1  0.45040699  0.48492224  0.18370647  1  0  0.195232  0.25164  0  4.142922  0
C  C25  1  0.04959197  0.81629371  0.51507922  1  0  0.195233  0.251657  0  4.14292  0
C  C26  1  0.56024555  0.52476524  0.94205747  1  0  -0.083374  -0.161047  0  4.005148  0
C  C27  1  0.93975359  0.05794212  0.47523567  1  0  -0.083408  -0.161106  0  4.005127  0
C  C28  1  0.43975365  0.47523388  0.05794311  1  0  -0.083366  -0.16103  0  4.005203  0
C  C29  1  0.06024696  0.94205699  0.52476659  1  0  -0.083378  -0.161067  0  4.005202  0
C  C30  1  0.48206178  0.12311386  0.62185711  1  0  0.059073  0.107243  0  3.938825  0
C  C31  1  0.01793389  0.37814374  0.87688478  1  0  0.059071  0.107266  0  3.938765  0
C  C32  1  0.51793474  0.87688526  0.37814286  1  0  0.059059  0.107264  0  3.938758  0
C  C33  1  0.98206920  0.62185644  0.12311391  1  0  0.059075  0.107279  0  3.938824  0
C  C34  1  0.53638256  0.97684930  0.68839786  1  0  -0.085041  -0.130425  0  3.964826  0
C  C35  1  0.96361517  0.31160064  0.02315028  1  0  -0.085003  -0.130382  0  3.964747  0
C  C36  1  0.46361409  0.02314876  0.31160262  1  0  -0.085033  -0.130475  0  3.964793  0
C  C37  1  0.03638658  0.68839953  0.97684764  1  0  -0.08504  -0.130423  0  3.964786  0
C  C38  1  0.47910555  0.89483237  0.82968043  1  0  -0.062331  -0.065055  0  3.915571  0
C  C39  1  0.02089532  0.17031892  0.10516792  1  0  -0.062347  -0.065073  0  3.915574  0
C  C40  1  0.52089513  0.10516569  0.17032049  1  0  -0.062315  -0.065029  0  3.915623  0
C  C41  1  0.97910790  0.82968019  0.89483219  1  0  -0.062332  -0.065036  0  3.915618  0
C  C42  1  0.36576144  0.95848149  0.90379251  1  0  -0.002007  0.04172  0  4.0116  0
C  C43  1  0.13423795  0.09620669  0.04151974  1  0  -0.002011  0.04172  0  4.011585  0
C  C44  1  0.63423629  0.04151869  0.09620680  1  0  -0.002034  0.041697  0  4.011634  0
C  C45  1  0.86576514  0.90379349  0.95848079  1  0  -0.002041  0.041666  0  4.011654  0
C  C46  1  0.30504587  0.88216799  0.05114925  1  0  -0.08446  -0.113384  0  3.963811  0
C  C47  1  0.19495560  0.94885205  0.11783305  1  0  -0.084433  -0.113394  0  3.96384  0
C  C48  1  0.69495320  0.11783219  0.94885174  1  0  -0.084436  -0.113386  0  3.963839  0
C  C49  1  0.80504616  0.05114812  0.88216947  1  0  -0.084476  -0.113425  0  3.96387  0
C  C50  1  0.31192448  0.10553446  0.82586161  1  0  0.122105  0.125312  0  3.957298  0
C  C51  1  0.18807403  0.17413912  0.89446513  1  0  0.122095  0.125307  0  3.957355  0
C  C52  1  0.68807619  0.89446360  0.17413932  1  0  0.122095  0.125313  0  3.957325  0
C  C53  1  0.81192772  0.82586105  0.10553555  1  0  0.122136  0.125397  0  3.957294  0
N  N54  1  0.42587502  0.44787890  0.80191722  1  0  -0.218052  -0.270635  0  3.229457  0
N  N55  1  0.07412525  0.19808241  0.55212216  1  0  -0.218044  -0.270668  0  3.229462  0
N  N56  1  0.57412526  0.55212234  0.19808220  1  0  -0.21804  -0.270665  0  3.229447  0
N  N57  1  0.92587516  0.80191777  0.44787960  1  0  -0.218066  -0.270656  0  3.229497  0
N  N58  1  0.46371823  0.46491816  0.67150663  1  0  -0.097883  -0.035946  0  3.428867  0
N  N59  1  0.03628179  0.32849368  0.53508265  1  0  -0.097857  -0.035869  0  3.428787  0
N  N60  1  0.53628205  0.53508307  0.32849278  1  0  -0.097874  -0.035881  0  3.428824  0
N  N61  1  0.96371715  0.67150756  0.46491693  1  0  -0.097888  -0.035946  0  3.428897  0
N  N62  1  0.66377402  0.57199052  0.69731204  1  0  -0.219426  -0.271636  0  3.178234  0
N  N63  1  0.83622530  0.30268896  0.42801009  1  0  -0.219443  -0.271632  0  3.178251  0
N  N64  1  0.33622505  0.42800966  0.30268895  1  0  -0.21947  -0.271666  0  3.178293  0
N  N65  1  0.16377377  0.69731122  0.57199090  1  0  -0.219426  -0.271634  0  3.178227  0
N  N66  1  0.60667012  0.53920161  0.60872410  1  0  -0.109195  -0.036585  0  3.491944  0
N  N67  1  0.89332875  0.39127626  0.46079857  1  0  -0.109206  -0.036646  0  3.491997  0
N  N68  1  0.39332761  0.46079857  0.39127613  1  0  -0.109177  -0.036613  0  3.491962  0
N  N69  1  0.10667166  0.60872392  0.53920135  1  0  -0.109174  -0.036578  0  3.491928  0
N  N70  1  0.37280974  0.18514618  0.68864737  1  0  -0.310525  -0.235329  0  3.547376  0
N  N71  1  0.12718756  0.31135161  0.81485338  1  0  -0.310507  -0.23532  0  3.547411  0
N  N72  1  0.62718691  0.81485189  0.31135218  1  0  -0.310499  -0.23531  0  3.547384  0
N  N73  1  0.87281701  0.68864751  0.18514658  1  0  -0.310497  -0.235339  0  3.54741  0
