# generated using pymatgen
data_CdFeH24C30S2(N2O3)2
_symmetry_space_group_name_H-M   'P 1'
_cell_length_a   11.73157002
_cell_length_b   11.74741159
_cell_length_c   13.27266434
_cell_angle_alpha   89.99990145
_cell_angle_beta   89.99995286
_cell_angle_gamma   89.99870717
_symmetry_Int_Tables_number   1
_chemical_formula_structural   CdFeH24C30S2(N2O3)2
_chemical_formula_sum   'Cd2 Fe2 H48 C60 S4 N8 O12'
_cell_volume   1829.17995438
_cell_formula_units_Z   2
loop_
 _symmetry_equiv_pos_site_id
 _symmetry_equiv_pos_as_xyz
  1  'x, y, z'
loop_
 _atom_site_type_symbol
 _atom_site_label
 _atom_site_symmetry_multiplicity
 _atom_site_fract_x
 _atom_site_fract_y
 _atom_site_fract_z
 _atom_site_occupancy
 _atom_site_pbe_bader_charge
 _atom_site_pbe_bader_spin_density
 _atom_site_pbe_cm5_charge
 _atom_site_pbe_ddec_charge
 _atom_site_pbe_ddec_spin_density
 _atom_site_pbe_ddec_sum_bond_order
 _atom_site_pbe_magmom
Cd  Cd0  1  0.70959534  0.99999613  0.00000049  1  1.259206  0  0.798747  0.790854  0  2.360571  0
Cd  Cd1  1  0.29040367  0.49999916  0.50000010  1  1.25929  0  0.798728  0.790846  0  2.360695  0
Fe  Fe2  1  0.78865124  0.00000341  0.50000332  1  0.742617  0  0.539049  0.234101  0  4.027868  0
Fe  Fe3  1  0.21135395  0.49999713  0.00000180  1  0.742711  0  0.53906  0.234151  0  4.027905  0
H  H4  1  0.59089608  0.89695478  0.42397577  1  0.06167  0  0.108903  0.130061  0  1.004675  0
H  H5  1  0.59089816  0.10306060  0.57604306  1  0.061789  0  0.108978  0.130176  0  1.004626  0
H  H6  1  0.40910338  0.60306097  0.92396233  1  0.061688  0  0.108977  0.130119  0  1.004633  0
H  H7  1  0.40911463  0.39694064  0.07603477  1  0.061567  0  0.108951  0.130133  0  1.004721  0
H  H8  1  0.72252507  0.78071650  0.55701993  1  0.120177  0  0.109787  0.133246  0  0.993106  0
H  H9  1  0.72252379  0.21929251  0.44299352  1  0.120445  0  0.10978  0.133239  0  0.993074  0
H  H10  1  0.27747388  0.71927953  0.05701428  1  0.120231  0  0.109787  0.133192  0  0.993188  0
H  H11  1  0.27748695  0.28072078  0.94298669  1  0.12031  0  0.109777  0.133191  0  0.993213  0
H  H12  1  0.94329308  0.81728127  0.50915528  1  0.060416  0  0.104579  0.122007  0  1.003811  0
H  H13  1  0.94329515  0.18270916  0.49084671  1  0.060426  0  0.104576  0.121993  0  1.0039  0
H  H14  1  0.05670421  0.68270209  0.00916642  1  0.06034  0  0.104536  0.121918  0  1.003894  0
H  H15  1  0.05671555  0.31729043  0.99083923  1  0.060528  0  0.104583  0.12199  0  1.003809  0
H  H16  1  0.94871107  0.96285301  0.34808578  1  0.060525  0  0.106813  0.127368  0  1.002505  0
H  H17  1  0.94871543  0.03713474  0.65191546  1  0.060446  0  0.106844  0.127459  0  1.00243  0
H  H18  1  0.05128249  0.53713821  0.84809380  1  0.060509  0  0.106814  0.127396  0  1.002401  0
H  H19  1  0.05129047  0.46285443  0.15191562  1  0.060515  0  0.106838  0.127455  0  1.002433  0
H  H20  1  0.85322267  0.21149222  0.09001311  1  0.158831  0  0.117383  0.096739  0  1.010853  0
H  H21  1  0.85323366  0.78849853  0.90999347  1  0.158593  0  0.117414  0.096816  0  1.010791  0
H  H22  1  0.14677221  0.28850389  0.59000636  1  0.158962  0  0.117411  0.096782  0  1.010847  0
H  H23  1  0.14677348  0.71149682  0.41000224  1  0.158941  0  0.117436  0.096846  0  1.010729  0
H  H24  1  0.85931663  0.42465486  0.08538765  1  0.077525  0  0.109725  0.117974  0  1.001958  0
H  H25  1  0.85932136  0.57533661  0.91459859  1  0.077304  0  0.109743  0.117909  0  1.00205  0
H  H26  1  0.14068166  0.07534040  0.58539102  1  0.077428  0  0.109691  0.117914  0  1.002033  0
H  H27  1  0.14068322  0.92465958  0.41460854  1  0.077035  0  0.109693  0.11791  0  1.002035  0
H  H28  1  0.54595505  0.41491842  0.91229936  1  0.146562  0  0.114219  0.138474  0  1.009924  0
H  H29  1  0.54594840  0.58507329  0.08767203  1  0.146933  0  0.114206  0.138432  0  1.009969  0
H  H30  1  0.45405487  0.08507876  0.41230960  1  0.146814  0  0.114207  0.138461  0  1.009956  0
H  H31  1  0.45405904  0.91491842  0.58768446  1  0.146845  0  0.114248  0.138519  0  1.009888  0
H  H32  1  0.56010047  0.20397902  0.91595063  1  0.118046  0  0.122124  0.095948  0  0.983372  0
H  H33  1  0.56010099  0.79601237  0.08404637  1  0.118204  0  0.122135  0.095917  0  0.98348  0
H  H34  1  0.43989666  0.29601645  0.41595152  1  0.118114  0  0.122096  0.095939  0  0.983405  0
H  H35  1  0.43990305  0.70398190  0.58405611  1  0.117966  0  0.122161  0.096088  0  0.983378  0
H  H36  1  0.50277161  0.06699023  0.14507539  1  0.160446  0  0.116925  0.098593  0  1.030211  0
H  H37  1  0.50276660  0.93302033  0.85491035  1  0.160381  0  0.116864  0.098479  0  1.030201  0
H  H38  1  0.49723089  0.43301172  0.64507796  1  0.160439  0  0.116924  0.098571  0  1.030219  0
H  H39  1  0.49722440  0.56698875  0.35491758  1  0.160353  0  0.116881  0.098549  0  1.03022  0
H  H40  1  0.28953154  0.07240829  0.14984165  1  0.099675  0  0.11548  0.125179  0  0.979536  0
H  H41  1  0.28952155  0.92759600  0.85015856  1  0.099484  0  0.115402  0.125089  0  0.97973  0
H  H42  1  0.71047180  0.42759365  0.64983503  1  0.099652  0  0.115496  0.1252  0  0.97972  0
H  H43  1  0.71046519  0.57241649  0.35015960  1  0.099582  0  0.115472  0.125134  0  0.979674  0
H  H44  1  0.12991146  0.07517002  0.85125927  1  0.102318  0  0.116224  0.125922  0  0.983658  0
H  H45  1  0.12991411  0.92483021  0.14874105  1  0.102276  0  0.116219  0.125954  0  0.983649  0
H  H46  1  0.87008233  0.42484345  0.35125438  1  0.102486  0  0.116211  0.125959  0  0.983526  0
H  H47  1  0.87008049  0.57516735  0.64873636  1  0.102229  0  0.116224  0.125912  0  0.983603  0
H  H48  1  0.91538950  0.06975402  0.85711238  1  0.096984  0  0.120629  0.096686  0  1.000988  0
H  H49  1  0.91539290  0.93023788  0.14289039  1  0.097002  0  0.120622  0.096648  0  1.000944  0
H  H50  1  0.08460427  0.43025774  0.35710503  1  0.09723  0  0.120613  0.09659  0  1.001042  0
H  H51  1  0.08460001  0.56975798  0.64289005  1  0.097064  0  0.120636  0.096663  0  1.00097  0
C  C52  1  0.75784158  0.95352969  0.35750295  1  -0.225472  0  -0.092562  -0.136796  0  4.007453  0
C  C53  1  0.75784829  0.04647598  0.64250746  1  -0.253915  0  -0.092502  -0.136476  0  4.00701  0
C  C54  1  0.24215538  0.54647172  0.85750103  1  -0.225789  0  -0.092531  -0.136546  0  4.007179  0
C  C55  1  0.24216103  0.45352598  0.14250223  1  -0.253813  0  -0.092525  -0.136467  0  4.007158  0
C  C56  1  0.68327677  0.89270940  0.42444814  1  -0.113058  0  -0.147962  -0.142629  0  3.953803  0
C  C57  1  0.68328046  0.10730050  0.57556535  1  -0.084757  0  -0.148048  -0.14298  0  3.953909  0
C  C58  1  0.31672183  0.60729613  0.92444305  1  -0.11296  0  -0.148033  -0.142843  0  3.953844  0
C  C59  1  0.31673148  0.39270500  0.07556090  1  -0.085074  0  -0.147932  -0.1428  0  3.954047  0
C  C60  1  0.75310954  0.82966403  0.49305006  1  -0.090669  0  -0.149242  -0.125953  0  3.974196  0
C  C61  1  0.75311272  0.17034515  0.50696187  1  -0.091217  0  -0.149198  -0.125825  0  3.973851  0
C  C62  1  0.24688645  0.67033797  0.99304568  1  -0.090445  0  -0.149231  -0.125876  0  3.974143  0
C  C63  1  0.24689673  0.32965962  0.00695908  1  -0.090958  0  -0.149269  -0.125875  0  3.974217  0
C  C64  1  0.87025476  0.85040943  0.46820646  1  -0.142841  0  -0.154313  -0.136523  0  3.992849  0
C  C65  1  0.87025924  0.14958945  0.53179785  1  -0.142727  0  -0.154269  -0.136405  0  3.992852  0
C  C66  1  0.12974125  0.64958496  0.96821049  1  -0.143068  0  -0.154239  -0.136311  0  3.992817  0
C  C67  1  0.12975018  0.35041017  0.03179662  1  -0.142683  0  -0.154297  -0.136428  0  3.992842  0
C  C68  1  0.87377094  0.92694037  0.38408011  1  -0.14737  0  -0.156774  -0.16207  0  3.987995  0
C  C69  1  0.87377707  0.07305673  0.61592269  1  -0.147674  0  -0.15695  -0.16247  0  3.988201  0
C  C70  1  0.12622685  0.57305673  0.88408350  1  -0.147626  0  -0.156813  -0.162287  0  3.988062  0
C  C71  1  0.12623227  0.42694188  0.11592134  1  -0.147434  0  -0.156931  -0.162493  0  3.98827  0
C  C72  1  0.78904914  0.26017349  0.04923756  1  0.479388  0  0.049436  0.100067  0  3.963615  0
C  C73  1  0.78905352  0.73981785  0.95076078  1  0.479615  0  0.049441  0.100004  0  3.963774  0
C  C74  1  0.21095004  0.23981844  0.54923536  1  0.47926  0  0.049421  0.099999  0  3.963704  0
C  C75  1  0.21095273  0.76018167  0.45076867  1  0.479275  0  0.049427  0.099968  0  3.963602  0
C  C76  1  0.79079949  0.37841739  0.04794910  1  -0.061851  0  -0.082657  -0.178838  0  3.948519  0
C  C77  1  0.79079972  0.62157476  0.95203492  1  -0.061532  0  -0.082653  -0.178724  0  3.948511  0
C  C78  1  0.20920055  0.12157454  0.54795161  1  -0.061272  0  -0.082699  -0.178809  0  3.948504  0
C  C79  1  0.20920141  0.87842476  0.45204941  1  -0.060849  0  -0.082672  -0.178743  0  3.94843  0
C  C80  1  0.70203664  0.43716329  0.00035277  1  0.059185  0  0.014317  0.106229  0  4.00464  0
C  C81  1  0.70203560  0.56282916  0.99962529  1  -0.06882  0  0.014285  0.10611  0  4.004772  0
C  C82  1  0.29796855  0.06283213  0.50036057  1  0.058433  0  0.014328  0.106164  0  4.004753  0
C  C83  1  0.29797060  0.93716772  0.49963586  1  -0.069054  0  0.014266  0.106167  0  4.004708  0
C  C84  1  0.61597085  0.37429417  0.95284887  1  0.012712  0  -0.077331  -0.175404  0  3.909209  0
C  C85  1  0.61596758  0.62570022  0.04713000  1  0.012307  0  -0.077305  -0.175334  0  3.909458  0
C  C86  1  0.38403648  0.12570208  0.45285760  1  0.0124  0  -0.077267  -0.175342  0  3.909565  0
C  C87  1  0.38403564  0.87429583  0.54714254  1  0.012396  0  -0.077289  -0.175386  0  3.909302  0
C  C88  1  0.62307694  0.25611401  0.95490959  1  0.431486  0  0.055296  0.114011  0  3.93092  0
C  C89  1  0.62307612  0.74387851  0.04508058  1  0.431378  0  0.055295  0.114058  0  3.930984  0
C  C90  1  0.37692868  0.24387883  0.45491362  1  0.431347  0  0.055261  0.113972  0  3.93121  0
C  C91  1  0.37692881  0.75611669  0.54509180  1  0.43147  0  0.05529  0.11394  0  3.930929  0
C  C92  1  0.45194586  0.03775634  0.08102725  1  0.452515  0  0.051268  0.097299  0  3.93375  0
C  C93  1  0.45194269  0.96225281  0.91896003  1  0.45247  0  0.051272  0.097438  0  3.933694  0
C  C94  1  0.54805243  0.46224659  0.58102898  1  0.452509  0  0.051278  0.097427  0  3.933828  0
C  C95  1  0.54804910  0.53775359  0.41896501  1  0.452339  0  0.051297  0.097501  0  3.933779  0
C  C96  1  0.33352292  0.96103004  0.91614075  1  -0.007709  0  -0.074524  -0.162605  0  3.929635  0
C  C97  1  0.33352692  0.03897752  0.08385340  1  -0.007732  0  -0.074598  -0.162645  0  3.929426  0
C  C98  1  0.66646717  0.53897891  0.41614036  1  -0.007881  0  -0.074613  -0.162686  0  3.929638  0
C  C99  1  0.66647308  0.46102626  0.58385279  1  -0.007878  0  -0.074644  -0.162716  0  3.929618  0
C  C100  1  0.27236035  0.00000278  0.99999957  1  -0.072647  0  0.013874  0.099232  0  4.002052  0
C  C101  1  0.72763329  0.50000700  0.49999618  1  -0.072213  0  0.01392  0.09916  0  4.001998  0
C  C102  1  0.14686819  0.00000164  0.99999962  1  0.042558  0  0.019611  0.113329  0  3.984169  0
C  C103  1  0.85312545  0.50000815  0.49999613  1  0.042201  0  0.019619  0.113534  0  3.983947  0
C  C104  1  0.08565346  0.04056198  0.91668250  1  0.035246  0  -0.074673  -0.167664  0  3.926398  0
C  C105  1  0.08565625  0.95943840  0.08331860  1  0.035348  0  -0.074644  -0.167671  0  3.926222  0
C  C106  1  0.91433941  0.45944967  0.41667828  1  0.035419  0  -0.074624  -0.167681  0  3.926095  0
C  C107  1  0.91434097  0.54056439  0.58331394  1  0.035331  0  -0.074677  -0.167692  0  3.925951  0
C  C108  1  0.96727545  0.03927687  0.91977049  1  0.428161  0  0.052855  0.099698  0  3.951375  0
C  C109  1  0.96727737  0.96071982  0.08022847  1  0.428121  0  0.052805  0.09964  0  3.951387  0
C  C110  1  0.03271911  0.46073221  0.41976765  1  0.42818  0  0.052865  0.099718  0  3.951363  0
C  C111  1  0.03271815  0.53928127  0.58022897  1  0.428105  0  0.052819  0.099615  0  3.951152  0
S  S112  1  0.71632462  0.04663855  0.26023608  1  3.205327  0  0.492387  1.195294  0  6.234006  0
S  S113  1  0.71634653  0.95335613  0.73977136  1  3.206623  0  0.492562  1.1956  0  6.233786  0
S  S114  1  0.28366840  0.45335467  0.76023877  1  3.206075  0  0.492547  1.195478  0  6.233875  0
S  S115  1  0.28365907  0.54664380  0.23976671  1  3.206327  0  0.492485  1.19524  0  6.234361  0
N  N116  1  0.70666019  0.20013145  0.00329207  1  -1.245224  0  -0.327512  -0.234035  0  3.502937  0
N  N117  1  0.70667169  0.79986175  0.99671386  1  -1.244899  0  -0.327502  -0.234042  0  3.503036  0
N  N118  1  0.29333733  0.29986057  0.50328671  1  -1.244918  0  -0.327425  -0.233955  0  3.503068  0
N  N119  1  0.29333707  0.70013683  0.49671952  1  -1.244884  0  -0.327489  -0.234098  0  3.503086  0
N  N120  1  0.50958691  0.00000521  0.99999271  1  -1.263393  0  -0.330014  -0.246502  0  3.53294  0
N  N121  1  0.49040759  0.49999776  0.49999702  1  -1.263493  0  -0.33006  -0.246703  0  3.533246  0
N  N122  1  0.90943304  0.99999644  0.00000041  1  -1.21984  0  -0.327906  -0.239924  0  3.520303  0
N  N123  1  0.09056341  0.50000652  0.49999716  1  -1.21998  0  -0.327938  -0.239896  0  3.520043  0
O  O124  1  0.70379163  0.96740162  0.17262147  1  -1.325204  0  -0.374213  -0.641219  0  2.298954  0
O  O125  1  0.70378910  0.03259165  0.82738371  1  -1.325286  0  -0.374223  -0.641288  0  2.298896  0
O  O126  1  0.29621829  0.53258398  0.67262028  1  -1.325521  0  -0.374279  -0.641313  0  2.298813  0
O  O127  1  0.29622601  0.46741506  0.32738444  1  -1.325056  0  -0.374274  -0.641277  0  2.299047  0
O  O128  1  0.60710080  0.09705767  0.28954368  1  -1.342533  0  -0.358553  -0.611845  0  2.127618  0
O  O129  1  0.60713411  0.90291053  0.71046760  1  -1.343132  0  -0.358775  -0.612061  0  2.127506  0
O  O130  1  0.39288111  0.40291591  0.78955316  1  -1.342403  0  -0.358631  -0.611951  0  2.127667  0
O  O131  1  0.39286469  0.59710138  0.21045752  1  -1.342915  0  -0.358672  -0.611912  0  2.127702  0
O  O132  1  0.81045604  0.12683560  0.24694551  1  -1.345474  0  -0.364611  -0.620638  0  2.126374  0
O  O133  1  0.81049936  0.87318250  0.75306186  1  -1.345747  0  -0.364551  -0.620702  0  2.126868  0
O  O134  1  0.18951653  0.37317893  0.74695141  1  -1.345757  0  -0.364666  -0.620696  0  2.126516  0
O  O135  1  0.18949429  0.62680379  0.25305791  1  -1.345971  0  -0.364564  -0.620537  0  2.126838  0
