# generated using pymatgen
data_Zn3H18C26S2(NO8)2
_symmetry_space_group_name_H-M   'P 1'
_cell_length_a   8.50062075
_cell_length_b   13.06809882
_cell_length_c   15.00102439
_cell_angle_alpha   85.11126648
_cell_angle_beta   73.51256785
_cell_angle_gamma   70.98982898
_symmetry_Int_Tables_number   1
_chemical_formula_structural   Zn3H18C26S2(NO8)2
_chemical_formula_sum   'Zn6 H36 C52 S4 N4 O32'
_cell_volume   1510.70219705
_cell_formula_units_Z   2
loop_
 _symmetry_equiv_pos_site_id
 _symmetry_equiv_pos_as_xyz
  1  'x, y, z'
loop_
 _atom_site_type_symbol
 _atom_site_label
 _atom_site_symmetry_multiplicity
 _atom_site_fract_x
 _atom_site_fract_y
 _atom_site_fract_z
 _atom_site_occupancy
 _atom_site_pbe_bader_charge
 _atom_site_pbe_bader_spin_density
 _atom_site_pbe_cm5_charge
 _atom_site_pbe_ddec_charge
 _atom_site_pbe_ddec_spin_density
 _atom_site_pbe_ddec_sum_bond_order
 _atom_site_pbe_magmom
Zn  Zn0  1  0.87510034  0.78679949  0.93577949  1  1.291328  0  0.714399  0.884408  0  2.238703  0
Zn  Zn1  1  0.59777786  0.71320073  0.56432248  1  1.293297  0  0.714894  0.885531  0  2.237841  0
Zn  Zn2  1  0.12489505  0.21319871  0.06421922  1  1.291285  0  0.714393  0.884453  0  2.238666  0
Zn  Zn3  1  0.40221921  0.28680159  0.43568093  1  1.293216  0  0.71489  0.885542  0  2.237699  0
Zn  Zn4  1  0.00000126  0.99999951  0.99999894  1  1.414815  0  0.694227  1.04855  0  2.159225  0
Zn  Zn5  1  0.99999947  0.50000022  0.50000093  1  1.41186  0  0.693957  1.047418  0  2.160881  0
H  H6  1  0.70184453  0.09546483  0.72728454  1  0.105859  0  0.113193  0.124494  0  0.973334  0
H  H7  1  0.78856307  0.24044333  0.62367506  1  0.113057  0  0.10929  0.114628  0  0.992601  0
H  H8  1  0.28719100  0.12555474  0.67667166  1  0.135725  0  0.110559  0.122401  0  1.016787  0
H  H9  1  0.88034621  0.59659304  0.03618229  1  0.096549  0  0.120539  0.091505  0  1.020285  0
H  H10  1  0.73303239  0.45753896  0.06879888  1  0.12255  0  0.112696  0.1293  0  1.030418  0
H  H11  1  0.40040831  0.64497174  0.90025332  1  0.151486  0  0.114431  0.12914  0  1.025116  0
H  H12  1  0.56535016  0.77391444  0.87332399  1  0.151567  0  0.128458  0.107202  0  0.978132  0
H  H13  1  0.18091109  0.74573537  0.83035018  1  0.659323  0  0.302566  0.412556  0  0.916125  0
H  H14  1  0.12530773  0.64059334  0.82014178  1  0.655447  0  0.296794  0.397775  0  0.938832  0
H  H15  1  0.52518891  0.40465589  0.77249760  1  0.107063  0  0.113057  0.124351  0  0.975144  0
H  H16  1  0.65303963  0.25977624  0.87627291  1  0.095567  0  0.109156  0.113992  0  0.990927  0
H  H17  1  0.08977754  0.37456687  0.82339397  1  0.134079  0  0.110503  0.12216  0  1.018753  0
H  H18  1  0.51322970  0.90338348  0.46434065  1  0.102573  0  0.120377  0.091198  0  1.021613  0
H  H19  1  0.25957034  0.04253998  0.43162226  1  0.157761  0  0.11285  0.129241  0  1.03132  0
H  H20  1  0.94546246  0.85493723  0.59952157  1  0.128625  0  0.115171  0.129819  0  1.025214  0
H  H21  1  0.21242533  0.72600739  0.62672969  1  0.150635  0  0.128481  0.107445  0  0.978931  0
H  H22  1  0.75720066  0.75414190  0.66961928  1  0.661518  0  0.302633  0.413355  0  0.915081  0
H  H23  1  0.58617964  0.85935541  0.67979869  1  0.65265  0  0.2972  0.398458  0  0.937887  0
H  H24  1  0.29815859  0.90452766  0.27271206  1  0.105647  0  0.113197  0.124512  0  0.973301  0
H  H25  1  0.21142660  0.75955648  0.37632378  1  0.113156  0  0.109302  0.114647  0  0.992672  0
H  H26  1  0.71280407  0.87445396  0.32332619  1  0.135699  0  0.110609  0.122474  0  1.016759  0
H  H27  1  0.11966803  0.40340658  0.96380454  1  0.096362  0  0.120491  0.091436  0  1.020324  0
H  H28  1  0.26699488  0.54245187  0.93119526  1  0.123035  0  0.112764  0.12928  0  1.030642  0
H  H29  1  0.59958249  0.35501612  0.09975637  1  0.151409  0  0.114421  0.129167  0  1.025006  0
H  H30  1  0.43462962  0.22607810  0.12667509  1  0.151512  0  0.128473  0.107256  0  0.978058  0
H  H31  1  0.81909129  0.25426610  0.16965043  1  0.659391  0  0.302575  0.412573  0  0.916105  0
H  H32  1  0.87469465  0.35940811  0.17985817  1  0.655418  0  0.296789  0.397746  0  0.938868  0
H  H33  1  0.47481633  0.59534472  0.22750062  1  0.106997  0  0.113036  0.124346  0  0.975094  0
H  H34  1  0.34695989  0.74022611  0.12373209  1  0.095661  0  0.109146  0.114007  0  0.990969  0
H  H35  1  0.91022443  0.62543549  0.17661196  1  0.133995  0  0.1105  0.122141  0  1.018794  0
H  H36  1  0.48676857  0.09661644  0.53566477  1  0.102525  0  0.120355  0.091157  0  1.021639  0
H  H37  1  0.74042998  0.95746071  0.56838075  1  0.157742  0  0.112851  0.129265  0  1.031291  0
H  H38  1  0.05453907  0.14506092  0.40047413  1  0.128601  0  0.115156  0.129776  0  1.025159  0
H  H39  1  0.78757209  0.27398913  0.37326549  1  0.150874  0  0.128531  0.107485  0  0.978846  0
H  H40  1  0.24280048  0.24585958  0.33038220  1  0.6615  0  0.302603  0.413258  0  0.915229  0
H  H41  1  0.41382438  0.14064773  0.32020550  1  0.652698  0  0.297204  0.398446  0  0.937894  0
C  C42  1  0.88247397  0.94767407  0.82235749  1  1.552479  0  0.212554  0.577289  0  4.169674  0
C  C43  1  0.94267669  0.03276288  0.76286014  1  0.010274  0  0.00081  -0.012399  0  3.931258  0
C  C44  1  0.82922198  0.10413632  0.71677640  1  -0.099946  0  -0.078163  -0.098617  0  3.944902  0
C  C45  1  0.87747140  0.18424292  0.65876379  1  0.038806  0  -0.075649  -0.079584  0  3.978224  0
C  C46  1  0.04247620  0.19273176  0.64423719  1  -0.028668  0  -0.01669  -0.03493  0  3.961487  0
C  C47  1  0.10091417  0.27610293  0.58083163  1  1.565517  0  0.215928  0.595518  0  4.17349  0
C  C48  1  0.15792476  0.12017511  0.68849597  1  0.00428  0  -0.07802  -0.10204  0  3.960716  0
C  C49  1  0.10974722  0.04099108  0.74728416  1  -0.168817  0  -0.01561  -0.11552  0  3.934966  0
C  C50  1  0.77410710  0.60274293  0.00695578  1  0.466623  0  0.047991  0.097398  0  3.920743  0
C  C51  1  0.68944599  0.52598472  0.02528489  1  -0.015979  0  -0.074567  -0.158954  0  3.920178  0
C  C52  1  0.54906231  0.53905922  0.98897670  1  0.034968  0  0.021166  0.104425  0  3.956564  0
C  C53  1  0.50548069  0.62939114  0.93239263  1  -0.014207  0  -0.066661  -0.145827  0  3.877343  0
C  C54  1  0.59715521  0.70287218  0.91640616  1  0.457163  0  0.064675  0.123297  0  3.892016  0
C  C55  1  0.65302240  0.55237188  0.67756458  1  1.547984  0  0.212952  0.57713  0  4.171177  0
C  C56  1  0.73882925  0.46732192  0.73705488  1  -0.012348  0  0.001277  -0.011608  0  3.931693  0
C  C57  1  0.65066218  0.39597644  0.78309647  1  0.073043  0  -0.077573  -0.09932  0  3.947537  0
C  C58  1  0.72089923  0.31592031  0.84118026  1  -0.104962  0  -0.075507  -0.077467  0  3.972481  0
C  C59  1  0.87980445  0.30739742  0.85575445  1  -0.015569  0  -0.01709  -0.036371  0  3.96199  0
C  C60  1  0.95812103  0.22405585  0.91924297  1  1.553347  0  0.216283  0.59591  0  4.172903  0
C  C61  1  0.96700892  0.37993194  0.81151094  1  0.034976  0  -0.077938  -0.101053  0  3.963  0
C  C62  1  0.89854046  0.45907284  0.75267442  1  -0.194052  0  -0.016147  -0.116622  0  3.935757  0
C  C63  1  0.38383882  0.89724257  0.49338198  1  0.460947  0  0.048343  0.098331  0  3.92337  0
C  C64  1  0.24077455  0.97405019  0.47499890  1  -0.039322  0  -0.074536  -0.158611  0  3.9221  0
C  C65  1  0.07709394  0.96093089  0.51107588  1  0.013394  0  0.020936  0.104237  0  3.953434  0
C  C66  1  0.06719047  0.87052011  0.56755152  1  -0.028467  0  -0.067131  -0.146396  0  3.876982  0
C  C67  1  0.21634821  0.79702960  0.58365248  1  0.496252  0  0.064571  0.122306  0  3.894782  0
C  C68  1  0.11753288  0.05232329  0.17763942  1  1.552514  0  0.212554  0.577352  0  4.169561  0
C  C69  1  0.05732362  0.96723538  0.23714242  1  0.01029  0  0.000782  -0.012449  0  3.93142  0
C  C70  1  0.17077629  0.89586350  0.28322303  1  -0.100204  0  -0.078201  -0.098659  0  3.945072  0
C  C71  1  0.12252075  0.81575933  0.34123576  1  0.039244  0  -0.075649  -0.079623  0  3.978308  0
C  C72  1  0.95751557  0.80727377  0.35576481  1  -0.029212  0  -0.016767  -0.035055  0  3.961602  0
C  C73  1  0.89907107  0.72390583  0.41916982  1  1.565351  0  0.216007  0.595515  0  4.173487  0
C  C74  1  0.84207029  0.87983120  0.31150408  1  0.004615  0  -0.078089  -0.102118  0  3.960813  0
C  C75  1  0.89024906  0.95901527  0.25271835  1  -0.168899  0  -0.015588  -0.11544  0  3.935034  0
C  C76  1  0.22590344  0.39725430  0.99303320  1  0.466515  0  0.048081  0.097607  0  3.920586  0
C  C77  1  0.31056861  0.47400936  0.97471037  1  -0.016165  0  -0.074648  -0.159091  0  3.920549  0
C  C78  1  0.45094653  0.46093173  0.01102444  1  -0.004222  0  0.021206  0.104357  0  3.956574  0
C  C79  1  0.49451832  0.37059986  0.06761144  1  -0.014145  0  -0.066717  -0.145791  0  3.877154  0
C  C80  1  0.40283931  0.29712034  0.08359184  1  0.457625  0  0.064789  0.123298  0  3.891991  0
C  C81  1  0.34698362  0.44762469  0.32243386  1  1.54749  0  0.212926  0.576975  0  4.171188  0
C  C82  1  0.26117596  0.53267628  0.26294422  1  -0.012285  0  0.001304  -0.011466  0  3.931746  0
C  C83  1  0.34934469  0.60402334  0.21690023  1  0.072976  0  -0.077505  -0.0993  0  3.94731  0
C  C84  1  0.27909906  0.68408196  0.15882028  1  -0.105029  0  -0.075514  -0.077532  0  3.972581  0
C  C85  1  0.12019668  0.69260164  0.14424724  1  -0.015586  0  -0.017091  -0.036286  0  3.961969  0
C  C86  1  0.04188007  0.77594074  0.08075694  1  1.553209  0  0.216264  0.595825  0  4.173063  0
C  C87  1  0.03299140  0.62006874  0.18849141  1  0.035142  0  -0.077975  -0.101076  0  3.96292  0
C  C88  1  0.10146802  0.54092374  0.24732496  1  -0.1941  0  -0.016187  -0.116758  0  3.935874  0
C  C89  1  0.61615945  0.10275731  0.50662078  1  0.46102  0  0.04843  0.098417  0  3.923343  0
C  C90  1  0.75922494  0.02594967  0.52500232  1  -0.039398  0  -0.074532  -0.158647  0  3.922052  0
C  C91  1  0.92290719  0.03906813  0.48892382  1  -0.025579  0  0.021004  0.104387  0  3.953514  0
C  C92  1  0.93280818  0.12947650  0.43244879  1  -0.028396  0  -0.067244  -0.146485  0  3.876767  0
C  C93  1  0.78364432  0.20296939  0.41634529  1  0.496117  0  0.064558  0.12231  0  3.894452  0
S  S94  1  0.27305128  0.94779235  0.79446049  1  3.188359  0  0.520326  1.17973  0  6.153169  0
S  S95  1  0.01567420  0.55224111  0.70545736  1  3.190242  0  0.520156  1.180308  0  6.158318  0
S  S96  1  0.72694665  0.05221562  0.20554162  1  3.188421  0  0.520428  1.179851  0  6.153336  0
S  S97  1  0.98432818  0.44776035  0.29454325  1  3.191454  0  0.520221  1.180536  0  6.158095  0
N  N98  1  0.72851454  0.69055833  0.95395227  1  -1.267725  0  -0.3329  -0.243446  0  3.595061  0
N  N99  1  0.37297579  0.80936987  0.54625662  1  -1.260057  0  -0.333096  -0.24321  0  3.595866  0
N  N100  1  0.27148371  0.30943896  0.04604071  1  -1.267831  0  -0.332993  -0.243584  0  3.59496  0
N  N101  1  0.62702411  0.19062917  0.45374394  1  -1.260089  0  -0.333129  -0.243233  0  3.595754  0
O  O102  1  0.90046185  0.93409026  0.90703008  1  -1.157234  0  -0.317673  -0.575124  0  2.446867  0
O  O103  1  0.81903621  0.88957718  0.79146323  1  -1.145389  0  -0.291429  -0.498743  0  2.131096  0
O  O104  1  0.99040616  0.34799345  0.54839566  1  -1.168272  0  -0.306953  -0.550409  0  2.32337  0
O  O105  1  0.26141087  0.26670349  0.56363955  1  -1.184017  0  -0.329621  -0.567599  0  2.350906  0
O  O106  1  0.43699308  0.96332293  0.74003967  1  -1.328024  0  -0.334556  -0.583296  0  2.206702  0
O  O107  1  0.23356477  0.97808364  0.89285508  1  -1.315511  0  -0.334251  -0.594655  0  2.329778  0
O  O108  1  0.26671636  0.83959391  0.78042686  1  -1.331733  0  -0.332262  -0.60328  0  2.276558  0
O  O109  1  0.11697524  0.69612026  0.86506372  1  -1.265481  0  -0.56882  -0.751298  0  2.139027  0
O  O110  1  0.74190863  0.56583474  0.59280004  1  -1.162652  0  -0.317882  -0.574644  0  2.449459  0
O  O111  1  0.50060924  0.61068872  0.70856728  1  -1.138646  0  -0.291678  -0.498783  0  2.131931  0
O  O112  1  0.88689688  0.15231840  0.95184442  1  -1.163481  0  -0.307542  -0.551838  0  2.322742  0
O  O113  1  0.09218413  0.23335262  0.93627605  1  -1.179555  0  -0.329195  -0.566236  0  2.350257  0
O  O114  1  0.14075419  0.53673234  0.75981118  1  -1.316702  0  -0.334287  -0.583183  0  2.20762  0
O  O115  1  0.10491243  0.52201457  0.60706132  1  -1.316573  0  -0.334077  -0.594893  0  2.330452  0
O  O116  1  0.88687658  0.66041567  0.71954063  1  -1.341974  0  -0.332489  -0.603639  0  2.276764  0
O  O117  1  0.67838169  0.80379598  0.63489184  1  -1.264251  0  -0.569316  -0.753195  0  2.139226  0
O  O118  1  0.09954786  0.06590629  0.09296710  1  -1.157282  0  -0.317584  -0.575044  0  2.446883  0
O  O119  1  0.18098128  0.11041845  0.20852742  1  -1.145365  0  -0.291474  -0.498801  0  2.13108  0
O  O120  1  0.00957252  0.65201371  0.45160700  1  -1.167971  0  -0.306871  -0.550336  0  2.323458  0
O  O121  1  0.73856706  0.73331264  0.43636645  1  -1.183937  0  -0.329759  -0.567633  0  2.350968  0
O  O122  1  0.56300976  0.03668506  0.25996430  1  -1.328427  0  -0.334538  -0.583245  0  2.206738  0
O  O123  1  0.76643682  0.02192192  0.10714864  1  -1.315354  0  -0.334326  -0.594763  0  2.329918  0
O  O124  1  0.73329218  0.16041000  0.21957454  1  -1.331632  0  -0.332269  -0.603347  0  2.276739  0
O  O125  1  0.88302427  0.30388202  0.13493729  1  -1.265551  0  -0.568804  -0.751297  0  2.139049  0
O  O126  1  0.25809214  0.43416997  0.40720122  1  -1.162615  0  -0.317845  -0.574556  0  2.449396  0
O  O127  1  0.49940129  0.38930873  0.29143568  1  -1.13827  0  -0.291667  -0.498772  0  2.131941  0
O  O128  1  0.11309565  0.84768059  0.04815335  1  -1.163374  0  -0.307495  -0.551765  0  2.322937  0
O  O129  1  0.90782063  0.76663911  0.06372302  1  -1.17951  0  -0.329242  -0.566255  0  2.350269  0
O  O130  1  0.85924982  0.46326833  0.24019057  1  -1.317341  0  -0.3343  -0.583201  0  2.207509  0
O  O131  1  0.89508829  0.47798525  0.39293771  1  -1.316575  0  -0.334079  -0.594968  0  2.330412  0
O  O132  1  0.11311515  0.33958498  0.28045980  1  -1.3425  0  -0.332551  -0.603736  0  2.276778  0
O  O133  1  0.32161620  0.19620716  0.36511202  1  -1.264242  0  -0.569298  -0.753095  0  2.139316  0
