# generated using pymatgen
data_ZnH6C22N3O4
_symmetry_space_group_name_H-M   'P 1'
_cell_length_a   13.93820265
_cell_length_b   14.16314167
_cell_length_c   15.35697972
_cell_angle_alpha   86.80523082
_cell_angle_beta   89.99562735
_cell_angle_gamma   89.97920306
_symmetry_Int_Tables_number   1
_chemical_formula_structural   ZnH6C22N3O4
_chemical_formula_sum   'Zn2 H12 C44 N6 O8'
_cell_volume   3026.89024954
_cell_formula_units_Z   2
loop_
 _symmetry_equiv_pos_site_id
 _symmetry_equiv_pos_as_xyz
  1  'x, y, z'
loop_
 _atom_site_type_symbol
 _atom_site_label
 _atom_site_symmetry_multiplicity
 _atom_site_fract_x
 _atom_site_fract_y
 _atom_site_fract_z
 _atom_site_occupancy
 _atom_site_pbe_bader_charge
 _atom_site_pbe_bader_spin_density
 _atom_site_pbe_cm5_charge
 _atom_site_pbe_ddec_charge
 _atom_site_pbe_ddec_spin_density
 _atom_site_pbe_ddec_sum_bond_order
 _atom_site_pbe_magmom
Zn  Zn0  1  0.60100648  0.49997548  0.49998845  1  1.259628  0  0.675156  0.819955  0  2.49278  0
Zn  Zn1  1  0.39899261  0.50002610  0.50001179  1  1.277378  0  0.675141  0.81998  0  2.492775  0
H  H2  1  0.34593067  0.50199511  0.22052717  1  0.056854  0  0.099816  0.104237  0  1.020748  0
H  H3  1  0.24727424  0.44281394  0.62689941  1  0.181896  0  0.13847  0.122333  0  0.981766  0
H  H4  1  0.75273828  0.44279231  0.62688149  1  0.182372  0  0.138393  0.122137  0  0.982114  0
H  H5  1  0.24726082  0.55720792  0.37311747  1  0.182355  0  0.138393  0.122163  0  0.982102  0
H  H6  1  0.65406915  0.49800576  0.77947309  1  0.056869  0  0.099823  0.104257  0  1.02072  0
H  H7  1  0.65406477  0.50099065  0.22056076  1  0.055949  0  0.099791  0.104026  0  1.020449  0
H  H8  1  0.34593433  0.49900878  0.77944017  1  0.055969  0  0.099813  0.104062  0  1.02042  0
H  H9  1  0.74422332  0.50072581  0.08064203  1  0.079309  0  0.102443  0.106907  0  1.000079  0
H  H10  1  0.25577649  0.49927366  0.91935825  1  0.079323  0  0.102456  0.106889  0  1.000047  0
H  H11  1  0.74419738  0.49759961  0.91941119  1  0.076529  0  0.102067  0.106574  0  1.000038  0
H  H12  1  0.25580243  0.50239982  0.08058974  1  0.076516  0  0.102072  0.106606  0  0.999955  0
H  H13  1  0.75272485  0.55718626  0.37310020  1  0.181879  0  0.138486  0.122347  0  0.981812  0
C  C14  1  0.49999787  0.49688836  0.67277391  1  1.556191  0  0.215986  0.60373  0  4.154624  0
C  C15  1  0.32316695  0.50108531  0.04447991  1  0.00381  0  -0.084566  -0.121603  0  3.988102  0
C  C16  1  0.79698036  0.53247005  0.42844101  1  0.560962  0  0.082917  0.075567  0  3.818283  0
C  C17  1  0.20301873  0.46753014  0.57155860  1  0.560874  0  0.082958  0.075682  0  3.818127  0
C  C18  1  0.79698773  0.46750353  0.57154011  1  0.560516  0  0.083317  0.076229  0  3.818237  0
C  C19  1  0.20301137  0.53249670  0.42845885  1  0.560482  0  0.083306  0.076186  0  3.818364  0
C  C20  1  0.89761073  0.46603254  0.57518717  1  -0.03898  0  0.016376  0.00523  0  3.989199  0
C  C21  1  0.10238836  0.53396697  0.42481180  1  -0.039416  0  0.016348  0.005202  0  3.989221  0
C  C22  1  0.89760352  0.53395475  0.42480156  1  -0.039743  0  0.016642  0.005595  0  3.989108  0
C  C23  1  0.10239414  0.46604404  0.57519808  1  -0.039714  0  0.016602  0.00547  0  3.989172  0
C  C24  1  0.94911449  0.49999725  0.49999724  1  0.123747  0  0.026043  0.035168  0  3.950766  0
C  C25  1  0.50000122  0.50311322  0.32722633  1  1.556293  0  0.215961  0.60367  0  4.1548  0
C  C26  1  0.05088461  0.50000224  0.50000238  1  -0.038499  0  0.026004  0.035182  0  3.950778  0
C  C27  1  0.95008288  0.43231934  0.65163033  1  0.067389  0  0.038521  0.019001  0  4.008173  0
C  C28  1  0.04991550  0.56768020  0.34836799  1  0.067653  0  0.038559  0.019077  0  4.008072  0
C  C29  1  0.95007102  0.56767461  0.34836156  1  0.244943  0  0.038454  0.018939  0  4.00796  0
C  C30  1  0.04992736  0.43232423  0.65163677  1  0.24553  0  0.038433  0.018926  0  4.008115  0
C  C31  1  0.49999126  0.67778177  0.49738854  1  1.702876  0  0.222825  0.655841  0  4.27671  0
C  C32  1  0.50000712  0.32221976  0.50261301  1  1.702756  0  0.222831  0.65585  0  4.276724  0
C  C33  1  0.49997907  0.77754356  0.49933776  1  0.276558  0  -0.008383  -0.127104  0  3.913024  0
C  C34  1  0.50001859  0.22245794  0.50066444  1  0.276263  0  -0.008452  -0.127228  0  3.913153  0
C  C35  1  0.49999264  0.86341847  0.50018213  1  -0.388715  0  -0.016898  0.01408  0  4.333915  0
C  C36  1  0.50000125  0.50030493  0.04622267  1  0.03635  0  0.005584  0.004262  0  3.912291  0
C  C37  1  0.50000502  0.13658317  0.49981682  1  -0.388633  0  -0.016935  0.014026  0  4.333933  0
C  C38  1  0.49999465  0.95677205  0.50028402  1  -0.132014  0  -0.004811  -0.006055  0  4.267428  0
C  C39  1  0.50000372  0.04322973  0.49971166  1  0.085798  0  -0.004594  -0.005692  0  4.267347  0
C  C40  1  0.41300932  0.50154636  0.18413432  1  0.023419  0  -0.078312  -0.131792  0  3.920206  0
C  C41  1  0.58698978  0.49845378  0.81586660  1  0.023437  0  -0.078302  -0.131803  0  3.920263  0
C  C42  1  0.49999362  0.50171780  0.22967304  1  -0.031782  0  -0.022426  -0.0386  0  4.008206  0
C  C43  1  0.50000548  0.49828237  0.77032723  1  -0.031938  0  -0.022439  -0.03864  0  4.008246  0
C  C44  1  0.58698249  0.50095052  0.18415841  1  0.024669  0  -0.078181  -0.130832  0  3.918268  0
C  C45  1  0.41301732  0.49904894  0.81584187  1  0.024789  0  -0.078202  -0.130861  0  3.918275  0
C  C46  1  0.58880642  0.50032885  0.09279132  1  -0.018635  0  -0.005413  0.076016  0  4.034581  0
C  C47  1  0.49999856  0.49969382  0.95377762  1  -0.048799  0  0.005568  0.004211  0  3.912348  0
C  C48  1  0.41119339  0.49966988  0.90720962  1  -0.018624  0  -0.005445  0.075975  0  4.034637  0
C  C49  1  0.89839808  0.40059001  0.72764175  1  0.810071  0  0.185676  0.216199  0  4.022826  0
C  C50  1  0.10159958  0.59941025  0.27235656  1  0.81031  0  0.185678  0.216204  0  4.022927  0
C  C51  1  0.89838668  0.59939544  0.27234180  1  0.810817  0  0.185515  0.216176  0  4.023069  0
C  C52  1  0.10161098  0.40060270  0.72765655  1  0.810321  0  0.185657  0.216302  0  4.02303  0
C  C53  1  0.41119430  0.50099333  0.09276097  1  -0.021161  0  -0.005381  0.076887  0  4.034632  0
C  C54  1  0.58880479  0.49900542  0.90723932  1  -0.021199  0  -0.005399  0.076873  0  4.034631  0
C  C55  1  0.67683573  0.49979873  0.04453866  1  -0.100542  0  -0.08487  -0.121623  0  3.989194  0
C  C56  1  0.32316336  0.50019999  0.95546228  1  -0.100549  0  -0.084831  -0.121469  0  3.989163  0
C  C57  1  0.67683286  0.49891416  0.95552037  1  0.003834  0  -0.084542  -0.12148  0  3.988046  0
N  N58  1  0.74977674  0.49998085  0.49998772  1  -1.210089  0  -0.300399  -0.159947  0  3.512069  0
N  N59  1  0.25022235  0.50002005  0.50001188  1  -1.210056  0  -0.300387  -0.160007  0  3.512168  0
N  N60  1  0.85421468  0.37616042  0.78951509  1  -1.04473  0  -0.259236  -0.285497  0  2.656883  0
N  N61  1  0.14578298  0.62384053  0.21048321  1  -1.04476  0  -0.259262  -0.285542  0  2.656957  0
N  N62  1  0.85421293  0.62381646  0.21045556  1  -1.045288  0  -0.259321  -0.285577  0  2.656572  0
N  N63  1  0.14578402  0.37618165  0.78954344  1  -1.045214  0  -0.259413  -0.285637  0  2.656559  0
O  O64  1  0.58135902  0.49640064  0.63455046  1  -1.177375  0  -0.323412  -0.563261  0  2.315304  0
O  O65  1  0.41863935  0.50360380  0.36544909  1  -1.177524  0  -0.3234  -0.563245  0  2.315323  0
O  O66  1  0.58136911  0.50354828  0.36542908  1  -1.176764  0  -0.323496  -0.563252  0  2.315026  0
O  O67  1  0.41862927  0.49645048  0.63457121  1  -1.17678  0  -0.323517  -0.563282  0  2.3149  0
O  O68  1  0.58237319  0.63928526  0.49664599  1  -1.131158  0  -0.309445  -0.525063  0  2.309575  0
O  O69  1  0.41762662  0.36071717  0.50335099  1  -1.131293  0  -0.309401  -0.524997  0  2.309545  0
O  O70  1  0.58237887  0.36067967  0.50334048  1  -1.131558  0  -0.30948  -0.525027  0  2.309475  0
O  O71  1  0.41762166  0.63932099  0.49666499  1  -1.13195  0  -0.309533  -0.525108  0  2.309572  0
