# generated using pymatgen
data_Zn2H45C47N7O23
_symmetry_space_group_name_H-M   'P 1'
_cell_length_a   9.86698500
_cell_length_b   11.03780466
_cell_length_c   17.66000551
_cell_angle_alpha   88.86768142
_cell_angle_beta   92.20058040
_cell_angle_gamma   95.43693107
_symmetry_Int_Tables_number   1
_chemical_formula_structural   Zn2H45C47N7O23
_chemical_formula_sum   'Zn2 H45 C47 N7 O23'
_cell_volume   1913.03228798
_cell_formula_units_Z   1
loop_
 _symmetry_equiv_pos_site_id
 _symmetry_equiv_pos_as_xyz
  1  'x, y, z'
loop_
 _atom_site_type_symbol
 _atom_site_label
 _atom_site_symmetry_multiplicity
 _atom_site_fract_x
 _atom_site_fract_y
 _atom_site_fract_z
 _atom_site_occupancy
 _atom_site_pbe_bader_charge
 _atom_site_pbe_bader_spin_density
 _atom_site_pbe_cm5_charge
 _atom_site_pbe_ddec_charge
 _atom_site_pbe_ddec_spin_density
 _atom_site_pbe_ddec_sum_bond_order
 _atom_site_pbe_magmom
Zn  Zn0  1  0.64677290  0.50421381  0.50658169  1  1.29935  0  0.681558  0.834151  0  2.378531  0
Zn  Zn1  1  0.35569008  0.49788665  0.49938251  1  1.300992  0  0.682861  0.844175  0  2.365799  0
H  H2  1  0.69515421  0.66016108  0.87647546  1  0.103003  0  0.124052  0.138426  0  0.967443  0
H  H3  1  0.29032291  0.47016596  0.87899192  1  0.13585  0  0.125421  0.141376  0  0.970138  0
H  H4  1  0.68236753  0.65847830  0.12175926  1  0.092885  0  0.113439  0.127924  0  1.000001  0
H  H5  1  0.35933602  0.09175847  0.60315495  1  0.166884  0  0.121319  0.14191  0  0.991558  0
H  H6  1  0.73222774  0.18538975  0.39615876  1  0.057348  0  0.096174  0.046951  0  1.000262  0
H  H7  1  0.80680928  0.98555307  0.44535524  1  0.073003  0  0.102914  0.048361  0  0.978791  0
H  H8  1  0.12766513  0.33087951  0.54763127  1  0.172134  0  0.140101  0.12892  0  0.976091  0
H  H9  1  0.87335166  0.31885262  0.55790236  1  0.165675  0  0.145091  0.12484  0  0.944894  0
H  H10  1  0.85594012  0.70118780  0.38700961  1  0.163603  0  0.126338  0.175246  0  0.981426  0
H  H11  1  0.86079767  0.76782547  0.47877707  1  0.144738  0  0.120878  0.166059  0  0.970493  0
H  H12  1  0.61622819  0.28341532  0.29746999  1  0.027104  0  0.090851  0.051843  0  1.016602  0
H  H13  1  0.44567474  0.21375168  0.29826187  1  0.037331  0  0.092831  0.067436  0  0.98276  0
H  H14  1  0.65969056  0.17614812  0.18088577  1  0.02304  0  0.08749  0.07324  0  1.006944  0
H  H15  1  0.50404727  0.08531348  0.18656082  1  0.026116  0  0.094675  0.089488  0  0.988585  0
H  H16  1  0.37552812  0.26964649  0.15754491  1  0.033016  0  0.082049  0.114934  0  1.023365  0
H  H17  1  0.48849743  0.24306021  0.08487760  1  0.001116  0  0.085056  0.115146  0  0.99455  0
H  H18  1  0.53242976  0.36088826  0.15019023  1  0.026948  0  0.073162  0.091898  0  1.074663  0
H  H19  1  0.86780178  0.83654598  0.28317454  1  0.04982  0  0.100088  0.070423  0  0.990177  0
H  H20  1  0.93841837  0.92496638  0.36082779  1  0.049133  0  0.089512  0.044987  0  1.035064  0
H  H21  1  0.79456907  0.02457779  0.21911245  1  0.034245  0  0.09072  0.085055  0  0.993092  0
H  H22  1  0.85988440  0.11317573  0.29645567  1  0.005154  0  0.090534  0.084154  0  0.998693  0
H  H23  1  0.09623785  0.05407134  0.27636728  1  0.025534  0  0.089591  0.123718  0  0.993115  0
H  H24  1  0.03020548  0.12791047  0.19533887  1  0.024494  0  0.085407  0.11447  0  1.022934  0
H  H25  1  0.03351221  0.96730605  0.19656192  1  0.014038  0  0.081408  0.104137  0  1.022142  0
H  H26  1  0.30453180  0.69678240  0.37229245  1  0.053405  0  0.09586  0.074067  0  1.025869  0
H  H27  1  0.29986783  0.85392441  0.39386738  1  0.059873  0  0.0989  0.068981  0  0.997956  0
H  H28  1  0.22955724  0.73419260  0.24105290  1  0.011591  0  0.079525  0.057511  0  1.074149  0
H  H29  1  0.20644161  0.88731356  0.26001484  1  0.022579  0  0.089981  0.083725  0  1.0089  0
H  H30  1  0.45589929  0.93737400  0.28291386  1  0.077926  0  0.086388  0.121428  0  1.05987  0
H  H31  1  0.42853959  0.86466999  0.19414971  1  0.012455  0  0.077634  0.100328  0  1.018535  0
H  H32  1  0.48652691  0.78419028  0.27489105  1  0.014756  0  0.077225  0.10912  0  1.042722  0
H  H33  1  0.94248978  0.60227012  0.25773511  1  0.109877  0  0.10821  0.088097  0  0.996758  0
H  H34  1  0.85603461  0.60812140  0.16797446  1  -0.001093  0  0.093225  0.051032  0  1.018571  0
H  H35  1  0.86283807  0.39119495  0.27803731  1  0.039631  0  0.091719  0.088953  0  0.975961  0
H  H36  1  0.72506945  0.40065475  0.21211889  1  0.020708  0  0.089435  0.076455  0  1.043026  0
H  H37  1  0.88137414  0.41335030  0.10402537  1  0.018549  0  0.081524  0.10297  0  1.010326  0
H  H38  1  0.89531879  0.27867284  0.15878646  1  -0.016686  0  0.088778  0.119005  0  1.016149  0
H  H39  1  0.02378815  0.40132722  0.16786338  1  0.056349  0  0.08435  0.114957  0  1.056421  0
H  H40  1  0.07600915  0.52033585  0.04693592  1  0.088277  0  0.109521  0.079423  0  0.974623  0
H  H41  1  0.23142927  0.59569279  0.01487045  1  0.065059  0  0.095833  0.061694  0  1.026061  0
H  H42  1  0.08107011  0.67913472  0.15027185  1  0.041482  0  0.093305  0.085066  0  1.017157  0
H  H43  1  0.22047165  0.76055261  0.10662728  1  0.015005  0  0.094416  0.092347  0  0.978994  0
H  H44  1  0.07459573  0.77989324  0.98555057  1  0.032782  0  0.093165  0.123958  0  0.988321  0
H  H45  1  0.00236617  0.84435582  0.06405880  1  0.030058  0  0.090976  0.120673  0  1.001113  0
H  H46  1  0.93532647  0.69909321  0.03093065  1  0.000878  0  0.08205  0.100924  0  1.019732  0
C  C47  1  0.52953257  0.73815971  0.51410952  1  1.634461  0  0.222139  0.612237  0  4.189828  0
C  C48  1  0.50797432  0.52175849  0.35663017  1  1.59966  0  0.220518  0.607781  0  4.163416  0
C  C49  1  0.46940221  0.26504465  0.49945145  1  1.604418  0  0.223228  0.614626  0  4.156207  0
C  C50  1  0.50948470  0.49492025  0.64845141  1  1.638798  0  0.220847  0.60749  0  4.188615  0
C  C51  1  0.60910263  0.60854438  0.84796067  1  0.100861  0  -0.064058  -0.169239  0  3.883341  0
C  C52  1  0.61508915  0.57937118  0.77213108  1  0.192048  0  0.097831  0.090106  0  3.914225  0
C  C53  1  0.50828369  0.51310182  0.73235264  1  0.123303  0  0.012387  -0.094343  0  3.881416  0
C  C54  1  0.39403164  0.47374596  0.77431919  1  0.15645  0  0.096539  0.088525  0  3.916072  0
C  C55  1  0.38190899  0.50249467  0.84942321  1  0.129704  0  -0.062812  -0.16514  0  3.880568  0
C  C56  1  0.49094060  0.57090140  0.88751389  1  0.020682  0  0.013093  0.170625  0  4.111467  0
C  C57  1  0.48269460  0.59344081  0.96552677  1  0.131746  0  -0.031331  -0.099326  0  4.065562  0
C  C58  1  0.47083058  0.60068238  0.03377835  1  -0.476848  0  -0.029018  -0.069161  0  4.10979  0
C  C59  1  0.59586025  0.62008481  0.15363021  1  -0.006678  0  -0.086189  -0.231032  0  3.944758  0
C  C60  1  0.61353941  0.59288574  0.23054852  1  0.567454  0  0.097278  0.24921  0  4.044209  0
C  C61  1  0.50013200  0.54388007  0.27226350  1  0.043949  0  -0.00561  -0.15782  0  3.880693  0
C  C62  1  0.37502946  0.52185162  0.23147042  1  0.24746  0  0.084767  -0.019442  0  3.881834  0
C  C63  1  0.35613681  0.54511719  0.15366904  1  0.581147  0  0.097459  0.150916  0  4.02219  0
C  C64  1  0.47114884  0.59401752  0.11363493  1  0.089914  0  0.000175  0.064122  0  4.134164  0
C  C65  1  0.59047929  0.95370797  0.46272813  1  -0.029934  0  -0.00465  -0.007118  0  3.834263  0
C  C66  1  0.52792148  0.87489917  0.51692050  1  0.027094  0  0.011601  -0.06067  0  3.86751  0
C  C67  1  0.44815722  0.93346727  0.56746518  1  0.193359  0  0.079556  0.041436  0  3.880884  0
C  C68  1  0.42137993  0.05560658  0.56078290  1  0.027338  0  -0.064941  -0.125811  0  3.916438  0
C  C69  1  0.47885751  0.13041639  0.50320894  1  -0.026396  0  -0.00405  -0.03402  0  3.945259  0
C  C70  1  0.56310669  0.07562917  0.45533485  1  -0.008214  0  -0.002862  0.008037  0  3.892263  0
C  C71  1  0.65863466  0.10403445  0.39046958  1  0.495089  0  0.004528  0.056861  0  3.875147  0
C  C72  1  0.71123892  0.97370295  0.40997651  1  0.536112  0  0.017746  0.092021  0  3.867667  0
C  C73  1  0.07058618  0.59354665  0.47413337  1  0.510606  0  0.141229  0.082072  0  3.802774  0
C  C74  1  0.07067050  0.40593731  0.52759866  1  0.436523  0  0.075169  0.053933  0  3.808597  0
C  C75  1  0.92893272  0.39880293  0.53286119  1  0.495736  0  0.083656  0.074056  0  3.829246  0
C  C76  1  0.92924960  0.58398501  0.47820893  1  0.608865  0  0.150206  0.237785  0  3.90779  0
C  C77  1  0.90837595  0.70505661  0.44297054  1  -0.040994  0  -0.142079  -0.343607  0  3.791353  0
C  C78  1  0.06874743  0.72464332  0.43905471  1  0.845364  0  0.180465  0.218905  0  3.836475  0
C  C79  1  0.54970734  0.20138251  0.28088686  1  0.432469  0  -0.071919  0.029157  0  3.88302  0
C  C80  1  0.55266835  0.17790511  0.19598285  1  -0.009003  0  -0.168928  -0.125033  0  3.968959  0
C  C81  1  0.48324382  0.26786534  0.14458472  1  -0.048778  0  -0.251683  -0.354749  0  3.971762  0
C  C82  1  0.85708954  0.91859155  0.31588541  1  0.410116  0  -0.073633  0.027712  0  3.880911  0
C  C83  1  0.87441547  0.03135776  0.26435706  1  -0.012022  0  -0.173659  -0.14088  0  3.973857  0
C  C84  1  0.01608879  0.04569532  0.23125093  1  -0.058387  0  -0.244442  -0.353543  0  3.968803  0
C  C85  1  0.25648973  0.77988450  0.35698164  1  0.372562  0  -0.075709  0.036164  0  3.826353  0
C  C86  1  0.27045393  0.81327189  0.27412511  1  0.045454  0  -0.179952  -0.136622  0  3.994737  0
C  C87  1  0.41789551  0.85193371  0.25560489  1  -0.091025  0  -0.256999  -0.359446  0  3.958814  0
C  C88  1  0.85016914  0.56785414  0.22552483  1  0.386313  0  -0.066202  0.02445  0  3.853991  0
C  C89  1  0.83382206  0.42924004  0.22237971  1  -0.011187  0  -0.17302  -0.139343  0  3.972967  0
C  C90  1  0.91371148  0.37829343  0.15999474  1  -0.035514  0  -0.247929  -0.352232  0  3.950276  0
C  C91  1  0.16716544  0.57961880  0.06415333  1  0.345153  0  -0.063914  0.033367  0  3.856238  0
C  C92  1  0.12827001  0.69832573  0.09543136  1  -0.001637  0  -0.171774  -0.147089  0  3.977905  0
C  C93  1  0.02999374  0.75876242  0.04091260  1  -0.044682  0  -0.239354  -0.348282  0  3.969484  0
N  N94  1  0.14527325  0.50466836  0.49794818  1  -1.179101  0  -0.273997  -0.15036  0  3.426184  0
N  N95  1  0.85483263  0.48971359  0.50750405  1  -1.22292  0  -0.283781  -0.180561  0  3.435732  0
N  N96  1  0.74304530  0.62356116  0.73440472  1  0.449874  0  0.061783  0.513594  0  4.234577  0
N  N97  1  0.11878060  0.82051420  0.50159297  1  0.47735  0  0.054018  0.445874  0  4.17074  0
N  N98  1  0.28283991  0.39068762  0.73969517  1  0.417664  0  0.061737  0.515813  0  4.227988  0
N  N99  1  0.25225749  0.45914130  0.26707312  1  0.468567  0  0.063747  0.53657  0  4.235616  0
N  N100  1  0.40132535  0.86801834  0.63728399  1  0.386145  0  0.05569  0.512803  0  4.209663  0
O  O101  1  0.64156261  0.69121179  0.52227341  1  -1.152091  0  -0.299175  -0.516512  0  2.306338  0
O  O102  1  0.41374344  0.68289142  0.49680280  1  -1.16247  0  -0.311997  -0.560939  0  2.381321  0
O  O103  1  0.62277434  0.53522410  0.39133909  1  -1.147082  0  -0.301169  -0.517375  0  2.349636  0
O  O104  1  0.39364443  0.49314061  0.38690844  1  -1.165139  0  -0.312821  -0.555397  0  2.403308  0
O  O105  1  0.58349665  0.32605397  0.48811253  1  -1.165794  0  -0.317597  -0.566311  0  2.35435  0
O  O106  1  0.35633733  0.30804121  0.50807246  1  -1.161774  0  -0.308782  -0.533961  0  2.269312  0
O  O107  1  0.62304727  0.47891715  0.62088482  1  -1.148616  0  -0.308371  -0.529393  0  2.312972  0
O  O108  1  0.39600404  0.50171334  0.61348476  1  -1.144991  0  -0.300422  -0.522971  0  2.370099  0
O  O109  1  0.59799188  0.09546164  0.31706998  1  -1.053857  0  -0.209965  -0.226855  0  2.593698  0
O  O110  1  0.72664693  0.89535864  0.35037080  1  -1.051101  0  -0.217623  -0.223374  0  2.484052  0
O  O111  1  0.11061548  0.75869799  0.36935325  1  -1.069825  0  -0.18452  -0.226686  0  2.59583  0
O  O112  1  0.74079559  0.71381534  0.69242512  1  -0.422534  0  -0.111067  -0.28974  0  1.906956  0
O  O113  1  0.84300447  0.56771409  0.75151180  1  -0.429873  0  -0.128606  -0.316668  0  1.859841  0
O  O114  1  0.13337222  0.92793927  0.48066553  1  -0.443149  0  -0.114275  -0.302165  0  1.9589  0
O  O115  1  0.13215704  0.78094942  0.56685288  1  -0.41561  0  -0.103615  -0.279666  0  1.963847  0
O  O116  1  0.31681200  0.29832081  0.70978220  1  -0.439034  0  -0.124499  -0.315603  0  1.89304  0
O  O117  1  0.16504513  0.41737901  0.74612001  1  -0.435358  0  -0.126182  -0.318053  0  1.869795  0
O  O118  1  0.73964128  0.61358604  0.26520442  1  -1.056212  0  -0.184732  -0.205248  0  2.528371  0
O  O119  1  0.16224684  0.52227052  0.28528763  1  -0.456698  0  -0.107836  -0.31488  0  2.00753  0
O  O120  1  0.24466186  0.34698374  0.27015849  1  -0.458313  0  -0.104869  -0.305706  0  1.935478  0
O  O121  1  0.23324947  0.50550166  0.12100219  1  -1.07452  0  -0.185635  -0.212976  0  2.565462  0
O  O122  1  0.33040321  0.92021164  0.68019786  1  -0.428952  0  -0.139008  -0.334707  0  1.901214  0
O  O123  1  0.44163748  0.76620746  0.65006691  1  -0.449513  0  -0.125668  -0.326173  0  2.013849  0
