# generated using pymatgen
data_AgH20C22N2O2F3
_symmetry_space_group_name_H-M   'P 1'
_cell_length_a   4.48772785
_cell_length_b   14.35015956
_cell_length_c   15.41170701
_cell_angle_alpha   89.40097914
_cell_angle_beta   85.15186876
_cell_angle_gamma   87.43563713
_symmetry_Int_Tables_number   1
_chemical_formula_structural   AgH20C22N2O2F3
_chemical_formula_sum   'Ag2 H40 C44 N4 O4 F6'
_cell_volume   987.94439956
_cell_formula_units_Z   2
loop_
 _symmetry_equiv_pos_site_id
 _symmetry_equiv_pos_as_xyz
  1  'x, y, z'
loop_
 _atom_site_type_symbol
 _atom_site_label
 _atom_site_symmetry_multiplicity
 _atom_site_fract_x
 _atom_site_fract_y
 _atom_site_fract_z
 _atom_site_occupancy
 _atom_site_hle17_bader_spin_density
 _atom_site_hle17_ddec_charge
 _atom_site_hle17_ddec_spin_density
 _atom_site_hle17_ddec_sum_bond_order
 _atom_site_hle17_magmom
 _atom_site_hse06_10hf_bader_spin_density
 _atom_site_hse06_10hf_ddec_charge
 _atom_site_hse06_10hf_ddec_spin_density
 _atom_site_hse06_10hf_ddec_sum_bond_order
 _atom_site_hse06_10hf_magmom
 _atom_site_hse06_bader_spin_density
 _atom_site_hse06_ddec_charge
 _atom_site_hse06_ddec_spin_density
 _atom_site_hse06_ddec_sum_bond_order
 _atom_site_hse06_magmom
 _atom_site_pbe_bader_spin_density
 _atom_site_pbe_cm5_charge
 _atom_site_pbe_ddec_charge
 _atom_site_pbe_ddec_spin_density
 _atom_site_pbe_ddec_sum_bond_order
 _atom_site_pbe_magmom
Ag  Ag0  1  0.76793748  0.53732525  0.44983844  1  0  0.52886  0  1.496198  0  0  0.397403  0  1.982015  0  0  0.433612  0  1.920691  0  0  0.4142  0.372336  0  2.024448  0
Ag  Ag1  1  0.23206362  0.46267568  0.55015971  1  0  0.528828  0  1.496287  0  0  0.397378  0  1.982124  0  0  0.433586  0  1.920797  0  0  0.414177  0.372302  0  2.024675  0
H  H2  1  0.37836962  0.70863019  0.35947732  1  0  0.096693  0  0.941586  0  0  0.103704  0  1.005986  0  0  0.106691  0  1.004411  0  0  0.116882  0.101535  0  1.007234  0
H  H3  1  0.62163383  0.29137005  0.64052143  1  0  0.096729  0  0.941552  0  0  0.103702  0  1.006001  0  0  0.106694  0  1.004413  0  0  0.116869  0.101333  0  1.007587  0
H  H4  1  0.97696008  0.79766418  0.37983072  1  0  0.098433  0  0.982628  0  0  0.104677  0  1.054435  0  0  0.107968  0  1.052477  0  0  0.094023  0.102295  0  1.055923  0
H  H5  1  0.02303903  0.20233536  0.62016946  1  0  0.098359  0  0.982606  0  0  0.104582  0  1.054452  0  0  0.107874  0  1.052493  0  0  0.093983  0.101856  0  1.056505  0
H  H6  1  0.50973799  0.98698785  0.21612868  1  0  0.091204  0  0.966608  0  0  0.105774  0  1.026709  0  0  0.107959  0  1.026836  0  0  0.096822  0.104183  0  1.026733  0
H  H7  1  0.49026326  0.01301239  0.78387273  1  0  0.091204  0  0.966583  0  0  0.105786  0  1.026673  0  0  0.107973  0  1.026798  0  0  0.096818  0.104194  0  1.026693  0
H  H8  1  0.84576823  0.71957615  0.11727626  1  0  0.099206  0  0.97156  0  0  0.10835  0  1.040506  0  0  0.111454  0  1.038869  0  0  0.100087  0.106111  0  1.04177  0
H  H9  1  0.15422608  0.28042548  0.88272401  1  0  0.099235  0  0.97161  0  0  0.108388  0  1.040527  0  0  0.111492  0  1.03889  0  0  0.100116  0.106148  0  1.04179  0
H  H10  1  0.51151321  0.01811736  0.37224569  1  0  0.108747  0  0.952932  0  0  0.127672  0  1.01725  0  0  0.129638  0  1.016071  0  0  0.085125  0.126133  0  1.018326  0
H  H11  1  0.48848793  0.98188358  0.62775506  1  0  0.108729  0  0.952936  0  0  0.127631  0  1.017279  0  0  0.129597  0  1.016102  0  0  0.085104  0.12614  0  1.0182  0
H  H12  1  0.90399382  0.01236292  0.37894875  1  0  0.107624  0  0.961076  0  0  0.126131  0  1.028035  0  0  0.127588  0  1.027263  0  0  0.083759  0.124972  0  1.028802  0
H  H13  1  0.09600974  0.98763663  0.62105066  1  0  0.107597  0  0.961157  0  0  0.126095  0  1.02812  0  0  0.127553  0  1.027349  0  0  0.083738  0.124996  0  1.028684  0
H  H14  1  0.67812238  0.93514556  0.44225541  1  0  0.117479  0  0.95228  0  0  0.136591  0  1.014727  0  0  0.138583  0  1.013494  0  0  0.087509  0.135143  0  1.015596  0
H  H15  1  0.32187875  0.06485538  0.55774534  1  0  0.11748  0  0.95222  0  0  0.136586  0  1.014673  0  0  0.13858  0  1.013436  0  0  0.087513  0.134738  0  1.016142  0
H  H16  1  0.59974797  0.82577106  0.02286191  1  0  0.101908  0  0.977388  0  0  0.122127  0  1.04391  0  0  0.123142  0  1.044461  0  0  0.088836  0.121354  0  1.043563  0
H  H17  1  0.40025338  0.17422848  0.97713885  1  0  0.101897  0  0.977394  0  0  0.122112  0  1.04393  0  0  0.123127  0  1.044481  0  0  0.088829  0.12134  0  1.043584  0
H  H18  1  0.61845864  0.94672268  0.04476527  1  0  0.098458  0  0.955874  0  0  0.120739  0  1.016415  0  0  0.12198  0  1.015791  0  0  0.087231  0.119827  0  1.016846  0
H  H19  1  0.38154261  0.05327756  0.95523614  1  0  0.098453  0  0.955887  0  0  0.120737  0  1.016425  0  0  0.121978  0  1.015801  0  0  0.087239  0.119825  0  1.016857  0
H  H20  1  0.29253514  0.88710914  0.08056685  1  0  0.107379  0  0.953623  0  0  0.129321  0  1.014986  0  0  0.130253  0  1.015582  0  0  0.089397  0.128631  0  1.01457  0
H  H21  1  0.70746159  0.11289110  0.91943143  1  0  0.107395  0  0.953623  0  0  0.129331  0  1.014992  0  0  0.130261  0  1.01559  0  0  0.089409  0.128641  0  1.014576  0
H  H22  1  0.45786860  0.42482023  0.31558952  1  0  0.103949  0  0.971636  0  0  0.110863  0  1.035468  0  0  0.11463  0  1.032609  0  0  0.115218  0.108103  0  1.037703  0
H  H23  1  0.54213260  0.57518001  0.68440864  1  0  0.103921  0  0.971715  0  0  0.110877  0  1.035479  0  0  0.114643  0  1.032619  0  0  0.115195  0.10811  0  1.037739  0
H  H24  1  0.30815529  0.31565954  0.25864221  1  0  0.097923  0  0.964557  0  0  0.109501  0  1.026626  0  0  0.112146  0  1.02563  0  0  0.097327  0.107557  0  1.027528  0
H  H25  1  0.69183956  0.68433860  0.74135938  1  0  0.097914  0  0.9646  0  0  0.109488  0  1.02667  0  0  0.112132  0  1.025676  0  0  0.097312  0.107545  0  1.027591  0
H  H26  1  0.86034616  0.20914022  0.04843356  1  0  0.090964  0  0.957881  0  0  0.106233  0  1.015118  0  0  0.1086  0  1.015103  0  0  0.097911  0.104511  0  1.015238  0
H  H27  1  0.13965973  0.79085863  0.95156515  1  0  0.090975  0  0.957842  0  0  0.106232  0  1.0151  0  0  0.108599  0  1.015085  0  0  0.097898  0.104509  0  1.015226  0
H  H28  1  0.81296774  0.50409560  0.09880189  1  0  0.102007  0  0.968127  0  0  0.111151  0  1.035918  0  0  0.114506  0  1.033951  0  0  0.101666  0.108755  0  1.037371  0
H  H29  1  0.18702933  0.49590254  0.90119835  1  0  0.102004  0  0.968155  0  0  0.111144  0  1.035951  0  0  0.114498  0  1.033991  0  0  0.101667  0.108748  0  1.037403  0
H  H30  1  0.29145978  0.11685674  0.12113602  1  0  0.098707  0  0.96139  0  0  0.121213  0  1.02433  0  0  0.122256  0  1.024313  0  0  0.087589  0.120417  0  1.024354  0
H  H31  1  0.70853920  0.88314350  0.87886285  1  0  0.098726  0  0.96139  0  0  0.121225  0  1.024336  0  0  0.122268  0  1.024319  0  0  0.087599  0.120426  0  1.024365  0
H  H32  1  0.01622869  0.11418499  0.21018489  1  0  0.10919  0  0.946014  0  0  0.130047  0  1.008972  0  0  0.131319  0  1.008729  0  0  0.088937  0.129115  0  1.009114  0
H  H33  1  0.98377275  0.88581386  0.78981458  1  0  0.109154  0  0.94604  0  0  0.130034  0  1.008971  0  0  0.131305  0  1.008729  0  0  0.08893  0.129103  0  1.009125  0
H  H34  1  0.37470621  0.15567710  0.22539488  1  0  0.111525  0  0.955293  0  0  0.129667  0  1.020511  0  0  0.131502  0  1.019528  0  0  0.087523  0.128308  0  1.021215  0
H  H35  1  0.62529277  0.84432314  0.77460463  1  0  0.111507  0  0.955297  0  0  0.129651  0  1.020515  0  0  0.131485  0  1.019533  0  0  0.087508  0.128293  0  1.021236  0
H  H36  1  0.66393387  0.31756480  0.94141347  1  0  0.106632  0  0.96307  0  0  0.127661  0  1.026482  0  0  0.12851  0  1.026926  0  0  0.088526  0.126991  0  1.02623  0
H  H37  1  0.33606979  0.68243405  0.05858529  1  0  0.106563  0  0.96316  0  0  0.127596  0  1.026566  0  0  0.128445  0  1.02701  0  0  0.08847  0.126925  0  1.02632  0
H  H38  1  0.67823107  0.43970043  0.95536091  1  0  0.111046  0  0.964037  0  0  0.13235  0  1.026753  0  0  0.133052  0  1.027535  0  0  0.090043  0.131778  0  1.026285  0
H  H39  1  0.32177259  0.56029842  0.04463785  1  0  0.111017  0  0.964002  0  0  0.132304  0  1.026737  0  0  0.133004  0  1.027522  0  0  0.090041  0.131748  0  1.026254  0
H  H40  1  0.38736515  0.37752823  0.01142801  1  0  0.103582  0  0.987237  0  0  0.123556  0  1.05364  0  0  0.123611  0  1.056125  0  0  0.086722  0.123492  0  1.051962  0
H  H41  1  0.61263616  0.62247131  0.98857016  1  0  0.103549  0  0.987226  0  0  0.123521  0  1.053634  0  0  0.123577  0  1.056118  0  0  0.086716  0.123459  0  1.051955  0
C  C42  1  0.30609742  0.64907212  0.32484205  1  0  0.035817  0  3.657018  0  0  0.001474  0  3.911399  0  0  0.004453  0  3.927692  0  0  0.044344  -0.00069  0  3.900708  0
C  C43  1  0.69390158  0.35092811  0.67515811  1  0  0.035841  0  3.657078  0  0  0.001508  0  3.911494  0  0  0.004486  0  3.927789  0  0  0.044358  -0.000703  0  3.900898  0
C  C44  1  0.09369517  0.65910059  0.26283889  1  0  0.174809  0  3.764121  0  0  0.177852  0  4.007992  0  0  0.182497  0  4.025876  0  0  0.126998  0.174445  0  3.996158  0
C  C45  1  0.90630391  0.34089895  0.73715998  1  0  0.174731  0  3.764179  0  0  0.177799  0  4.008057  0  0  0.182444  0  4.025941  0  0  0.126973  0.174387  0  3.996155  0
C  C46  1  0.93823342  0.75006748  0.24872551  1  0  0.027004  0  3.822923  0  0  0.043321  0  4.057864  0  0  0.042103  0  4.083641  0  0  -0.012636  0.04426  0  4.04033  0
C  C47  1  0.06176557  0.24993276  0.75127401  1  0  0.027016  0  3.822941  0  0  0.043281  0  4.057949  0  0  0.042062  0  4.083728  0  0  -0.012657  0.044216  0  4.040325  0
C  C48  1  0.89861145  0.81511312  0.31643284  1  0  -0.169922  0  3.692528  0  0  -0.198864  0  3.93628  0  0  -0.203791  0  3.958474  0  0  -0.095111  -0.195391  0  3.921214  0
C  C49  1  0.10138757  0.18488712  0.68356862  1  0  -0.169829  0  3.692484  0  0  -0.198727  0  3.936256  0  0  -0.203654  0  3.958451  0  0  -0.095054  -0.195405  0  3.921661  0
C  C50  1  0.74503618  0.90089380  0.30556450  1  0  0.159334  0  3.780104  0  0  0.188587  0  4.014891  0  0  0.189797  0  4.04057  0  0  -0.009425  0.187727  0  3.997378  0
C  C51  1  0.25496069  0.09910574  0.69443638  1  0  0.159326  0  3.780096  0  0  0.188568  0  4.014898  0  0  0.189777  0  4.040579  0  0  -0.009396  0.187649  0  3.997473  0
C  C52  1  0.63261876  0.92063704  0.22516083  1  0  -0.186521  0  3.689468  0  0  -0.214304  0  3.923671  0  0  -0.219591  0  3.946857  0  0  -0.095291  -0.210643  0  3.907992  0
C  C53  1  0.36737568  0.07936389  0.77484075  1  0  -0.186551  0  3.689502  0  0  -0.214336  0  3.923711  0  0  -0.219626  0  3.946901  0  0  -0.095304  -0.210679  0  3.908015  0
C  C54  1  0.66747142  0.85665277  0.15639768  1  0  0.144828  0  3.792872  0  0  0.175476  0  4.028445  0  0  0.17648  0  4.053822  0  0  -0.013256  0.174769  0  4.011153  0
C  C55  1  0.33252982  0.14334747  0.84360307  1  0  0.144874  0  3.792868  0  0  0.175515  0  4.028449  0  0  0.176518  0  4.053827  0  0  -0.013237  0.174805  0  4.011132  0
C  C56  1  0.81946677  0.77118011  0.16902312  1  0  -0.170249  0  3.702769  0  0  -0.201704  0  3.949504  0  0  -0.205877  0  3.970685  0  0  -0.095018  -0.198804  0  3.935124  0
C  C57  1  0.18052777  0.22882013  0.83097781  1  0  -0.170325  0  3.702795  0  0  -0.201759  0  3.949543  0  0  -0.205933  0  3.970725  0  0  -0.095083  -0.19886  0  3.935138  0
C  C58  1  0.70580722  0.97007856  0.37863075  1  0  -0.342756  0  3.723048  0  0  -0.423687  0  3.959208  0  0  -0.425723  0  3.967555  0  0  -0.246103  -0.422118  0  3.953693  0
C  C59  1  0.29418976  0.02992028  0.62137013  1  0  -0.342691  0  3.723055  0  0  -0.423589  0  3.959238  0  0  -0.425622  0  3.967583  0  0  -0.246068  -0.42209  0  3.954119  0
C  C60  1  0.53846344  0.88007900  0.07144635  1  0  -0.341529  0  3.74633  0  0  -0.42256  0  3.979279  0  0  -0.424177  0  3.987892  0  0  -0.241822  -0.421147  0  3.973237  0
C  C61  1  0.46153558  0.11992124  0.92855511  1  0  -0.341527  0  3.74637  0  0  -0.422559  0  3.979331  0  0  -0.424174  0  3.987946  0  0  -0.241827  -0.421146  0  3.973288  0
C  C62  1  0.35287865  0.49145097  0.29853114  1  0  0.0197  0  3.656602  0  0  -0.01483  0  3.912653  0  0  -0.012688  0  3.928641  0  0  0.038324  -0.016381  0  3.902073  0
C  C63  1  0.64712470  0.50854997  0.70146761  1  0  0.019658  0  3.656768  0  0  -0.014872  0  3.912713  0  0  -0.012728  0  3.928699  0  0  0.038319  -0.016425  0  3.902136  0
C  C64  1  0.15033429  0.50101474  0.23396628  1  0  0.175887  0  3.758623  0  0  0.178485  0  4.002057  0  0  0.183029  0  4.020611  0  0  0.125595  0.175154  0  3.989665  0
C  C65  1  0.84966470  0.49898550  0.76603388  1  0  0.175821  0  3.758694  0  0  0.17849  0  4.002019  0  0  0.183028  0  4.02057  0  0  0.125577  0.175151  0  3.989628  0
C  C66  1  0.06728275  0.41968668  0.18442494  1  0  0.027693  0  3.802318  0  0  0.044647  0  4.037384  0  0  0.043717  0  4.062694  0  0  -0.011388  0.045461  0  4.020086  0
C  C67  1  0.93271424  0.58031217  0.81557594  1  0  0.027675  0  3.802444  0  0  0.044584  0  4.037522  0  0  0.043667  0  4.062812  0  0  -0.011424  0.045403  0  4.02022  0
C  C68  1  0.16715351  0.32850308  0.20521412  1  0  -0.163512  0  3.691976  0  0  -0.195727  0  3.93995  0  0  -0.200691  0  3.963214  0  0  -0.094174  -0.192362  0  3.924185  0
C  C69  1  0.83284356  0.67149506  0.79478547  1  0  -0.163574  0  3.692019  0  0  -0.195789  0  3.940011  0  0  -0.200757  0  3.96327  0  0  -0.094197  -0.192423  0  3.924268  0
C  C70  1  0.09234864  0.25219352  0.15724834  1  0  0.152283  0  3.775657  0  0  0.179815  0  4.015887  0  0  0.181236  0  4.04097  0  0  -0.011814  0.178846  0  3.99885  0
C  C71  1  0.90764385  0.74780532  0.84275201  1  0  0.152393  0  3.775645  0  0  0.179932  0  4.015855  0  0  0.181354  0  4.040939  0  0  -0.011741  0.178963  0  3.998832  0
C  C72  1  0.91651495  0.26824109  0.08710046  1  0  -0.187194  0  3.68164  0  0  -0.212204  0  3.917093  0  0  -0.217512  0  3.939444  0  0  -0.094455  -0.20857  0  3.901937  0
C  C73  1  0.08347977  0.73175774  0.91289918  1  0  -0.187243  0  3.681607  0  0  -0.212244  0  3.917061  0  0  -0.217553  0  3.939412  0  0  -0.094475  -0.208615  0  3.901912  0
C  C74  1  0.81361909  0.35813751  0.06470929  1  0  0.150555  0  3.783871  0  0  0.179803  0  4.020076  0  0  0.181324  0  4.044191  0  0  -0.009403  0.178844  0  4.003535  0
C  C75  1  0.18638012  0.64186133  0.93529154  1  0  0.150525  0  3.783811  0  0  0.179772  0  4.020008  0  0  0.181293  0  4.044124  0  0  -0.009405  0.178811  0  4.003472  0
C  C76  1  0.88917025  0.43324944  0.11443771  1  0  -0.165474  0  3.691928  0  0  -0.196065  0  3.938001  0  0  -0.20025  0  3.9587  0  0  -0.092659  -0.193151  0  3.923859  0
C  C77  1  0.11082661  0.56675010  0.88556252  1  0  -0.165386  0  3.691975  0  0  -0.195966  0  3.938031  0  0  -0.200156  0  3.958727  0  0  -0.092613  -0.193054  0  3.923885  0
C  C78  1  0.20013010  0.15478126  0.17975897  1  0  -0.341787  0  3.737559  0  0  -0.424845  0  3.977705  0  0  -0.426563  0  3.986238  0  0  -0.242499  -0.423345  0  3.971721  0
C  C79  1  0.79986899  0.84521829  0.82024055  1  0  -0.341774  0  3.737575  0  0  -0.424851  0  3.977733  0  0  -0.42657  0  3.986265  0  0  -0.242501  -0.423351  0  3.971778  0
C  C80  1  0.62678672  0.37396964  0.98904505  1  0  -0.341421  0  3.708014  0  0  -0.423748  0  3.940855  0  0  -0.425108  0  3.949804  0  0  -0.245836  -0.422526  0  3.934667  0
C  C81  1  0.37321684  0.62602990  0.01095435  1  0  -0.341275  0  3.707952  0  0  -0.423584  0  3.940812  0  0  -0.424944  0  3.949763  0  0  -0.245769  -0.422371  0  3.93462  0
C  C82  1  0.91926649  0.32104719  0.44785102  1  0  0.496556  0  4.001965  0  0  0.440718  0  4.293842  0  0  0.472737  0  4.290087  0  0  0.199181  0.418606  0  4.296721  0
C  C83  1  0.08073211  0.67895513  0.55214330  1  0  0.496473  0  4.002121  0  0  0.440652  0  4.29395  0  0  0.472667  0  4.290198  0  0  0.199127  0.419011  0  4.295926  0
C  C84  1  0.84722793  0.22020476  0.42323297  1  0  0.684306  0  3.638088  0  0  0.61277  0  3.982532  0  0  0.639754  0  3.955237  0  0  0.303173  0.592405  0  4.004196  0
C  C85  1  0.15278013  0.77979479  0.57676827  1  0  0.684497  0  3.637828  0  0  0.612975  0  3.982236  0  0  0.639951  0  3.954953  0  0  0.303305  0.593478  0  4.002099  0
N  N86  1  0.43132139  0.56537749  0.34258260  1  0  -0.275601  0  3.32694  0  0  -0.199627  0  3.605185  0  0  -0.214807  0  3.621349  0  0  -0.329899  -0.189035  0  3.594097  0
N  N87  1  0.56867971  0.43462345  0.65741556  1  0  -0.275577  0  3.326966  0  0  -0.199629  0  3.605224  0  0  -0.214808  0  3.621387  0  0  -0.32987  -0.189042  0  3.594094  0
N  N88  1  0.02324029  0.58529489  0.21688696  1  0  -0.328242  0  3.023497  0  0  -0.29902  0  3.281062  0  0  -0.306736  0  3.294442  0  0  -0.290411  -0.293542  0  3.272093  0
N  N89  1  0.97675881  0.41470465  0.78311256  1  0  -0.328154  0  3.023447  0  0  -0.298965  0  3.280988  0  0  -0.306681  0  3.294368  0  0  -0.290394  -0.293486  0  3.272007  0
O  O90  1  0.76812383  0.38520105  0.41364706  1  0  -0.554663  0  2.186091  0  0  -0.490769  0  2.455608  0  0  -0.521305  0  2.447339  0  0  -0.305388  -0.46969  0  2.460854  0
O  O91  1  0.23187996  0.61479710  0.58635300  1  0  -0.554713  0  2.185797  0  0  -0.490826  0  2.455304  0  0  -0.521368  0  2.44704  0  0  -0.305386  -0.46969  0  2.460318  0
O  O92  1  0.11528560  0.32487806  0.50142467  1  0  -0.535072  0  2.136815  0  0  -0.475633  0  2.40494  0  0  -0.505567  0  2.396375  0  0  -0.310188  -0.455399  0  2.411066  0
O  O93  1  0.88472427  0.67512428  0.49857584  1  0  -0.534991  0  2.137195  0  0  -0.475562  0  2.40531  0  0  -0.50549  0  2.396745  0  0  -0.310162  -0.45491  0  2.410521  0
F  F94  1  0.68298991  0.21744325  0.35342002  1  0  -0.244907  0  1.209581  0  0  -0.199652  0  1.37575  0  0  -0.209859  0  1.36141  0  0  -0.091702  -0.192816  0  1.386159  0
F  F95  1  0.31702079  0.78255351  0.64657988  1  0  -0.244933  0  1.209504  0  0  -0.199667  0  1.375655  0  0  -0.209876  0  1.36132  0  0  -0.091714  -0.192282  0  1.385685  0
F  F96  1  0.68877281  0.17933734  0.49197451  1  0  -0.249001  0  1.171308  0  0  -0.202078  0  1.33271  0  0  -0.213989  0  1.319456  0  0  -0.089479  -0.188715  0  1.335812  0
F  F97  1  0.31123281  0.82066360  0.50802678  1  0  -0.249017  0  1.171232  0  0  -0.202127  0  1.332661  0  0  -0.214013  0  1.31939  0  0  -0.089485  -0.193754  0  1.342097  0
F  F98  1  0.10051040  0.16585890  0.40439926  1  0  -0.242427  0  1.193212  0  0  -0.212347  0  1.372842  0  0  -0.221881  0  1.356921  0  0  -0.094968  -0.206212  0  1.384533  0
F  F99  1  0.89949536  0.83414134  0.59560463  1  0  -0.242516  0  1.193156  0  0  -0.212441  0  1.372785  0  0  -0.221978  0  1.356872  0  0  -0.095048  -0.205492  0  1.38385  0
