# generated using pymatgen
data_MgH13PtC19N7O
_symmetry_space_group_name_H-M   'P 1'
_cell_length_a   9.75447525
_cell_length_b   9.75448748
_cell_length_c   11.55288633
_cell_angle_alpha   82.54308191
_cell_angle_beta   82.54310873
_cell_angle_gamma   72.55212538
_symmetry_Int_Tables_number   1
_chemical_formula_structural   MgH13PtC19N7O
_chemical_formula_sum   'Mg2 H26 Pt2 C38 N14 O2'
_cell_volume   1035.00171199
_cell_formula_units_Z   2
loop_
 _symmetry_equiv_pos_site_id
 _symmetry_equiv_pos_as_xyz
  1  'x, y, z'
loop_
 _atom_site_type_symbol
 _atom_site_label
 _atom_site_symmetry_multiplicity
 _atom_site_fract_x
 _atom_site_fract_y
 _atom_site_fract_z
 _atom_site_occupancy
 _atom_site_hle17_bader_spin_density
 _atom_site_hle17_ddec_charge
 _atom_site_hle17_ddec_spin_density
 _atom_site_hle17_ddec_sum_bond_order
 _atom_site_hle17_magmom
 _atom_site_hse06_10hf_bader_spin_density
 _atom_site_hse06_10hf_ddec_charge
 _atom_site_hse06_10hf_ddec_spin_density
 _atom_site_hse06_10hf_ddec_sum_bond_order
 _atom_site_hse06_10hf_magmom
 _atom_site_hse06_bader_spin_density
 _atom_site_hse06_ddec_charge
 _atom_site_hse06_ddec_spin_density
 _atom_site_hse06_ddec_sum_bond_order
 _atom_site_hse06_magmom
 _atom_site_pbe_bader_spin_density
 _atom_site_pbe_cm5_charge
 _atom_site_pbe_ddec_charge
 _atom_site_pbe_ddec_spin_density
 _atom_site_pbe_ddec_sum_bond_order
 _atom_site_pbe_magmom
Mg  Mg0  1  0.73118912  0.26881097  0.25000008  1  0  1.3355  0  1.38657  0  0  1.217625  0  1.648488  0  0  1.239101  0  1.6201  0  0  0.89326  1.202942  0  1.667655  0
Mg  Mg1  1  0.26881064  0.73119014  0.74999996  1  0  1.335494  0  1.386568  0  0  1.217616  0  1.648491  0  0  1.239094  0  1.620099  0  0  0.893247  1.202933  0  1.667646  0
H  H2  1  0.45722672  0.43926843  0.27222970  1  0  0.434098  0  0.869883  0  0  0.394961  0  0.945245  0  0  0.406414  0  0.928442  0  0  0.289676  0.387251  0  0.956514  0
H  H3  1  0.56073251  0.54277334  0.22776939  1  0  0.434062  0  0.869931  0  0  0.39493  0  0.945286  0  0  0.406381  0  0.928485  0  0  0.289665  0.387218  0  0.956557  0
H  H4  1  0.54277439  0.56073160  0.72777032  1  0  0.434069  0  0.869921  0  0  0.394933  0  0.945281  0  0  0.406386  0  0.928477  0  0  0.289666  0.387222  0  0.956552  0
H  H5  1  0.43926756  0.45722669  0.77222987  1  0  0.434082  0  0.869905  0  0  0.394947  0  0.945264  0  0  0.406399  0  0.928463  0  0  0.28967  0.387238  0  0.956534  0
H  H6  1  0.66327572  0.86761458  0.68911997  1  0  0.102402  0  0.936979  0  0  0.111744  0  0.996954  0  0  0.114219  0  0.995694  0  0  0.109394  0.11011  0  0.997576  0
H  H7  1  0.13238431  0.33672416  0.81088033  1  0  0.102393  0  0.936974  0  0  0.111732  0  0.996954  0  0  0.114207  0  0.995694  0  0  0.109394  0.110099  0  0.997577  0
H  H8  1  0.33672466  0.13238437  0.31088024  1  0  0.10242  0  0.936955  0  0  0.111762  0  0.996928  0  0  0.114236  0  0.99567  0  0  0.109397  0.110125  0  0.997544  0
H  H9  1  0.86761504  0.66327480  0.18911913  1  0  0.102402  0  0.936995  0  0  0.111752  0  0.996961  0  0  0.114221  0  0.995707  0  0  0.109392  0.110118  0  0.997582  0
H  H10  1  0.87530338  0.80579837  0.54075839  1  0  0.095247  0  0.994686  0  0  0.098607  0  1.069745  0  0  0.101828  0  1.068142  0  0  0.095186  0.096168  0  1.071268  0
H  H11  1  0.19420112  0.12469870  0.95924168  1  0  0.095243  0  0.994698  0  0  0.098604  0  1.069752  0  0  0.101824  0  1.068149  0  0  0.095187  0.09616  0  1.071268  0
H  H12  1  0.12469670  0.19420166  0.45924174  1  0  0.095249  0  0.99469  0  0  0.09861  0  1.069747  0  0  0.101831  0  1.068143  0  0  0.095182  0.096172  0  1.071264  0
H  H13  1  0.80579833  0.87530349  0.04075828  1  0  0.095245  0  0.994683  0  0  0.098603  0  1.069744  0  0  0.101825  0  1.068139  0  0  0.09518  0.096164  0  1.071263  0
H  H14  1  0.25025519  0.74974346  0.25000011  1  0  0.106017  0  0.928401  0  0  0.117019  0  0.983074  0  0  0.119124  0  0.982841  0  0  0.112805  0.115525  0  0.983311  0
H  H15  1  0.74974282  0.25025658  0.75000024  1  0  0.106004  0  0.928412  0  0  0.117  0  0.983089  0  0  0.119105  0  0.982855  0  0  0.11279  0.115508  0  0.983327  0
H  H16  1  0.05808266  0.77345856  0.41633992  1  0  0.098543  0  0.986808  0  0  0.100338  0  1.064753  0  0  0.10417  0  1.062167  0  0  0.096842  0.097415  0  1.067013  0
H  H17  1  0.22654101  0.94191574  0.08366018  1  0  0.098552  0  0.986801  0  0  0.10035  0  1.064741  0  0  0.104183  0  1.062154  0  0  0.096843  0.09743  0  1.066994  0
H  H18  1  0.94191504  0.22654255  0.58366122  1  0  0.098612  0  0.986782  0  0  0.100417  0  1.064724  0  0  0.104251  0  1.062134  0  0  0.096858  0.097474  0  1.066999  0
H  H19  1  0.77345834  0.05808322  0.91634015  1  0  0.098564  0  0.986819  0  0  0.100398  0  1.064728  0  0  0.10423  0  1.062144  0  0  0.09685  0.097458  0  1.067004  0
H  H20  1  0.47986849  0.11169202  0.66360646  1  0  0.111453  0  0.951484  0  0  0.121244  0  1.008469  0  0  0.123814  0  1.00885  0  0  0.108612  0.119461  0  1.008197  0
H  H21  1  0.88830716  0.52013124  0.83639311  1  0  0.111462  0  0.951481  0  0  0.121253  0  1.008466  0  0  0.123823  0  1.008846  0  0  0.108625  0.119468  0  1.008197  0
H  H22  1  0.52013190  0.88830693  0.33639376  1  0  0.111463  0  0.951476  0  0  0.121252  0  1.008464  0  0  0.123822  0  1.008844  0  0  0.108613  0.119469  0  1.008188  0
H  H23  1  0.11169322  0.47986771  0.16360624  1  0  0.11146  0  0.951476  0  0  0.12125  0  1.008462  0  0  0.12382  0  1.008843  0  0  0.108612  0.119464  0  1.008189  0
H  H24  1  0.51390225  0.27799954  0.48515888  1  0  0.087083  0  0.918406  0  0  0.096401  0  0.976602  0  0  0.099046  0  0.97452  0  0  0.125262  0.094572  0  0.978116  0
H  H25  1  0.72199871  0.48609721  0.01484322  1  0  0.087066  0  0.918405  0  0  0.096388  0  0.9766  0  0  0.099032  0  0.974519  0  0  0.125252  0.09456  0  0.978117  0
H  H26  1  0.48609710  0.72199942  0.51484231  1  0  0.087081  0  0.918396  0  0  0.0964  0  0.976593  0  0  0.099044  0  0.974511  0  0  0.125262  0.094575  0  0.978107  0
H  H27  1  0.27800033  0.51390283  0.98515702  1  0  0.087078  0  0.9184  0  0  0.096401  0  0.976598  0  0  0.099045  0  0.974516  0  0  0.125257  0.094571  0  0.978111  0
Pt  Pt28  1  0.00000043  0.50000030  0.50000080  1  0  0.053414  0  4.103182  0  0  0.089369  0  4.665556  0  0  0.08018  0  4.638673  0  0  0.538822  0.096698  0  4.683299  0
Pt  Pt29  1  0.49999997  0.00000026  0.00000004  1  0  0.053389  0  4.103136  0  0  0.089313  0  4.665545  0  0  0.080136  0  4.638653  0  0  0.538769  0.096641  0  4.683287  0
C  C30  1  0.90501858  0.42885516  0.38940295  1  0  0.117035  0  3.627632  0  0  0.085627  0  3.972988  0  0  0.098082  0  3.979221  0  0  0.006132  0.076997  0  3.96892  0
C  C31  1  0.57114582  0.09498003  0.11059815  1  0  0.117113  0  3.627588  0  0  0.085713  0  3.972944  0  0  0.098165  0  3.979178  0  0  0.006175  0.077081  0  3.968872  0
C  C32  1  0.09498253  0.57114487  0.61059794  1  0  0.117099  0  3.627545  0  0  0.085694  0  3.972897  0  0  0.098148  0  3.979132  0  0  0.006156  0.077058  0  3.968834  0
C  C33  1  0.42885426  0.90502001  0.88940284  1  0  0.117105  0  3.627594  0  0  0.085704  0  3.97295  0  0  0.098157  0  3.979181  0  0  0.00616  0.077067  0  3.96889  0
C  C34  1  0.18175730  0.45960413  0.39474819  1  0  0.071441  0  3.650107  0  0  0.041277  0  3.997847  0  0  0.052026  0  4.007097  0  0  -0.008673  0.033923  0  3.991443  0
C  C35  1  0.54039540  0.81824371  0.10525174  1  0  0.071413  0  3.650074  0  0  0.041259  0  3.997812  0  0  0.052005  0  4.007064  0  0  -0.008664  0.033905  0  3.991415  0
C  C36  1  0.81824454  0.54039698  0.60525163  1  0  0.071398  0  3.650141  0  0  0.041236  0  3.997878  0  0  0.051985  0  4.007131  0  0  -0.008687  0.033881  0  3.991484  0
C  C37  1  0.45960468  0.18175632  0.89474839  1  0  0.071419  0  3.65  0  0  0.041264  0  3.997741  0  0  0.052011  0  4.006991  0  0  -0.008666  0.03391  0  3.991343  0
C  C38  1  0.67574136  0.94511534  0.61450197  1  0  0.002259  0  3.710586  0  0  -0.016558  0  3.96163  0  0  -0.014049  0  3.982148  0  0  -0.063538  -0.018076  0  3.947693  0
C  C39  1  0.05488361  0.32425899  0.88549739  1  0  0.002325  0  3.710446  0  0  -0.016487  0  3.961489  0  0  -0.013978  0  3.982007  0  0  -0.063508  -0.018006  0  3.94755  0
C  C40  1  0.32425799  0.05488361  0.38549836  1  0  0.002257  0  3.710589  0  0  -0.016561  0  3.961633  0  0  -0.014053  0  3.982154  0  0  -0.063541  -0.018073  0  3.947684  0
C  C41  1  0.94511543  0.67574104  0.11450199  1  0  0.00227  0  3.710607  0  0  -0.016556  0  3.961648  0  0  -0.014042  0  3.982171  0  0  -0.063536  -0.018077  0  3.947713  0
C  C42  1  0.80623370  0.00918576  0.43415218  1  0  0.179124  0  3.747222  0  0  0.176584  0  3.98569  0  0  0.182126  0  4.005837  0  0  0.121932  0.172945  0  3.972088  0
C  C43  1  0.99081354  0.19376494  0.06584746  1  0  0.179034  0  3.747185  0  0  0.176495  0  3.98565  0  0  0.182039  0  4.005797  0  0  0.12188  0.172858  0  3.972044  0
C  C44  1  0.19376535  0.99081427  0.56584807  1  0  0.179071  0  3.747249  0  0  0.17656  0  3.98567  0  0  0.182104  0  4.005818  0  0  0.12192  0.172921  0  3.972075  0
C  C45  1  0.00918550  0.80623510  0.93415192  1  0  0.179149  0  3.747206  0  0  0.176611  0  3.985665  0  0  0.182151  0  4.005815  0  0  0.121943  0.172972  0  3.97206  0
C  C46  1  0.79426867  0.91010223  0.53109127  1  0  -0.13648  0  3.700147  0  0  -0.153293  0  3.944941  0  0  -0.160536  0  3.967614  0  0  -0.079876  -0.148586  0  3.930242  0
C  C47  1  0.08989730  0.20573080  0.96890904  1  0  -0.136486  0  3.700152  0  0  -0.153297  0  3.944949  0  0  -0.160543  0  3.967625  0  0  -0.079885  -0.148588  0  3.930237  0
C  C48  1  0.20573037  0.08989780  0.46890898  1  0  -0.136455  0  3.700213  0  0  -0.153279  0  3.944999  0  0  -0.160525  0  3.967673  0  0  -0.079851  -0.14858  0  3.9303  0
C  C49  1  0.91010205  0.79426815  0.03109129  1  0  -0.136482  0  3.700147  0  0  -0.153301  0  3.944956  0  0  -0.160544  0  3.967628  0  0  -0.079864  -0.148596  0  3.930256  0
C  C50  1  0.92830180  0.98007226  0.34062836  1  0  0.204017  0  3.750625  0  0  0.201985  0  3.98904  0  0  0.208915  0  4.007699  0  0  0.130956  0.197499  0  3.975987  0
C  C51  1  0.01992792  0.07169719  0.15937265  1  0  0.204054  0  3.750597  0  0  0.202027  0  3.989005  0  0  0.208959  0  4.007663  0  0  0.130962  0.197543  0  3.975948  0
C  C52  1  0.07169693  0.01992885  0.65937180  1  0  0.204073  0  3.750582  0  0  0.202046  0  3.988971  0  0  0.208978  0  4.007631  0  0  0.13097  0.197562  0  3.975916  0
C  C53  1  0.98007216  0.92830285  0.84062748  1  0  0.204058  0  3.75059  0  0  0.202037  0  3.988999  0  0  0.208969  0  4.007658  0  0  0.13098  0.197556  0  3.975935  0
C  C54  1  0.15583949  0.84415962  0.25000004  1  0  0.01207  0  3.705145  0  0  -0.004436  0  3.953315  0  0  -0.001582  0  3.974284  0  0  -0.061458  -0.006248  0  3.939092  0
C  C55  1  0.84415851  0.15584041  0.75000032  1  0  0.01212  0  3.705139  0  0  -0.004363  0  3.953283  0  0  -0.001507  0  3.974253  0  0  -0.061414  -0.006176  0  3.939059  0
C  C56  1  0.04821877  0.85730633  0.34335575  1  0  -0.132356  0  3.677475  0  0  -0.153986  0  3.931095  0  0  -0.160893  0  3.951887  0  0  -0.076943  -0.149066  0  3.916886  0
C  C57  1  0.14269396  0.95177989  0.15664421  1  0  -0.132389  0  3.677463  0  0  -0.154024  0  3.931088  0  0  -0.160934  0  3.951879  0  0  -0.076953  -0.149104  0  3.91687  0
C  C58  1  0.95177966  0.14269586  0.65664346  1  0  -0.13249  0  3.677499  0  0  -0.154146  0  3.931104  0  0  -0.161058  0  3.951894  0  0  -0.077  -0.149208  0  3.916914  0
C  C59  1  0.85730477  0.04822122  0.84335595  1  0  -0.132429  0  3.67752  0  0  -0.154107  0  3.931128  0  0  -0.161018  0  3.951917  0  0  -0.076981  -0.149172  0  3.916939  0
C  C60  1  0.57314086  0.07919683  0.59998424  1  0  -0.10839  0  3.71184  0  0  -0.124021  0  3.965573  0  0  -0.130711  0  3.98831  0  0  -0.077158  -0.119461  0  3.950456  0
C  C61  1  0.92080104  0.42685954  0.90001630  1  0  -0.108388  0  3.711809  0  0  -0.124023  0  3.96555  0  0  -0.130712  0  3.988287  0  0  -0.077157  -0.119461  0  3.950435  0
C  C62  1  0.42685849  0.92080212  0.40001695  1  0  -0.108419  0  3.711849  0  0  -0.12405  0  3.965588  0  0  -0.130737  0  3.988323  0  0  -0.077168  -0.119486  0  3.950466  0
C  C63  1  0.07919770  0.57314157  0.09998300  1  0  -0.108402  0  3.711846  0  0  -0.124023  0  3.965585  0  0  -0.130713  0  3.988321  0  0  -0.077159  -0.119463  0  3.950467  0
C  C64  1  0.59226868  0.17251255  0.50108507  1  0  0.149995  0  3.696674  0  0  0.120978  0  3.951183  0  0  0.127148  0  3.968082  0  0  0.061488  0.116889  0  3.940118  0
C  C65  1  0.82748686  0.40773027  0.99891545  1  0  0.150018  0  3.696679  0  0  0.120995  0  3.951194  0  0  0.127164  0  3.968092  0  0  0.061496  0.116906  0  3.940134  0
C  C66  1  0.40773036  0.82748749  0.49891518  1  0  0.15  0  3.696692  0  0  0.120985  0  3.9512  0  0  0.127153  0  3.968098  0  0  0.061484  0.116886  0  3.940145  0
C  C67  1  0.17251218  0.59226976  0.00108393  1  0  0.150012  0  3.69669  0  0  0.120978  0  3.951215  0  0  0.127148  0  3.968114  0  0  0.06149  0.116887  0  3.940149  0
N  N68  1  0.84850735  0.38173174  0.32742270  1  0  -0.492329  0  2.940817  0  0  -0.441527  0  3.207284  0  0  -0.456022  0  3.21861  0  0  -0.393611  -0.431884  0  3.199801  0
N  N69  1  0.61826868  0.15149300  0.17257741  1  0  -0.492372  0  2.940814  0  0  -0.441565  0  3.207265  0  0  -0.45606  0  3.218592  0  0  -0.393623  -0.431924  0  3.199778  0
N  N70  1  0.15149272  0.61826829  0.67257830  1  0  -0.492355  0  2.940776  0  0  -0.441554  0  3.207243  0  0  -0.456048  0  3.218568  0  0  -0.393607  -0.431908  0  3.199757  0
N  N71  1  0.38173274  0.84850596  0.82742270  1  0  -0.492354  0  2.940783  0  0  -0.441553  0  3.207248  0  0  -0.456049  0  3.218572  0  0  -0.393606  -0.431908  0  3.199761  0
N  N72  1  0.28844341  0.43618797  0.33150103  1  0  -0.434564  0  2.83633  0  0  -0.380634  0  3.082798  0  0  -0.39636  0  3.093914  0  0  -0.345542  -0.370167  0  3.07515  0
N  N73  1  0.56381221  0.71155735  0.16849976  1  0  -0.434533  0  2.836283  0  0  -0.380606  0  3.082742  0  0  -0.396331  0  3.093861  0  0  -0.34554  -0.37014  0  3.075099  0
N  N74  1  0.71155738  0.56381314  0.66849978  1  0  -0.434503  0  2.836286  0  0  -0.380574  0  3.082746  0  0  -0.3963  0  3.093864  0  0  -0.345514  -0.370106  0  3.075101  0
N  N75  1  0.43618890  0.28844269  0.83150026  1  0  -0.434543  0  2.836214  0  0  -0.380618  0  3.08268  0  0  -0.396344  0  3.093797  0  0  -0.345544  -0.370153  0  3.075037  0
N  N76  1  0.91722331  0.08277725  0.25000008  1  0  -0.450421  0  3.28824  0  0  -0.400318  0  3.52783  0  0  -0.413603  0  3.543589  0  0  -0.359641  -0.3914  0  3.517295  0
N  N77  1  0.08277646  0.91722386  0.74999997  1  0  -0.450412  0  3.288247  0  0  -0.400319  0  3.527835  0  0  -0.413603  0  3.543594  0  0  -0.359633  -0.391398  0  3.517298  0
N  N78  1  0.70492897  0.13874896  0.41949840  1  0  -0.411087  0  3.217641  0  0  -0.35468  0  3.464359  0  0  -0.36774  0  3.480854  0  0  -0.343475  -0.345987  0  3.453646  0
N  N79  1  0.86125033  0.29507050  0.08050195  1  0  -0.411068  0  3.217602  0  0  -0.35466  0  3.46432  0  0  -0.367722  0  3.480813  0  0  -0.343452  -0.345974  0  3.453617  0
N  N80  1  0.29507110  0.86125108  0.58050174  1  0  -0.411073  0  3.217664  0  0  -0.354678  0  3.464375  0  0  -0.367739  0  3.480869  0  0  -0.343478  -0.345986  0  3.453669  0
N  N81  1  0.13874871  0.70492953  0.91949829  1  0  -0.411124  0  3.217718  0  0  -0.354715  0  3.46445  0  0  -0.367775  0  3.480945  0  0  -0.343498  -0.346027  0  3.45374  0
O  O82  1  0.55924611  0.44075550  0.24999901  1  0  -0.93159  0  1.858661  0  0  -0.869391  0  2.050495  0  0  -0.886203  0  2.014374  0  0  -0.637131  -0.85754  0  2.07423  0
O  O83  1  0.44075469  0.55924561  0.75000006  1  0  -0.931578  0  1.858663  0  0  -0.869372  0  2.050496  0  0  -0.886186  0  2.014372  0  0  -0.63712  -0.857525  0  2.074229  0
