# generated using pymatgen
data_GdPH12C13NO11
_symmetry_space_group_name_H-M   'P 1'
_cell_length_a   7.30173874
_cell_length_b   9.58421351
_cell_length_c   12.31397055
_cell_angle_alpha   68.73621987
_cell_angle_beta   91.91049575
_cell_angle_gamma   89.20585479
_symmetry_Int_Tables_number   1
_chemical_formula_structural   GdPH12C13NO11
_chemical_formula_sum   'Gd2 P2 H24 C26 N2 O22'
_cell_volume   802.32387144
_cell_formula_units_Z   2
loop_
 _symmetry_equiv_pos_site_id
 _symmetry_equiv_pos_as_xyz
  1  'x, y, z'
loop_
 _atom_site_type_symbol
 _atom_site_label
 _atom_site_symmetry_multiplicity
 _atom_site_fract_x
 _atom_site_fract_y
 _atom_site_fract_z
 _atom_site_occupancy
 _atom_site_hle17_bader_spin_density
 _atom_site_hle17_ddec_charge
 _atom_site_hle17_ddec_spin_density
 _atom_site_hle17_ddec_sum_bond_order
 _atom_site_hle17_magmom
 _atom_site_hse06_10hf_bader_spin_density
 _atom_site_hse06_10hf_ddec_charge
 _atom_site_hse06_10hf_ddec_spin_density
 _atom_site_hse06_10hf_ddec_sum_bond_order
 _atom_site_hse06_10hf_magmom
 _atom_site_hse06_bader_spin_density
 _atom_site_hse06_ddec_charge
 _atom_site_hse06_ddec_spin_density
 _atom_site_hse06_ddec_sum_bond_order
 _atom_site_hse06_magmom
 _atom_site_pbe_bader_spin_density
 _atom_site_pbe_cm5_charge
 _atom_site_pbe_ddec_charge
 _atom_site_pbe_ddec_spin_density
 _atom_site_pbe_ddec_sum_bond_order
 _atom_site_pbe_magmom
Gd  Gd0  1  0.74648387  0.69997325  0.59294234  1  0  2.15761  0  1.75599  0  0  2.067057  0  2.106806  0  0  2.11992  0  2.053347  0  0  1.451176  2.025629  0  2.149913  0
Gd  Gd1  1  0.25353295  0.30004068  0.40706237  1  0  2.157565  0  1.755796  0  0  2.066791  0  2.106873  0  0  2.119881  0  2.053076  0  0  1.451185  2.025362  0  2.14999  0
P  P2  1  0.71448025  0.48038136  0.89541648  1  0  1.553849  0  4.704126  0  0  1.398978  0  5.215029  0  0  1.447386  0  5.176129  0  0  0.37079  1.36479  0  5.241942  0
P  P3  1  0.28552486  0.51961380  0.10458461  1  0  1.553717  0  4.704285  0  0  1.398833  0  5.215218  0  0  1.447228  0  5.176333  0  0  0.370732  1.364651  0  5.242124  0
H  H4  1  0.12306626  0.72966494  0.65871981  1  0  0.456678  0  0.792575  0  0  0.436518  0  0.849051  0  0  0.445654  0  0.835654  0  0  0.334414  0.429886  0  0.857464  0
H  H5  1  0.87695149  0.27033999  0.34128183  1  0  0.456355  0  0.79302  0  0  0.436235  0  0.849416  0  0  0.445372  0  0.83602  0  0  0.334309  0.429607  0  0.85779  0
H  H6  1  0.10457659  0.90116096  0.58681302  1  0  0.451994  0  0.83661  0  0  0.424768  0  0.891805  0  0  0.436014  0  0.875448  0  0  0.307288  0.416773  0  0.903423  0
H  H7  1  0.89544770  0.09884543  0.41318339  1  0  0.45208  0  0.836485  0  0  0.424802  0  0.891782  0  0  0.436057  0  0.875409  0  0  0.307297  0.416805  0  0.903404  0
H  H8  1  0.64062908  0.52913001  0.05261293  1  0  0.433244  0  0.876615  0  0  0.397253  0  0.948007  0  0  0.40907  0  0.930967  0  0  0.304872  0.38916  0  0.959639  0
H  H9  1  0.35936917  0.47087482  0.94737962  1  0  0.433263  0  0.876589  0  0  0.397291  0  0.947955  0  0  0.409107  0  0.930918  0  0  0.304887  0.389198  0  0.959588  0
H  H10  1  0.77513985  0.72631329  0.29153909  1  0  0.395818  0  0.886249  0  0  0.37042  0  0.955637  0  0  0.381708  0  0.943567  0  0  0.307873  0.362377  0  0.964192  0
H  H11  1  0.22484358  0.27367830  0.70845877  1  0  0.39582  0  0.886185  0  0  0.370437  0  0.955538  0  0  0.381755  0  0.943408  0  0  0.307879  0.362397  0  0.96409  0
H  H12  1  0.58370296  0.74350804  0.04167581  1  0  0.329526  0  0.901772  0  0  0.300925  0  0.974366  0  0  0.310657  0  0.966353  0  0  0.317148  0.294001  0  0.980139  0
H  H13  1  0.41628830  0.25648858  0.95832716  1  0  0.329486  0  0.901938  0  0  0.300885  0  0.974499  0  0  0.310616  0  0.966489  0  0  0.317151  0.293962  0  0.98027  0
H  H14  1  0.51292105  0.79267346  0.84641533  1  0  0.107681  0  0.919422  0  0  0.116217  0  0.980288  0  0  0.119588  0  0.976188  0  0  0.137847  0.113694  0  0.983464  0
H  H15  1  0.48707730  0.20732133  0.15358825  1  0  0.107658  0  0.919299  0  0  0.116179  0  0.980204  0  0  0.11955  0  0.976104  0  0  0.137807  0.113657  0  0.983381  0
H  H16  1  0.58376460  0.04656488  0.69624139  1  0  0.115823  0  0.965724  0  0  0.123123  0  1.027164  0  0  0.126366  0  1.02625  0  0  0.113034  0.120865  0  1.027859  0
H  H17  1  0.41623093  0.95342971  0.30375896  1  0  0.115859  0  0.965662  0  0  0.12312  0  1.027155  0  0  0.126364  0  1.026237  0  0  0.113038  0.120861  0  1.027851  0
H  H18  1  0.73074597  0.23292787  0.75954095  1  0  0.122623  0  0.953827  0  0  0.131741  0  1.012864  0  0  0.135697  0  1.008736  0  0  0.117117  0.12889  0  1.015771  0
H  H19  1  0.26924725  0.76706321  0.24046040  1  0  0.122673  0  0.953671  0  0  0.131735  0  1.012754  0  0  0.135686  0  1.008631  0  0  0.117144  0.128886  0  1.015654  0
H  H20  1  0.96698074  0.21719916  0.13851195  1  0  0.115034  0  0.936169  0  0  0.125428  0  0.995608  0  0  0.128656  0  0.994088  0  0  0.109132  0.122907  0  0.997517  0
H  H21  1  0.03302632  0.78279163  0.86149205  1  0  0.114976  0  0.936267  0  0  0.125364  0  0.995692  0  0  0.128588  0  0.99418  0  0  0.109113  0.122842  0  0.9976  0
H  H22  1  0.89288467  0.96483820  0.27453707  1  0  0.119217  0  0.949758  0  0  0.129839  0  1.009068  0  0  0.133449  0  1.007213  0  0  0.109819  0.127183  0  1.010526  0
H  H23  1  0.10711729  0.03514772  0.72546179  1  0  0.119139  0  0.949725  0  0  0.12979  0  1.009028  0  0  0.133373  0  1.007205  0  0  0.109758  0.12713  0  1.010484  0
H  H24  1  0.91604682  0.34923154  0.81506667  1  0  0.150511  0  0.965738  0  0  0.157041  0  1.031865  0  0  0.160514  0  1.029915  0  0  0.111387  0.154432  0  1.033494  0
H  H25  1  0.08395164  0.65076094  0.18493188  1  0  0.150444  0  0.965673  0  0  0.15698  0  1.031822  0  0  0.160451  0  1.029872  0  0  0.111345  0.154375  0  1.033448  0
H  H26  1  0.01721236  0.38508669  0.93366181  1  0  0.171876  0  0.945806  0  0  0.18324  0  0.999335  0  0  0.187019  0  0.997347  0  0  0.116334  0.180934  0  1.000186  0
H  H27  1  0.98278808  0.61491269  0.06633721  1  0  0.171865  0  0.94586  0  0  0.18326  0  0.999351  0  0  0.18704  0  0.99736  0  0  0.116326  0.18095  0  1.000212  0
C  C28  1  0.58459363  0.87758225  0.86917626  1  0  0.176291  0  3.607736  0  0  0.1288  0  3.871878  0  0  0.14237  0  3.88327  0  0  0.082396  0.120297  0  3.864686  0
C  C29  1  0.41539456  0.12241641  0.13082366  1  0  0.176248  0  3.607958  0  0  0.128768  0  3.872075  0  0  0.142334  0  3.883469  0  0  0.082295  0.120266  0  3.864879  0
C  C30  1  0.62564472  0.01717998  0.78730165  1  0  -0.124822  0  3.711631  0  0  -0.13835  0  3.975237  0  0  -0.14703  0  3.993297  0  0  -0.077557  -0.132252  0  3.962482  0
C  C31  1  0.37434039  0.98282190  0.21269894  1  0  -0.124754  0  3.711619  0  0  -0.138277  0  3.975201  0  0  -0.146956  0  3.99326  0  0  -0.077483  -0.132178  0  3.962444  0
C  C32  1  0.71015393  0.12151233  0.82365056  1  0  0.013101  0  3.604837  0  0  -0.019177  0  3.861035  0  0  -0.010865  0  3.87179  0  0  -0.045091  -0.024016  0  3.852614  0
C  C33  1  0.28984388  0.87848575  0.17634719  1  0  0.012936  0  3.604732  0  0  -0.019209  0  3.860882  0  0  -0.010892  0  3.871636  0  0  -0.045092  -0.024044  0  3.852458  0
C  C34  1  0.76287680  0.08670192  0.94245573  1  0  -0.033507  0  3.771223  0  0  -0.020396  0  4.006123  0  0  -0.024669  0  4.031036  0  0  -0.000953  -0.016507  0  3.988061  0
C  C35  1  0.23712422  0.91330425  0.05754215  1  0  -0.033292  0  3.771156  0  0  -0.020299  0  4.006201  0  0  -0.024566  0  4.031103  0  0  -0.000945  -0.016413  0  3.98814  0
C  C36  1  0.85277417  0.18864216  0.98540522  1  0  0.097426  0  3.765602  0  0  0.099762  0  4.018697  0  0  0.100381  0  4.044741  0  0  -0.013483  0.100074  0  4.000757  0
C  C37  1  0.14722896  0.81135853  0.01459669  1  0  0.097414  0  3.765429  0  0  0.099791  0  4.018569  0  0  0.100407  0  4.044616  0  0  -0.013439  0.100105  0  4.000627  0
C  C38  1  0.89702156  0.14127345  0.10399659  1  0  -0.093571  0  3.729805  0  0  -0.119634  0  3.997401  0  0  -0.121811  0  4.019112  0  0  -0.087695  -0.120273  0  3.985006  0
C  C39  1  0.10297736  0.85871570  0.89600456  1  0  -0.093539  0  3.729947  0  0  -0.119597  0  3.997555  0  0  -0.121773  0  4.019259  0  0  -0.087724  -0.120237  0  3.985156  0
C  C40  1  0.85589817  0.99754573  0.18207018  1  0  -0.19393  0  3.758725  0  0  -0.219932  0  4.025418  0  0  -0.225639  0  4.046809  0  0  -0.104914  -0.215688  0  4.011964  0
C  C41  1  0.14409037  0.00245074  0.81793282  1  0  -0.193825  0  3.758752  0  0  -0.219843  0  4.025457  0  0  -0.225528  0  4.046858  0  0  -0.104848  -0.215588  0  4.011988  0
C  C42  1  0.76807834  0.89565657  0.14302330  1  0  0.25426  0  3.856058  0  0  0.239786  0  4.126954  0  0  0.248662  0  4.144831  0  0  0.08681  0.232846  0  4.115791  0
C  C43  1  0.23191477  0.10434455  0.85696702  1  0  0.254328  0  3.855771  0  0  0.239804  0  4.126741  0  0  0.248685  0  4.144618  0  0  0.086811  0.232863  0  4.115574  0
C  C44  1  0.72083476  0.94159398  0.02193786  1  0  0.105092  0  3.712761  0  0  0.092748  0  3.950287  0  0  0.096098  0  3.973019  0  0  0.112134  0.089978  0  3.935448  0
C  C45  1  0.27916860  0.05840445  0.97806309  1  0  0.105151  0  3.712638  0  0  0.092782  0  3.950277  0  0  0.096127  0  3.973016  0  0  0.112169  0.090011  0  3.935436  0
C  C46  1  0.89317317  0.34308443  0.90409619  1  0  -0.510508  0  3.697057  0  0  -0.527896  0  3.935438  0  0  -0.538247  0  3.942469  0  0  -0.169791  -0.520409  0  3.93036  0
C  C47  1  0.10682818  0.65690711  0.09590347  1  0  -0.510506  0  3.697022  0  0  -0.527913  0  3.93538  0  0  -0.538255  0  3.9424  0  0  -0.169768  -0.520429  0  3.9303  0
C  C48  1  0.54348272  0.42909119  0.54790458  1  0  0.566259  0  3.916019  0  0  0.524027  0  4.218259  0  0  0.554493  0  4.208936  0  0  0.216413  0.503231  0  4.223578  0
C  C49  1  0.45652437  0.57091086  0.45209698  1  0  0.566349  0  3.916366  0  0  0.524047  0  4.21865  0  0  0.554525  0  4.20931  0  0  0.216443  0.503215  0  4.224016  0
C  C50  1  0.95927632  0.54038359  0.43749132  1  0  0.567578  0  3.909405  0  0  0.520638  0  4.214797  0  0  0.550299  0  4.206632  0  0  0.222959  0.500322  0  4.219811  0
C  C51  1  0.04071130  0.45961837  0.56250196  1  0  0.567798  0  3.908896  0  0  0.52046  0  4.214739  0  0  0.550126  0  4.206578  0  0  0.222786  0.50014  0  4.219753  0
C  C52  1  0.57481622  0.03996271  0.45680840  1  0  0.560861  0  3.912377  0  0  0.515609  0  4.220144  0  0  0.545578  0  4.211095  0  0  0.223546  0.495177  0  4.225428  0
C  C53  1  0.42517463  0.96003609  0.54318907  1  0  0.560973  0  3.912326  0  0  0.515712  0  4.220083  0  0  0.545696  0  4.211016  0  0  0.223544  0.495259  0  4.225389  0
N  N54  1  0.63028168  0.84487524  0.98156578  1  0  -0.248602  0  3.455031  0  0  -0.179305  0  3.682105  0  0  -0.195383  0  3.697955  0  0  -0.33844  -0.16934  0  3.672227  0
N  N55  1  0.36971096  0.15512030  0.01843347  1  0  -0.248672  0  3.45567  0  0  -0.179335  0  3.682714  0  0  -0.195408  0  3.698569  0  0  -0.33841  -0.169374  0  3.67285  0
O  O56  1  0.74679375  0.62062075  0.78760796  1  0  -0.949378  0  1.949856  0  0  -0.888629  0  2.231182  0  0  -0.915474  0  2.210273  0  0  -0.494332  -0.868319  0  2.245326  0
O  O57  1  0.25321146  0.37938335  0.21238486  1  0  -0.949373  0  1.950014  0  0  -0.888587  0  2.231384  0  0  -0.915479  0  2.210467  0  0  -0.494268  -0.868275  0  2.245526  0
O  O58  1  0.03151539  0.80992996  0.62292768  1  0  -0.89523  0  1.820734  0  0  -0.856452  0  2.005695  0  0  -0.874973  0  1.97282  0  0  -0.627654  -0.842991  0  2.02807  0
O  O59  1  0.96849985  0.19007607  0.37708580  1  0  -0.894879  0  1.821051  0  0  -0.856051  0  2.006041  0  0  -0.874613  0  1.973143  0  0  -0.627494  -0.842587  0  2.028393  0
O  O60  1  0.75533606  0.51365257  0.01106408  1  0  -0.759185  0  2.001222  0  0  -0.683184  0  2.223158  0  0  -0.704681  0  2.199361  0  0  -0.387193  -0.667722  0  2.239858  0
O  O61  1  0.24467063  0.48635049  0.98892825  1  0  -0.759186  0  2.001221  0  0  -0.683154  0  2.223065  0  0  -0.704628  0  2.199254  0  0  -0.387198  -0.667692  0  2.239764  0
O  O62  1  0.52193626  0.41991884  0.89671342  1  0  -0.854307  0  1.975636  0  0  -0.77618  0  2.219914  0  0  -0.800572  0  2.200083  0  0  -0.365477  -0.758898  0  2.233345  0
O  O63  1  0.47806248  0.58008266  0.10328253  1  0  -0.854223  0  1.975695  0  0  -0.776104  0  2.220008  0  0  -0.800489  0  2.200177  0  0  -0.365449  -0.75882  0  2.233435  0
O  O64  1  0.72202010  0.75680732  0.20916844  1  0  -0.481254  0  2.146745  0  0  -0.430517  0  2.360988  0  0  -0.450214  0  2.35376  0  0  -0.339034  -0.41689  0  2.36572  0
O  O65  1  0.27797515  0.24318832  0.79082674  1  0  -0.481241  0  2.14675  0  0  -0.430446  0  2.360918  0  0  -0.450159  0  2.353649  0  0  -0.338931  -0.41682  0  2.365648  0
O  O66  1  0.65223515  0.45192736  0.62184373  1  0  -0.654458  0  2.080453  0  0  -0.612892  0  2.320463  0  0  -0.637833  0  2.312161  0  0  -0.365839  -0.594744  0  2.325611  0
O  O67  1  0.34781237  0.54807266  0.37817017  1  0  -0.654287  0  2.080984  0  0  -0.61263  0  2.320983  0  0  -0.637601  0  2.312667  0  0  -0.365822  -0.594492  0  2.326183  0
O  O68  1  0.50025686  0.30373544  0.54390457  1  0  -0.646168  0  2.048253  0  0  -0.608136  0  2.28816  0  0  -0.632459  0  2.280764  0  0  -0.361708  -0.59049  0  2.292586  0
O  O69  1  0.49975387  0.69627136  0.45609890  1  0  -0.646222  0  2.047947  0  0  -0.608208  0  2.287874  0  0  -0.632507  0  2.28048  0  0  -0.361695  -0.590549  0  2.292317  0
O  O70  1  0.86938269  0.66247451  0.42127712  1  0  -0.67149  0  2.101975  0  0  -0.624229  0  2.33634  0  0  -0.650046  0  2.328093  0  0  -0.34958  -0.605924  0  2.341687  0
O  O71  1  0.13058722  0.33754001  0.57872211  1  0  -0.671411  0  2.102207  0  0  -0.624016  0  2.336755  0  0  -0.649875  0  2.328492  0  0  -0.34946  -0.605715  0  2.342103  0
O  O72  1  0.98551331  0.48175606  0.36311711  1  0  -0.613034  0  2.043308  0  0  -0.571745  0  2.276359  0  0  -0.594416  0  2.267625  0  0  -0.332988  -0.555802  0  2.282157  0
O  O73  1  0.01447121  0.51826504  0.63689011  1  0  -0.613224  0  2.042622  0  0  -0.57186  0  2.275875  0  0  -0.594515  0  2.267147  0  0  -0.333008  -0.555907  0  2.281662  0
O  O74  1  0.72772676  0.96737957  0.46991180  1  0  -0.671115  0  2.035189  0  0  -0.622206  0  2.266449  0  0  -0.647746  0  2.256318  0  0  -0.353375  -0.60401  0  2.273183  0
O  O75  1  0.27227572  0.03261430  0.53008883  1  0  -0.671064  0  2.03539  0  0  -0.622134  0  2.266643  0  0  -0.647708  0  2.256501  0  0  -0.353343  -0.603932  0  2.273382  0
O  O76  1  0.53499741  0.16735712  0.38195551  1  0  -0.622059  0  2.014398  0  0  -0.585186  0  2.248808  0  0  -0.607737  0  2.23958  0  0  -0.337515  -0.569289  0  2.255434  0
O  O77  1  0.46499645  0.83264078  0.61804713  1  0  -0.622135  0  2.014201  0  0  -0.585277  0  2.248588  0  0  -0.607798  0  2.239356  0  0  -0.337514  -0.569373  0  2.255221  0
