# generated using pymatgen
data_Zn2H29C42(NO)8
_symmetry_space_group_name_H-M   'P 1'
_cell_length_a   16.56256739
_cell_length_b   17.94586428
_cell_length_c   31.13382716
_cell_angle_alpha   90.28302919
_cell_angle_beta   89.83597956
_cell_angle_gamma   89.95428817
_symmetry_Int_Tables_number   1
_chemical_formula_structural   Zn2H29C42(NO)8
_chemical_formula_sum   'Zn4 H58 C84 N16 O16'
_cell_volume   9253.74069639
_cell_formula_units_Z   2
loop_
 _symmetry_equiv_pos_site_id
 _symmetry_equiv_pos_as_xyz
  1  'x, y, z'
loop_
 _atom_site_type_symbol
 _atom_site_label
 _atom_site_symmetry_multiplicity
 _atom_site_fract_x
 _atom_site_fract_y
 _atom_site_fract_z
 _atom_site_occupancy
 _atom_site_pbe_bader_charge
 _atom_site_pbe_bader_spin_density
 _atom_site_pbe_cm5_charge
 _atom_site_pbe_ddec_charge
 _atom_site_pbe_ddec_spin_density
 _atom_site_pbe_ddec_sum_bond_order
 _atom_site_pbe_magmom
Zn  Zn0  1  0.58040337  0.50121047  0.50399166  1  1.27698  0  0.666056  0.825109  0  2.383309  0
Zn  Zn1  1  0.41080253  0.49404733  0.50190369  1  1.284488  0  0.667302  0.817769  0  2.441273  0
Zn  Zn2  1  0.41955556  0.50341894  0.92498332  1  1.275568  0  0.666077  0.825024  0  2.384086  0
Zn  Zn3  1  0.58925079  0.49632679  0.92700786  1  1.284905  0  0.66762  0.818154  0  2.442209  0
H  H4  1  0.28609518  0.57335705  0.54491938  1  0.135116  0  0.126407  0.1039  0  0.984364  0
H  H5  1  0.13514534  0.58320984  0.54919308  1  0.087609  0  0.1102  0.125438  0  0.995388  0
H  H6  1  0.12312895  0.40324705  0.45634693  1  0.064686  0  0.112147  0.132872  0  0.986263  0
H  H7  1  0.86601369  0.59258441  0.55136366  1  0.08421  0  0.111482  0.130687  0  0.989212  0
H  H8  1  0.70657545  0.42857773  0.45734232  1  0.112904  0  0.126737  0.101958  0  0.979021  0
H  H9  1  0.85756745  0.41858289  0.45471944  1  0.089715  0  0.109782  0.124721  0  0.99692  0
H  H10  1  0.61636231  0.73450325  0.50239814  1  0.080161  0  0.099144  0.100278  0  1.014706  0
H  H11  1  0.62233956  0.87335021  0.50302247  1  0.056929  0  0.097228  0.103761  0  1.007503  0
H  H12  1  0.36214219  0.88033652  0.49908089  1  0.063162  0  0.101125  0.113025  0  0.999864  0
H  H13  1  0.63330331  0.11442712  0.49932156  1  0.047838  0  0.100288  0.11211  0  1.000686  0
H  H14  1  0.38277740  0.26554400  0.50488633  1  0.127852  0  0.099437  0.10558  0  1.013763  0
H  H15  1  0.37326269  0.12650984  0.50324500  1  0.053881  0  0.096969  0.103444  0  1.008232  0
H  H16  1  0.39655861  0.50505281  0.78624747  1  0.06636  0  0.096783  0.100022  0  1.042593  0
H  H17  1  0.65363434  0.50186075  0.79636186  1  0.054674  0  0.09827  0.113261  0  1.015661  0
H  H18  1  0.60323079  0.50459733  0.64274216  1  0.061646  0  0.096984  0.100363  0  1.041852  0
H  H19  1  0.34615248  0.50134604  0.63260707  1  0.049548  0  0.098299  0.113382  0  1.016635  0
H  H20  1  0.37709182  0.50170281  0.06204457  1  0.105496  0  0.103335  0.107998  0  1.00051  0
H  H21  1  0.36997549  0.50934654  0.14215964  1  0.061443  0  0.098497  0.105063  0  1.004693  0
H  H22  1  0.63013254  0.51314071  0.14634627  1  0.087427  0  0.101533  0.113189  0  0.998796  0
H  H23  1  0.36968944  0.51138459  0.28274431  1  0.086117  0  0.101583  0.113094  0  0.99823  0
H  H24  1  0.62292324  0.49943562  0.36681981  1  0.060419  0  0.103218  0.108243  0  1.000246  0
H  H25  1  0.62987933  0.50832074  0.28679348  1  0.062236  0  0.098638  0.105045  0  1.004983  0
H  H26  1  0.71380619  0.57501235  0.88413512  1  0.11504  0  0.126372  0.10343  0  0.984631  0
H  H27  1  0.86472918  0.58475925  0.87983594  1  0.099903  0  0.110154  0.125071  0  0.996174  0
H  H28  1  0.87709968  0.40574888  0.97227215  1  0.065121  0  0.112375  0.13247  0  0.986793  0
H  H29  1  0.13394102  0.59412614  0.87751192  1  0.090167  0  0.111617  0.131178  0  0.988784  0
H  H30  1  0.29335863  0.43127458  0.97141692  1  0.111791  0  0.126813  0.101976  0  0.979321  0
H  H31  1  0.14236189  0.42128175  0.97386291  1  0.086644  0  0.109811  0.124801  0  0.996511  0
H  H32  1  0.38357721  0.73692273  0.92571981  1  0.084477  0  0.099361  0.100585  0  1.015153  0
H  H33  1  0.37761227  0.87574491  0.92429370  1  0.063965  0  0.097343  0.103699  0  1.006752  0
H  H34  1  0.63784101  0.88243839  0.92769478  1  0.04589  0  0.101378  0.113617  0  0.99975  0
H  H35  1  0.36701224  0.11675180  0.92801726  1  0.05482  0  0.100287  0.111954  0  1.00144  0
H  H36  1  0.61734429  0.26778133  0.92333703  1  0.096209  0  0.099671  0.106135  0  1.013137  0
H  H37  1  0.62703505  0.12872499  0.92407163  1  0.088706  0  0.096809  0.103114  0  1.008582  0
H  H38  1  0.34376580  0.39790867  0.44564804  1  0.490088  0  0.315697  0.333353  0  0.949061  0
H  H39  1  0.25292196  0.36145778  0.42804374  1  0.448543  0  0.325441  0.321326  0  0.914462  0
H  H40  1  0.64592912  0.61785834  0.54672198  1  0.516258  0  0.309672  0.332668  0  0.967189  0
H  H41  1  0.73574637  0.64579013  0.57134375  1  0.458751  0  0.324844  0.319922  0  0.91803  0
H  H42  1  0.34161154  0.67982254  0.49047955  1  0.471308  0  0.292053  0.302638  0  1.009607  0
H  H43  1  0.29142984  0.76575229  0.48971592  1  0.429447  0  0.306379  0.299812  0  0.946741  0
H  H44  1  0.66015965  0.31495804  0.50313612  1  0.492404  0  0.292447  0.302819  0  1.012179  0
H  H45  1  0.70793278  0.22763512  0.50520091  1  0.437999  0  0.306262  0.299845  0  0.947908  0
H  H46  1  0.65498977  0.50654490  0.03133546  1  0.497008  0  0.292582  0.2999  0  1.009135  0
H  H47  1  0.70105994  0.52317268  0.08073677  1  0.416436  0  0.304851  0.29799  0  0.948416  0
H  H48  1  0.34513087  0.50274435  0.39769174  1  0.502514  0  0.29208  0.302743  0  1.006157  0
H  H49  1  0.29880473  0.51997337  0.34851808  1  0.418162  0  0.304646  0.297583  0  0.948217  0
H  H50  1  0.65646448  0.40084366  0.98310356  1  0.482884  0  0.315936  0.333432  0  0.949242  0
H  H51  1  0.74731711  0.36452787  0.00064583  1  0.460058  0  0.325247  0.321018  0  0.915115  0
H  H52  1  0.35399750  0.61941774  0.88237003  1  0.516903  0  0.309396  0.332522  0  0.968083  0
H  H53  1  0.26419713  0.64703970  0.85770112  1  0.447984  0  0.324928  0.320179  0  0.918113  0
H  H54  1  0.65840508  0.68229188  0.93767073  1  0.508459  0  0.292084  0.302361  0  1.010256  0
H  H55  1  0.70854049  0.76816409  0.93780546  1  0.427228  0  0.306107  0.298896  0  0.947564  0
H  H56  1  0.33994745  0.31732465  0.92561585  1  0.514402  0  0.292082  0.302372  0  1.013025  0
H  H57  1  0.29221864  0.23004357  0.92302212  1  0.434257  0  0.306272  0.300122  0  0.947845  0
H  H58  1  0.30961111  0.47649004  0.74563746  1  0.437453  0  0.299221  0.290724  0  0.967511  0
H  H59  1  0.26868179  0.48456274  0.69635692  1  0.439079  0  0.303444  0.294821  0  0.948619  0
H  H60  1  0.69018316  0.47619754  0.68323338  1  0.430264  0  0.299436  0.291188  0  0.966892  0
H  H61  1  0.73110938  0.48449315  0.73254614  1  0.426891  0  0.303444  0.295078  0  0.948557  0
C  C62  1  0.48936582  0.64568687  0.50011067  1  1.529177  0  0.21426  0.6086  0  4.142646  0
C  C63  1  0.48334860  0.50435118  0.58618944  1  1.527834  0  0.213743  0.595655  0  4.151837  0
C  C64  1  0.51052326  0.35160053  0.50425071  1  1.504359  0  0.210797  0.60254  0  4.151918  0
C  C65  1  0.49557500  0.49399577  0.41774694  1  1.500021  0  0.21293  0.606246  0  4.146843  0
C  C66  1  0.51065755  0.64799906  0.92841856  1  1.489158  0  0.213899  0.608251  0  4.138785  0
C  C67  1  0.51649217  0.50523709  0.84277843  1  1.531011  0  0.213882  0.596607  0  4.15165  0
C  C68  1  0.48948609  0.35384690  0.92453375  1  1.541924  0  0.211514  0.604942  0  4.147902  0
C  C69  1  0.50456895  0.49716311  0.01113774  1  1.484291  0  0.213157  0.606174  0  4.149021  0
C  C70  1  0.24707598  0.53743728  0.52570408  1  0.446572  0  0.047337  0.114444  0  3.983995  0
C  C71  1  0.16408072  0.54256381  0.52820901  1  -0.031115  0  -0.102987  -0.230712  0  3.975456  0
C  C72  1  0.11756583  0.49337154  0.50253584  1  0.072392  0  0.012969  0.195724  0  4.152889  0
C  C73  1  0.15743551  0.44194036  0.47624698  1  0.084939  0  -0.092933  -0.294727  0  3.867274  0
C  C74  1  0.24273653  0.44031931  0.47536748  1  0.958912  0  0.234685  0.458464  0  4.084328  0
C  C75  1  0.03213967  0.49672721  0.50332369  1  0.217759  0  -0.034784  -0.09791  0  4.084148  0
C  C76  1  0.95866150  0.50087589  0.50397715  1  -0.59374  0  -0.032802  -0.09133  0  4.081151  0
C  C77  1  0.87323719  0.50477475  0.50379802  1  0.11858  0  0.012057  0.19355  0  4.15198  0
C  C78  1  0.83244805  0.55524933  0.53027291  1  0.013258  0  -0.092253  -0.294116  0  3.866357  0
C  C79  1  0.74713507  0.55862212  0.52924429  1  1.016068  0  0.236072  0.461867  0  4.081611  0
C  C80  1  0.74474299  0.46355542  0.47757869  1  0.471095  0  0.049098  0.116745  0  3.985006  0
C  C81  1  0.82779127  0.45786465  0.47622722  1  -0.019083  0  -0.103387  -0.231428  0  3.975486  0
C  C82  1  0.48734746  0.72827926  0.50045022  1  -0.02674  0  -0.035958  -0.168425  0  3.929706  0
C  C83  1  0.56098904  0.76730488  0.50203336  1  -0.01247  0  -0.092049  -0.074025  0  4.05713  0
C  C84  1  0.56470878  0.84423704  0.50228209  1  0.01844  0  -0.11043  -0.179767  0  4.010457  0
C  C85  1  0.49196838  0.88584624  0.50124422  1  -0.008471  0  -0.000476  0.16818  0  4.154889  0
C  C86  1  0.41802319  0.84813467  0.49975199  1  -0.064002  0  -0.103889  -0.260489  0  3.902604  0
C  C87  1  0.41382857  0.76970764  0.49895623  1  0.493725  0  0.106882  0.311746  0  4.083647  0
C  C88  1  0.49469338  0.96472369  0.50137575  1  -0.351846  0  -0.04801  -0.111443  0  4.115526  0
C  C89  1  0.49933198  0.03266206  0.50135461  1  -0.048969  0  -0.045947  -0.10556  0  4.113045  0
C  C90  1  0.50336417  0.11150880  0.50148714  1  0.133328  0  -0.002356  0.16504  0  4.157063  0
C  C91  1  0.57818966  0.14774417  0.50054832  1  0.028845  0  -0.104498  -0.261183  0  3.903051  0
C  C92  1  0.58426297  0.22612777  0.50073143  1  0.422524  0  0.106833  0.311705  0  4.083008  0
C  C93  1  0.51160286  0.26890810  0.50262549  1  -0.047505  0  -0.03547  -0.165282  0  3.920734  0
C  C94  1  0.43706597  0.23130179  0.50340037  1  0.035852  0  -0.090918  -0.072329  0  4.048797  0
C  C95  1  0.43155621  0.15447079  0.50265139  1  -0.07155  0  -0.111052  -0.180668  0  4.011143  0
C  C96  1  0.45459327  0.50328798  0.76977019  1  -0.06978  0  -0.104767  -0.175921  0  3.998789  0
C  C97  1  0.60067524  0.50235944  0.77562329  1  0.07188  0  -0.112843  -0.239127  0  3.975124  0
C  C98  1  0.60944257  0.50063177  0.73130982  1  0.359548  0  0.092539  0.256383  0  4.082518  0
C  C99  1  0.53902594  0.50197797  0.70440722  1  0.072209  0  -0.012835  -0.003825  0  3.974651  0
C  C100  1  0.54518805  0.50294851  0.65920441  1  -0.069445  0  -0.105383  -0.17699  0  3.998071  0
C  C101  1  0.39911849  0.50199526  0.65334349  1  0.066513  0  -0.113355  -0.240203  0  3.976213  0
C  C102  1  0.39034770  0.50056673  0.69765192  1  0.363548  0  0.093076  0.257111  0  4.082336  0
C  C103  1  0.46074873  0.50204796  0.72456386  1  0.014088  0  -0.013556  -0.004916  0  3.975476  0
C  C104  1  0.52351422  0.50394221  0.79488815  1  -0.039113  0  -0.025014  -0.012148  0  4.037874  0
C  C105  1  0.47627583  0.50344664  0.63407822  1  -0.032159  0  -0.023857  -0.010071  0  4.035719  0
C  C106  1  0.50596796  0.50129371  0.05877680  1  0.056798  0  -0.034328  -0.165647  0  3.924335  0
C  C107  1  0.43204458  0.50365641  0.08117729  1  -0.048331  0  -0.087922  -0.069516  0  4.044342  0
C  C108  1  0.42783754  0.50836172  0.12549064  1  -0.026603  0  -0.107126  -0.17646  0  4.002049  0
C  C109  1  0.50035832  0.51175824  0.14946606  1  0.118699  0  -0.00128  0.166398  0  4.156209  0
C  C110  1  0.57443731  0.51064534  0.12774827  1  -0.012139  0  -0.103977  -0.258449  0  3.907567  0
C  C111  1  0.57929162  0.50487518  0.08272654  1  0.397552  0  0.104269  0.306654  0  4.076689  0
C  C112  1  0.49932944  0.51440129  0.19492400  1  -0.11428  0  -0.04663  -0.108751  0  4.115235  0
C  C113  1  0.50043385  0.51399847  0.23414532  1  -0.337063  0  -0.046245  -0.107486  0  4.114211  0
C  C114  1  0.49946797  0.51048847  0.27956492  1  0.124465  0  -0.001004  0.165954  0  4.156812  0
C  C115  1  0.42542392  0.50872158  0.30129247  1  -0.092587  0  -0.10371  -0.258035  0  3.90785  0
C  C116  1  0.42067750  0.50219346  0.34624688  1  0.467043  0  0.103703  0.306656  0  4.079948  0
C  C117  1  0.49405599  0.49855030  0.37013525  1  0.052717  0  -0.035427  -0.166644  0  3.924755  0
C  C118  1  0.56792855  0.50149305  0.34772944  1  -0.002305  0  -0.086623  -0.069007  0  4.043333  0
C  C119  1  0.57204279  0.50690053  0.30346771  1  -0.046198  0  -0.107905  -0.176687  0  4.002422  0
C  C120  1  0.75287968  0.53928025  0.90326125  1  0.476775  0  0.047414  0.114807  0  3.982207  0
C  C121  1  0.83585819  0.54434390  0.90073352  1  -0.026432  0  -0.103262  -0.230644  0  3.97512  0
C  C122  1  0.88246468  0.49540101  0.92628033  1  0.073643  0  0.013111  0.195402  0  4.151335  0
C  C123  1  0.84272041  0.44425866  0.95247615  1  0.061683  0  -0.093018  -0.293969  0  3.86614  0
C  C124  1  0.75741952  0.44273080  0.95340650  1  0.939489  0  0.234579  0.458225  0  4.084875  0
C  C125  1  0.96786665  0.49878565  0.92544719  1  -0.460064  0  -0.035131  -0.097487  0  4.084565  0
C  C126  1  0.04132049  0.50303115  0.92472738  1  0.083912  0  -0.032354  -0.09151  0  4.081873  0
C  C127  1  0.12674026  0.50691580  0.92492752  1  0.113346  0  0.011915  0.193604  0  4.151472  0
C  C128  1  0.16752031  0.55704325  0.89855996  1  0.01643  0  -0.092659  -0.294226  0  3.866721  0
C  C129  1  0.25282953  0.56043316  0.89968303  1  1.032219  0  0.236179  0.460885  0  4.085935  0
C  C130  1  0.25520786  0.46599782  0.95120156  1  0.481421  0  0.048768  0.115936  0  3.987071  0
C  C131  1  0.17217859  0.46030027  0.95245770  1  -0.022677  0  -0.103081  -0.231153  0  3.974613  0
C  C132  1  0.51262958  0.73056306  0.92749762  1  0.041716  0  -0.03573  -0.167229  0  3.927536  0
C  C133  1  0.43897325  0.76963194  0.92577859  1  -0.0439  0  -0.092665  -0.075921  0  4.057008  0
C  C134  1  0.43524713  0.84655937  0.92507947  1  -0.00458  0  -0.109883  -0.178445  0  4.007645  0
C  C135  1  0.50799895  0.88810089  0.92577011  1  0.138854  0  -0.000557  0.167883  0  4.153893  0
C  C136  1  0.58194594  0.85032188  0.92731128  1  -0.023223  0  -0.104047  -0.260941  0  3.902144  0
C  C137  1  0.58614269  0.77193097  0.92860398  1  0.419249  0  0.107047  0.311275  0  4.081973  0
C  C138  1  0.50534820  0.96696715  0.92542339  1  -0.512528  0  -0.048219  -0.111401  0  4.114187  0
C  C139  1  0.50095849  0.03492337  0.92554999  1  0.107396  0  -0.045999  -0.105617  0  4.112077  0
C  C140  1  0.49693691  0.11377226  0.92577332  1  -0.055838  0  -0.001647  0.165689  0  4.157467  0
C  C141  1  0.42207807  0.15005038  0.92699111  1  0.052964  0  -0.104946  -0.261739  0  3.904153  0
C  C142  1  0.41591402  0.22842582  0.92734013  1  0.424853  0  0.107028  0.313334  0  4.084319  0
C  C143  1  0.48851329  0.27115819  0.92567268  1  -0.027014  0  -0.036136  -0.16837  0  3.923267  0
C  C144  1  0.56310085  0.23353390  0.92460399  1  -0.050236  0  -0.090982  -0.071922  0  4.048717  0
C  C145  1  0.56869701  0.15669298  0.92485397  1  0.003121  0  -0.111171  -0.180708  0  4.012881  0
N  N146  1  0.28621047  0.48838425  0.49995531  1  -1.230807  0  -0.336356  -0.321385  0  3.430939  0
N  N147  1  0.70459075  0.51148025  0.50354144  1  -1.235866  0  -0.333496  -0.316992  0  3.422346  0
N  N148  1  0.71385583  0.49053584  0.92893012  1  -1.252855  0  -0.336138  -0.321009  0  3.429158  0
N  N149  1  0.29535330  0.51364264  0.92536895  1  -1.245908  0  -0.333811  -0.316437  0  3.424488  0
N  N150  1  0.28345187  0.39042382  0.45066527  1  -1.246867  0  -0.570267  -0.621765  0  3.303498  0
N  N151  1  0.70526011  0.60755248  0.55388487  1  -1.264122  0  -0.570242  -0.623247  0  3.300706  0
N  N152  1  0.34008155  0.73512151  0.49812873  1  -1.236321  0  -0.60028  -0.628943  0  3.348873  0
N  N153  1  0.65882826  0.25879078  0.49830549  1  -1.279853  0  -0.600185  -0.628838  0  3.358424  0
N  N154  1  0.65443125  0.50152189  0.06386776  1  -1.263098  0  -0.605799  -0.632835  0  3.354388  0
N  N155  1  0.34560183  0.49819121  0.36510625  1  -1.264055  0  -0.605496  -0.635311  0  3.350019  0
N  N156  1  0.71676787  0.39316772  0.97803739  1  -1.215816  0  -0.570683  -0.622142  0  3.305921  0
N  N157  1  0.29468158  0.60906512  0.87516593  1  -1.267056  0  -0.570164  -0.62332  0  3.302627  0
N  N158  1  0.65991777  0.73726986  0.92956158  1  -1.2771  0  -0.60072  -0.628317  0  3.348308  0
N  N159  1  0.34132904  0.26113756  0.93007678  1  -1.274805  0  -0.599823  -0.629082  0  3.359493  0
N  N160  1  0.31384337  0.50055757  0.71630401  1  -1.243185  0  -0.605176  -0.625922  0  3.313351  0
N  N161  1  0.68595068  0.50044590  0.71265818  1  -1.221999  0  -0.605154  -0.626488  0  3.312957  0
O  O162  1  0.55693878  0.61407325  0.50850921  1  -1.188906  0  -0.318675  -0.567302  0  2.378757  0
O  O163  1  0.42481601  0.60938065  0.49133601  1  -1.167925  0  -0.312248  -0.548167  0  2.325769  0
O  O164  1  0.41765465  0.51386491  0.56537674  1  -1.174079  0  -0.322906  -0.551216  0  2.354416  0
O  O165  1  0.55286461  0.49542945  0.56933712  1  -1.171542  0  -0.321147  -0.552755  0  2.316445  0
O  O166  1  0.44220995  0.38361162  0.50877008  1  -1.183031  0  -0.323137  -0.558975  0  2.346494  0
O  O167  1  0.57796232  0.38686006  0.50099731  1  -1.162012  0  -0.316317  -0.550476  0  2.3477  0
O  O168  1  0.56184402  0.50409427  0.43739345  1  -1.166228  0  -0.314357  -0.54412  0  2.302169  0
O  O169  1  0.42790207  0.48032810  0.43695752  1  -1.189318  0  -0.322052  -0.574308  0  2.396269  0
O  O170  1  0.44307345  0.61613964  0.92028348  1  -1.186702  0  -0.318706  -0.567544  0  2.378788  0
O  O171  1  0.57524515  0.61196710  0.93738461  1  -1.166362  0  -0.312107  -0.547923  0  2.322379  0
O  O172  1  0.58220545  0.51496976  0.86357655  1  -1.172049  0  -0.323026  -0.551527  0  2.355713  0
O  O173  1  0.44701779  0.49644536  0.85963319  1  -1.168421  0  -0.32094  -0.552607  0  2.315921  0
O  O174  1  0.55774711  0.38581847  0.92016796  1  -1.174592  0  -0.323986  -0.560437  0  2.344989  0
O  O175  1  0.42200083  0.38913543  0.92797556  1  -1.16289  0  -0.315869  -0.550372  0  2.346347  0
O  O176  1  0.43831171  0.50726540  0.99151887  1  -1.166621  0  -0.314707  -0.544479  0  2.303538  0
O  O177  1  0.57235568  0.48375216  0.99188466  1  -1.188699  0  -0.321982  -0.572713  0  2.397931  0
