# generated using pymatgen
data_H12PbC20(N3O4)2
_symmetry_space_group_name_H-M   'P 1'
_cell_length_a   7.37702327
_cell_length_b   8.52965456
_cell_length_c   18.20618073
_cell_angle_alpha   86.35174135
_cell_angle_beta   81.56512815
_cell_angle_gamma   64.43426642
_symmetry_Int_Tables_number   1
_chemical_formula_structural   H12PbC20(N3O4)2
_chemical_formula_sum   'H24 Pb2 C40 N12 O16'
_cell_volume   1022.25303681
_cell_formula_units_Z   2
loop_
 _symmetry_equiv_pos_site_id
 _symmetry_equiv_pos_as_xyz
  1  'x, y, z'
loop_
 _atom_site_type_symbol
 _atom_site_label
 _atom_site_symmetry_multiplicity
 _atom_site_fract_x
 _atom_site_fract_y
 _atom_site_fract_z
 _atom_site_occupancy
 _atom_site_hle17_bader_spin_density
 _atom_site_hle17_ddec_charge
 _atom_site_hle17_ddec_spin_density
 _atom_site_hle17_ddec_sum_bond_order
 _atom_site_hle17_magmom
 _atom_site_hse06_10hf_bader_spin_density
 _atom_site_hse06_10hf_ddec_charge
 _atom_site_hse06_10hf_ddec_spin_density
 _atom_site_hse06_10hf_ddec_sum_bond_order
 _atom_site_hse06_10hf_magmom
 _atom_site_hse06_bader_spin_density
 _atom_site_hse06_ddec_charge
 _atom_site_hse06_ddec_spin_density
 _atom_site_hse06_ddec_sum_bond_order
 _atom_site_hse06_magmom
 _atom_site_pbe_bader_spin_density
 _atom_site_pbe_cm5_charge
 _atom_site_pbe_ddec_charge
 _atom_site_pbe_ddec_spin_density
 _atom_site_pbe_ddec_sum_bond_order
 _atom_site_pbe_magmom
H  H0  1  0.93660056  0.90443005  0.41919723  1  0  0.387107  0  0.928223  0  0  0.357457  0  1.000911  0  0  0.37064  0  0.982935  0  0  0.291666  0.348291  0  1.0129  0
H  H1  1  0.15884190  0.90459094  0.08093090  1  0  0.3872  0  0.927793  0  0  0.357044  0  1.001478  0  0  0.370247  0  0.983472  0  0  0.291381  0.347872  0  1.013482  0
H  H2  1  0.06342437  0.09555062  0.58080185  1  0  0.38709  0  0.928162  0  0  0.357413  0  1.000967  0  0  0.370597  0  0.982989  0  0  0.291603  0.348246  0  1.012901  0
H  H3  1  0.84110403  0.09543647  0.91908751  1  0  0.387376  0  0.927664  0  0  0.357272  0  1.001186  0  0  0.370475  0  0.983179  0  0  0.291452  0.3481  0  1.013247  0
H  H4  1  0.69221924  0.57268087  0.95943680  1  0  0.304557  0  0.924428  0  0  0.277612  0  0.994572  0  0  0.288605  0  0.985652  0  0  0.306888  0.269878  0  1.000881  0
H  H5  1  0.73550039  0.57250218  0.54055780  1  0  0.304523  0  0.924479  0  0  0.278134  0  0.993945  0  0  0.289131  0  0.985008  0  0  0.307247  0.270384  0  1.000278  0
H  H6  1  0.30777122  0.42733879  0.04056141  1  0  0.304587  0  0.924442  0  0  0.277695  0  0.994502  0  0  0.288688  0  0.985576  0  0  0.306912  0.26996  0  1.000814  0
H  H7  1  0.26452665  0.42749670  0.45943577  1  0  0.304615  0  0.924318  0  0  0.278177  0  0.993851  0  0  0.289174  0  0.984914  0  0  0.307279  0.270428  0  1.000183  0
H  H8  1  0.70798041  0.95333261  0.09179791  1  0  0.127463  0  0.92411  0  0  0.138269  0  0.9791  0  0  0.142635  0  0.976552  0  0  0.119516  0.135135  0  0.98111  0
H  H9  1  0.33844564  0.95342630  0.40857547  1  0  0.126749  0  0.923428  0  0  0.137856  0  0.978254  0  0  0.14213  0  0.975835  0  0  0.119422  0.134789  0  0.98018  0
H  H10  1  0.29197374  0.04668701  0.90821589  1  0  0.127408  0  0.924319  0  0  0.138233  0  0.979245  0  0  0.142606  0  0.976702  0  0  0.119497  0.135101  0  0.981252  0
H  H11  1  0.66150861  0.04656862  0.59143730  1  0  0.126827  0  0.923403  0  0  0.137852  0  0.978324  0  0  0.142133  0  0.975912  0  0  0.119394  0.134782  0  0.980243  0
H  H12  1  0.63508518  0.85999983  0.97443686  1  0  0.091411  0  0.947871  0  0  0.101278  0  1.010131  0  0  0.103685  0  1.00793  0  0  0.128088  0.09949  0  1.011751  0
H  H13  1  0.50562739  0.85969159  0.52572307  1  0  0.091423  0  0.948023  0  0  0.101079  0  1.010543  0  0  0.103474  0  1.008348  0  0  0.127929  0.099314  0  1.01213  0
H  H14  1  0.36485794  0.14003668  0.02557433  1  0  0.091302  0  0.948001  0  0  0.101264  0  1.010165  0  0  0.103672  0  1.007963  0  0  0.128139  0.099473  0  1.011779  0
H  H15  1  0.49437697  0.14029426  0.47428023  1  0  0.091339  0  0.948053  0  0  0.101037  0  1.010536  0  0  0.103433  0  1.008338  0  0  0.127912  0.099271  0  1.012129  0
H  H16  1  0.81784747  0.35213568  0.04762999  1  0  0.113015  0  0.933766  0  0  0.118736  0  0.997858  0  0  0.123281  0  0.99264  0  0  0.130314  0.115381  0  1.001692  0
H  H17  1  0.82897356  0.35198630  0.45241465  1  0  0.113704  0  0.933923  0  0  0.118897  0  0.998074  0  0  0.123429  0  0.992871  0  0  0.130429  0.115562  0  1.001869  0
H  H18  1  0.18215425  0.64787879  0.95235898  1  0  0.113043  0  0.933746  0  0  0.118808  0  0.997772  0  0  0.123358  0  0.992546  0  0  0.130303  0.115448  0  1.001613  0
H  H19  1  0.17105587  0.64801649  0.54757429  1  0  0.113837  0  0.933783  0  0  0.118906  0  0.998081  0  0  0.12344  0  0.992877  0  0  0.130412  0.115572  0  1.001878  0
H  H20  1  0.89628523  0.42258014  0.16792920  1  0  0.136976  0  0.966734  0  0  0.144192  0  1.025816  0  0  0.148813  0  1.022882  0  0  0.117439  0.140885  0  1.028068  0
H  H21  1  0.67924870  0.42276624  0.33236077  1  0  0.136736  0  0.967148  0  0  0.144328  0  1.026069  0  0  0.148853  0  1.02325  0  0  0.117639  0.141048  0  1.028289  0
H  H22  1  0.10373313  0.57741485  0.83205832  1  0  0.137078  0  0.966709  0  0  0.144256  0  1.025842  0  0  0.148879  0  1.022905  0  0  0.11747  0.140949  0  1.028094  0
H  H23  1  0.32075564  0.57723392  0.66763667  1  0  0.136662  0  0.967235  0  0  0.144273  0  1.026139  0  0  0.148797  0  1.023325  0  0  0.117624  0.141001  0  1.028346  0
Pb  Pb24  1  0.33191721  0.33528434  0.25015382  1  0  1.367921  0  1.337093  0  0  1.173506  0  1.725378  0  0  1.235912  0  1.679521  0  0  0.693045  1.127863  0  1.757848  0
Pb  Pb25  1  0.66817415  0.66473276  0.74984697  1  0  1.368004  0  1.336912  0  0  1.173589  0  1.725174  0  0  1.236004  0  1.679316  0  0  0.693077  1.127937  0  1.757644  0
C  C26  1  0.06252360  0.63591604  0.37864382  1  0  0.623346  0  3.920601  0  0  0.56852  0  4.228575  0  0  0.603028  0  4.221426  0  0  0.209403  0.545178  0  4.232495  0
C  C27  1  0.30088381  0.63607019  0.12152675  1  0  0.62368  0  3.920689  0  0  0.56872  0  4.228916  0  0  0.603254  0  4.221778  0  0  0.20928  0.54537  0  4.232816  0
C  C28  1  0.93750695  0.36407895  0.62134582  1  0  0.623515  0  3.920291  0  0  0.568347  0  4.22875  0  0  0.602852  0  4.221613  0  0  0.20935  0.545007  0  4.232665  0
C  C29  1  0.69912757  0.36392999  0.87846649  1  0  0.623804  0  3.920225  0  0  0.568846  0  4.228473  0  0  0.603378  0  4.221327  0  0  0.209278  0.545493  0  4.232385  0
C  C30  1  0.95719603  0.71782949  0.31411328  1  0  -0.020595  0  3.819989  0  0  -0.026898  0  4.076929  0  0  -0.030936  0  4.102935  0  0  0.070171  -0.024256  0  4.059297  0
C  C31  1  0.32389368  0.71799950  0.18616333  1  0  -0.020187  0  3.819195  0  0  -0.026463  0  4.076032  0  0  -0.030531  0  4.102109  0  0  0.070452  -0.02381  0  4.058381  0
C  C32  1  0.04282067  0.28216290  0.68587878  1  0  -0.020541  0  3.820139  0  0  -0.026699  0  4.077048  0  0  -0.030737  0  4.103059  0  0  0.070183  -0.024058  0  4.05942  0
C  C33  1  0.67610902  0.28199806  0.81383811  1  0  -0.019916  0  3.819422  0  0  -0.026262  0  4.076225  0  0  -0.030331  0  4.102301  0  0  0.070587  -0.023609  0  4.058576  0
C  C34  1  0.83344410  0.89553349  0.29919916  1  0  -0.024016  0  3.80354  0  0  -0.022847  0  4.066376  0  0  -0.028685  0  4.089793  0  0  0.072576  -0.019038  0  4.05062  0
C  C35  1  0.26982558  0.89573767  0.20115322  1  0  -0.024736  0  3.803353  0  0  -0.022957  0  4.065668  0  0  -0.028804  0  4.089118  0  0  0.07242  -0.019141  0  4.049905  0
C  C36  1  0.16655392  0.10445498  0.70079561  1  0  -0.02395  0  3.803579  0  0  -0.022778  0  4.066306  0  0  -0.028614  0  4.089721  0  0  0.072689  -0.018974  0  4.050553  0
C  C37  1  0.73014927  0.10425727  0.79885740  1  0  -0.02505  0  3.803772  0  0  -0.023003  0  4.065812  0  0  -0.028845  0  4.089259  0  0  0.07236  -0.019187  0  4.050055  0
C  C38  1  0.76718998  0.05197108  0.34446975  1  0  0.649992  0  3.852773  0  0  0.598571  0  4.151906  0  0  0.633978  0  4.141656  0  0  0.227262  0.574521  0  4.158131  0
C  C39  1  0.17970844  0.05224154  0.15591466  1  0  0.650127  0  3.852257  0  0  0.598154  0  4.151842  0  0  0.633571  0  4.141634  0  0  0.227077  0.574105  0  4.158013  0
C  C40  1  0.23282559  0.94801480  0.65552803  1  0  0.649873  0  3.853246  0  0  0.598532  0  4.152249  0  0  0.63394  0  4.141993  0  0  0.227162  0.574489  0  4.158465  0
C  C41  1  0.82024409  0.94777807  0.84410416  1  0  0.649649  0  3.853343  0  0  0.597521  0  4.153048  0  0  0.632934  0  4.142862  0  0  0.226713  0.57347  0  4.159213  0
C  C42  1  0.85025965  0.74061216  0.20819852  1  0  0.288043  0  3.787748  0  0  0.267503  0  4.061481  0  0  0.274086  0  4.079685  0  0  0.192964  0.263065  0  4.048892  0
C  C43  1  0.40786982  0.74074772  0.29213668  1  0  0.289218  0  3.784811  0  0  0.269122  0  4.057742  0  0  0.27575  0  4.07586  0  0  0.193769  0.264675  0  4.045205  0
C  C44  1  0.14974856  0.25937501  0.79179685  1  0  0.288107  0  3.787775  0  0  0.267634  0  4.061393  0  0  0.274214  0  4.079605  0  0  0.192943  0.263197  0  4.048801  0
C  C45  1  0.59210664  0.25924982  0.70787050  1  0  0.289282  0  3.784722  0  0  0.269165  0  4.057643  0  0  0.275811  0  4.07577  0  0  0.193857  0.264716  0  4.045109  0
C  C46  1  0.80710022  0.69462150  0.13963458  1  0  0.09629  0  3.717306  0  0  0.105716  0  3.955116  0  0  0.114101  0  3.972242  0  0  0.03078  0.100231  0  3.943565  0
C  C47  1  0.49722416  0.69474584  0.36067605  1  0  0.095505  0  3.71542  0  0  0.105387  0  3.953078  0  0  0.113746  0  3.97018  0  0  0.030792  0.099911  0  3.941542  0
C  C48  1  0.19290251  0.30536307  0.86035950  1  0  0.096398  0  3.717198  0  0  0.105907  0  3.954835  0  0  0.114293  0  3.971957  0  0  0.030875  0.10042  0  3.943286  0
C  C49  1  0.50275927  0.30525431  0.63932960  1  0  0.095461  0  3.715309  0  0  0.105449  0  3.952836  0  0  0.113746  0  3.970021  0  0  0.030812  0.099973  0  3.941298  0
C  C50  1  0.72994380  0.82045405  0.08439226  1  0  -0.137461  0  3.675556  0  0  -0.161695  0  3.936311  0  0  -0.169644  0  3.954213  0  0  -0.071357  -0.156776  0  3.924542  0
C  C51  1  0.44918839  0.82050162  0.41588671  1  0  -0.135179  0  3.672736  0  0  -0.159796  0  3.933549  0  0  -0.167658  0  3.951468  0  0  -0.070946  -0.154944  0  3.921797  0
C  C52  1  0.27003209  0.17955259  0.91561746  1  0  -0.137538  0  3.675721  0  0  -0.161802  0  3.93644  0  0  -0.169763  0  3.954356  0  0  -0.071375  -0.156884  0  3.92467  0
C  C53  1  0.55078620  0.17949982  0.58411882  1  0  -0.135359  0  3.672923  0  0  -0.159947  0  3.933732  0  0  -0.167804  0  3.951684  0  0  -0.070965  -0.155084  0  3.921969  0
C  C54  1  0.68885959  0.77197570  0.02026669  1  0  0.138275  0  3.652206  0  0  0.093812  0  3.915006  0  0  0.103351  0  3.929801  0  0  0.05876  0.087637  0  3.905043  0
C  C55  1  0.53926711  0.77180865  0.47989766  1  0  0.136726  0  3.651867  0  0  0.092597  0  3.915404  0  0  0.102155  0  3.930187  0  0  0.058693  0.086391  0  3.905455  0
C  C56  1  0.31109104  0.22805692  0.97974256  1  0  0.138465  0  3.652338  0  0  0.09392  0  3.915143  0  0  0.103457  0  3.929947  0  0  0.058637  0.087752  0  3.90517  0
C  C57  1  0.46074045  0.22818502  0.52010033  1  0  0.136799  0  3.651845  0  0  0.092647  0  3.915326  0  0  0.102208  0  3.9301  0  0  0.058703  0.08644  0  3.905376  0
C  C58  1  0.79535792  0.48196213  0.06156145  1  0  0.14958  0  3.610358  0  0  0.104254  0  3.875081  0  0  0.114427  0  3.887117  0  0  0.062331  0.097698  0  3.866976  0
C  C59  1  0.72190093  0.48189002  0.43856632  1  0  0.147797  0  3.611512  0  0  0.104135  0  3.87582  0  0  0.11434  0  3.887786  0  0  0.062353  0.097555  0  3.867746  0
C  C60  1  0.20464523  0.51804064  0.93843379  1  0  0.149581  0  3.610456  0  0  0.104281  0  3.8751  0  0  0.114454  0  3.88714  0  0  0.062345  0.097726  0  3.866991  0
C  C61  1  0.27811928  0.51811145  0.56142863  1  0  0.147715  0  3.611466  0  0  0.10413  0  3.875812  0  0  0.114335  0  3.887775  0  0  0.062387  0.097547  0  3.867739  0
C  C62  1  0.83757168  0.52363396  0.12702048  1  0  -0.129549  0  3.649315  0  0  -0.155198  0  3.911597  0  0  -0.162807  0  3.927811  0  0  -0.072082  -0.150522  0  3.900989  0
C  C63  1  0.63747294  0.52375380  0.37323292  1  0  -0.128977  0  3.650861  0  0  -0.156058  0  3.91348  0  0  -0.163604  0  3.929753  0  0  -0.072658  -0.151394  0  3.902846  0
C  C64  1  0.16244929  0.47635842  0.87296807  1  0  -0.12968  0  3.649208  0  0  -0.155405  0  3.91153  0  0  -0.163012  0  3.927743  0  0  -0.072135  -0.150731  0  3.900924  0
C  C65  1  0.36253478  0.47624767  0.62676596  1  0  -0.128729  0  3.650708  0  0  -0.155842  0  3.913299  0  0  -0.163365  0  3.929579  0  0  -0.072627  -0.151192  0  3.902678  0
N  N66  1  0.96626074  0.62105523  0.25598931  1  0  -0.459141  0  3.085763  0  0  -0.403027  0  3.343283  0  0  -0.422208  0  3.365756  0  0  -0.32068  -0.389337  0  3.327501  0
N  N67  1  0.41156050  0.62116074  0.24428463  1  0  -0.460116  0  3.086288  0  0  -0.404083  0  3.34357  0  0  -0.423292  0  3.366047  0  0  -0.321121  -0.390452  0  3.32785  0
N  N68  1  0.03376493  0.37893846  0.74400171  1  0  -0.459437  0  3.085924  0  0  -0.403373  0  3.343438  0  0  -0.422559  0  3.365915  0  0  -0.320729  -0.389671  0  3.327636  0
N  N69  1  0.58845512  0.37883033  0.75571466  1  0  -0.460202  0  3.086525  0  0  -0.404209  0  3.343842  0  0  -0.423412  0  3.366313  0  0  -0.32118  -0.390582  0  3.328126  0
N  N70  1  0.76903701  0.90711962  0.23210737  1  0  -0.40266  0  2.984599  0  0  -0.383562  0  3.261405  0  0  -0.394585  0  3.278537  0  0  -0.32837  -0.375587  0  3.249654  0
N  N71  1  0.32259041  0.90728090  0.26826372  1  0  -0.40256  0  2.984164  0  0  -0.383884  0  3.260832  0  0  -0.394886  0  3.277906  0  0  -0.327995  -0.37598  0  3.249083  0
N  N72  1  0.23096020  0.09286495  0.76788809  1  0  -0.402511  0  2.984666  0  0  -0.383501  0  3.261511  0  0  -0.394524  0  3.278645  0  0  -0.328339  -0.375529  0  3.249761  0
N  N73  1  0.67737348  0.09271402  0.73174746  1  0  -0.402396  0  2.983933  0  0  -0.383792  0  3.260551  0  0  -0.394796  0  3.277622  0  0  -0.328046  -0.375884  0  3.248797  0
N  N74  1  0.72231125  0.60585121  0.00995934  1  0  -0.224853  0  3.47219  0  0  -0.150505  0  3.701033  0  0  -0.166532  0  3.716034  0  0  -0.345803  -0.139985  0  3.690972  0
N  N75  1  0.67179614  0.60568656  0.49012121  1  0  -0.223814  0  3.472148  0  0  -0.150738  0  3.700978  0  0  -0.166787  0  3.715981  0  0  -0.346557  -0.140145  0  3.690818  0
N  N76  1  0.27766944  0.39416584  0.99004163  1  0  -0.224974  0  3.472403  0  0  -0.150687  0  3.7012  0  0  -0.166717  0  3.716212  0  0  -0.345747  -0.140164  0  3.691128  0
N  N77  1  0.32823165  0.39431362  0.50987173  1  0  -0.223934  0  3.472054  0  0  -0.150814  0  3.700966  0  0  -0.166863  0  3.715963  0  0  -0.34655  -0.140223  0  3.690809  0
O  O78  1  0.17130694  0.47068673  0.37849778  1  0  -0.638105  0  2.007364  0  0  -0.568527  0  2.23905  0  0  -0.597868  0  2.23044  0  0  -0.298298  -0.547796  0  2.244237  0
O  O79  1  0.35724063  0.47080990  0.12168947  1  0  -0.639057  0  2.006262  0  0  -0.569559  0  2.238375  0  0  -0.598881  0  2.229664  0  0  -0.299149  -0.548809  0  2.243568  0
O  O80  1  0.82876125  0.52931090  0.62147833  1  0  -0.638241  0  2.007066  0  0  -0.568529  0  2.238786  0  0  -0.597869  0  2.230185  0  0  -0.298355  -0.547799  0  2.243967  0
O  O81  1  0.64279752  0.52918640  0.87829920  1  0  -0.639126  0  2.00586  0  0  -0.569644  0  2.238028  0  0  -0.598967  0  2.229314  0  0  -0.299169  -0.548885  0  2.243216  0
O  O82  1  0.04295272  0.72962307  0.43394972  1  0  -0.585556  0  2.000643  0  0  -0.533786  0  2.22078  0  0  -0.558586  0  2.210877  0  0  -0.311058  -0.516573  0  2.226956  0
O  O83  1  0.22733080  0.72972796  0.06612428  1  0  -0.584845  0  1.999581  0  0  -0.533156  0  2.220326  0  0  -0.557977  0  2.210413  0  0  -0.31042  -0.515935  0  2.226498  0
O  O84  1  0.95707742  0.27036152  0.56604296  1  0  -0.585529  0  2.000642  0  0  -0.533658  0  2.220944  0  0  -0.558459  0  2.211046  0  0  -0.310924  -0.516444  0  2.2271  0
O  O85  1  0.77266068  0.27027869  0.93387420  1  0  -0.585017  0  1.999581  0  0  -0.533321  0  2.220242  0  0  -0.558141  0  2.210326  0  0  -0.31045  -0.516103  0  2.22644  0
O  O86  1  0.84440753  0.03837399  0.40681553  1  0  -0.550942  0  2.065306  0  0  -0.499684  0  2.27693  0  0  -0.522842  0  2.25951  0  0  -0.328931  -0.483533  0  2.288125  0
O  O87  1  0.11688510  0.03854842  0.09339873  1  0  -0.551996  0  2.065668  0  0  -0.500284  0  2.277672  0  0  -0.523439  0  2.260211  0  0  -0.329594  -0.48413  0  2.288876  0
O  O88  1  0.15561734  0.96159889  0.59318045  1  0  -0.550949  0  2.065392  0  0  -0.499674  0  2.27697  0  0  -0.522833  0  2.259548  0  0  -0.328902  -0.483525  0  2.28812  0
O  O89  1  0.88304005  0.96147637  0.90662412  1  0  -0.551793  0  2.065742  0  0  -0.500068  0  2.277705  0  0  -0.523223  0  2.260256  0  0  -0.329385  -0.483914  0  2.288942  0
O  O90  1  0.63826670  0.19610519  0.32603302  1  0  -0.616994  0  2.032429  0  0  -0.55673  0  2.27336  0  0  -0.583647  0  2.263221  0  0  -0.287953  -0.537733  0  2.279741  0
O  O91  1  0.16396799  0.19654327  0.17447463  1  0  -0.616037  0  2.031472  0  0  -0.555481  0  2.272483  0  0  -0.582458  0  2.262447  0  0  -0.28718  -0.536389  0  2.278767  0
O  O92  1  0.36177296  0.80388720  0.67396446  1  0  -0.617047  0  2.032546  0  0  -0.556852  0  2.273461  0  0  -0.583766  0  2.263314  0  0  -0.287974  -0.537858  0  2.279844  0
O  O93  1  0.83599929  0.80346335  0.82554322  1  0  -0.615886  0  2.031879  0  0  -0.555255  0  2.272915  0  0  -0.58224  0  2.262891  0  0  -0.287039  -0.536159  0  2.279196  0
