# generated using pymatgen
data_CdH36C34S2(NO2)4
_symmetry_space_group_name_H-M   'P 1'
_cell_length_a   7.63393249
_cell_length_b   9.09225745
_cell_length_c   12.61319881
_cell_angle_alpha   92.82731222
_cell_angle_beta   91.34397540
_cell_angle_gamma   111.63559799
_symmetry_Int_Tables_number   1
_chemical_formula_structural   CdH36C34S2(NO2)4
_chemical_formula_sum   'Cd1 H36 C34 S2 N4 O8'
_cell_volume   811.98996947
_cell_formula_units_Z   1
loop_
 _symmetry_equiv_pos_site_id
 _symmetry_equiv_pos_as_xyz
  1  'x, y, z'
loop_
 _atom_site_type_symbol
 _atom_site_label
 _atom_site_symmetry_multiplicity
 _atom_site_fract_x
 _atom_site_fract_y
 _atom_site_fract_z
 _atom_site_occupancy
 _atom_site_hle17_bader_spin_density
 _atom_site_hle17_ddec_charge
 _atom_site_hle17_ddec_spin_density
 _atom_site_hle17_ddec_sum_bond_order
 _atom_site_hle17_magmom
 _atom_site_hse06_10hf_bader_spin_density
 _atom_site_hse06_10hf_ddec_charge
 _atom_site_hse06_10hf_ddec_spin_density
 _atom_site_hse06_10hf_ddec_sum_bond_order
 _atom_site_hse06_10hf_magmom
 _atom_site_hse06_bader_spin_density
 _atom_site_hse06_ddec_charge
 _atom_site_hse06_ddec_spin_density
 _atom_site_hse06_ddec_sum_bond_order
 _atom_site_hse06_magmom
 _atom_site_pbe_bader_spin_density
 _atom_site_pbe_cm5_charge
 _atom_site_pbe_ddec_charge
 _atom_site_pbe_ddec_spin_density
 _atom_site_pbe_ddec_sum_bond_order
 _atom_site_pbe_magmom
Cd  Cd0  1  0.49999914  0.49999786  0.50000038  1  0  1.206287  0  1.646899  0  0  1.030908  0  2.083958  0  0  1.079031  0  2.034597  0  0  0.807432  0.996525  0  2.118209  0
H  H1  1  0.22446595  0.70674502  0.44057048  1  0  0.103988  0  0.94976  0  0  0.111785  0  1.016511  0  0  0.114877  0  1.01196  0  0  0.135582  0.109418  0  1.019901  0
H  H2  1  0.77552870  0.29324828  0.55942697  1  0  0.10407  0  0.949716  0  0  0.11186  0  1.016466  0  0  0.114954  0  1.011914  0  0  0.135602  0.109494  0  1.019855  0
H  H3  1  0.24829571  0.90242851  0.99466360  1  0  0.080934  0  0.984498  0  0  0.09203  0  1.048369  0  0  0.094338  0  1.047949  0  0  0.096716  0.090271  0  1.049075  0
H  H4  1  0.75169002  0.09756238  0.00533520  1  0  0.08093  0  0.984488  0  0  0.092043  0  1.04835  0  0  0.094351  0  1.04793  0  0  0.096736  0.09028  0  1.049063  0
H  H5  1  0.78817052  0.80784387  0.35900124  1  0  0.107272  0  0.972093  0  0  0.11543  0  1.034824  0  0  0.117696  0  1.034142  0  0  0.115395  0.113664  0  1.035692  0
H  H6  1  0.21183000  0.19216017  0.64100299  1  0  0.10733  0  0.972121  0  0  0.115469  0  1.034856  0  0  0.117734  0  1.034174  0  0  0.115418  0.113702  0  1.035725  0
H  H7  1  0.02440930  0.10173070  0.31552610  1  0  0.101881  0  0.959738  0  0  0.114872  0  1.017322  0  0  0.117649  0  1.016262  0  0  0.103618  0.112809  0  1.018239  0
H  H8  1  0.97560247  0.89828398  0.68447073  1  0  0.101924  0  0.959788  0  0  0.114925  0  1.017362  0  0  0.117702  0  1.016302  0  0  0.10366  0.112869  0  1.018266  0
H  H9  1  0.68832125  0.06688010  0.31665229  1  0  0.128126  0  0.978121  0  0  0.135025  0  1.042791  0  0  0.138342  0  1.040859  0  0  0.120752  0.13252  0  1.044624  0
H  H10  1  0.31168118  0.93311920  0.68334946  1  0  0.128068  0  0.978175  0  0  0.134975  0  1.042842  0  0  0.138293  0  1.040911  0  0  0.120737  0.132468  0  1.044678  0
H  H11  1  0.39526113  0.90200509  0.16728088  1  0  0.086022  0  0.976353  0  0  0.094871  0  1.043578  0  0  0.097458  0  1.043017  0  0  0.098068  0.093162  0  1.04377  0
H  H12  1  0.60473187  0.09799645  0.83271520  1  0  0.08608  0  0.976403  0  0  0.094918  0  1.043643  0  0  0.097507  0  1.043077  0  0  0.098076  0.093208  0  1.043835  0
H  H13  1  0.01953508  0.31979494  0.84227217  1  0  0.094145  0  0.985523  0  0  0.101081  0  1.053992  0  0  0.103255  0  1.054296  0  0  0.098396  0.099504  0  1.053867  0
H  H14  1  0.98046511  0.68019605  0.15772691  1  0  0.094202  0  0.985529  0  0  0.101147  0  1.053976  0  0  0.103321  0  1.054278  0  0  0.098473  0.099572  0  1.053851  0
H  H15  1  0.47263537  0.77599615  0.84381644  1  0  0.089701  0  0.981075  0  0  0.098123  0  1.046721  0  0  0.100348  0  1.046722  0  0  0.096914  0.096417  0  1.04702  0
H  H16  1  0.52736160  0.22399955  0.15618272  1  0  0.089743  0  0.981065  0  0  0.098172  0  1.046702  0  0  0.100398  0  1.046701  0  0  0.096956  0.096468  0  1.047001  0
H  H17  1  0.07467844  0.31675113  0.03696559  1  0  0.087427  0  0.983865  0  0  0.097886  0  1.048393  0  0  0.099752  0  1.049281  0  0  0.096418  0.096673  0  1.047577  0
H  H18  1  0.92532304  0.68323989  0.96303590  1  0  0.087355  0  0.983802  0  0  0.097808  0  1.04835  0  0  0.099647  0  1.049306  0  0  0.096384  0.096594  0  1.047535  0
H  H19  1  0.40394537  0.13498143  0.38459571  1  0  0.10814  0  0.938323  0  0  0.121719  0  1.001252  0  0  0.122753  0  1.000958  0  0  0.117172  0.120907  0  1.00167  0
H  H20  1  0.59605787  0.86501669  0.61540522  1  0  0.108105  0  0.93834  0  0  0.121695  0  1.001281  0  0  0.122726  0  1.000992  0  0  0.117191  0.120882  0  1.001698  0
H  H21  1  0.20327005  0.97813692  0.42406629  1  0  0.090911  0  0.912011  0  0  0.107275  0  0.970523  0  0  0.108144  0  0.970147  0  0  0.117699  0.106521  0  0.970959  0
H  H22  1  0.79673081  0.02186469  0.57593153  1  0  0.090886  0  0.911992  0  0  0.107276  0  0.970506  0  0  0.10816  0  0.970111  0  0  0.117703  0.106521  0  0.970942  0
H  H23  1  0.53042827  0.76906687  0.03666315  1  0  0.09063  0  0.94833  0  0  0.103687  0  1.005955  0  0  0.106224  0  1.005848  0  0  0.098258  0.101777  0  1.006363  0
H  H24  1  0.46957551  0.23093241  0.96333545  1  0  0.090619  0  0.948325  0  0  0.103678  0  1.005946  0  0  0.106214  0  1.005849  0  0  0.098252  0.101768  0  1.006353  0
H  H25  1  0.87290101  0.10072396  0.14380691  1  0  0.087772  0  0.970651  0  0  0.098366  0  1.035176  0  0  0.10137  0  1.033165  0  0  0.0989  0.096132  0  1.036858  0
H  H26  1  0.12710283  0.89929070  0.85619373  1  0  0.087769  0  0.970629  0  0  0.098347  0  1.035192  0  0  0.101354  0  1.033173  0  0  0.098884  0.096112  0  1.036873  0
H  H27  1  0.25993569  0.42232084  0.19733029  1  0  0.116932  0  0.941848  0  0  0.139831  0  0.998714  0  0  0.141359  0  0.998722  0  0  0.090808  0.138889  0  0.998445  0
H  H28  1  0.74006571  0.57767610  0.80267216  1  0  0.116968  0  0.941846  0  0  0.139868  0  0.998697  0  0  0.141397  0  0.998701  0  0  0.090803  0.138926  0  0.998431  0
H  H29  1  0.27090651  0.61999454  0.21181453  1  0  0.105548  0  0.961083  0  0  0.122931  0  1.032438  0  0  0.123886  0  1.032838  0  0  0.086395  0.122507  0  1.031708  0
H  H30  1  0.72909778  0.38000593  0.78818490  1  0  0.105541  0  0.961187  0  0  0.122963  0  1.032491  0  0  0.123917  0  1.032892  0  0  0.086408  0.122537  0  1.03176  0
H  H31  1  0.48063162  0.58312985  0.19360269  1  0  0.110059  0  0.963448  0  0  0.128552  0  1.029447  0  0  0.129445  0  1.030686  0  0  0.086765  0.127849  0  1.028761  0
H  H32  1  0.51937346  0.41686946  0.80639752  1  0  0.110164  0  0.963397  0  0  0.128604  0  1.029471  0  0  0.129498  0  1.030708  0  0  0.086763  0.1279  0  1.028783  0
H  H33  1  0.09027183  0.35337737  0.39944702  1  0  0.431482  0  0.866798  0  0  0.401362  0  0.928877  0  0  0.41177  0  0.913748  0  0  0.289209  0.39398  0  0.93961  0
H  H34  1  0.90972506  0.64662426  0.60055469  1  0  0.431466  0  0.866829  0  0  0.40133  0  0.928933  0  0  0.411738  0  0.913804  0  0  0.289197  0.393947  0  0.939667  0
H  H35  1  0.12004909  0.35813164  0.52464742  1  0  0.407514  0  0.90537  0  0  0.376962  0  0.9701  0  0  0.387166  0  0.955041  0  0  0.282854  0.369764  0  0.980704  0
H  H36  1  0.87995225  0.64187120  0.47535440  1  0  0.407538  0  0.905334  0  0  0.37698  0  0.970076  0  0  0.387184  0  0.955016  0  0  0.28286  0.369782  0  0.980679  0
C  C37  1  0.04596193  0.00078988  0.05259945  1  0  0.038999  0  3.779935  0  0  0.052736  0  4.011457  0  0  0.052452  0  4.035643  0  0  -0.009507  0.052942  0  3.994985  0
C  C38  1  0.95403385  0.99921530  0.94740392  1  0  0.038674  0  3.779969  0  0  0.052649  0  4.011295  0  0  0.052366  0  4.035479  0  0  -0.009543  0.052848  0  3.994828  0
C  C39  1  0.36565522  0.76763101  0.41431236  1  0  0.172068  0  3.65255  0  0  0.107975  0  3.924289  0  0  0.122938  0  3.935688  0  0  0.144305  0.098364  0  3.916236  0
C  C40  1  0.63434064  0.23236824  0.58568847  1  0  0.172022  0  3.652453  0  0  0.107907  0  3.924189  0  0  0.122871  0  3.935588  0  0  0.144244  0.098294  0  3.916137  0
C  C41  1  0.21953690  0.00036785  0.25507359  1  0  0.077716  0  3.735692  0  0  0.096843  0  3.97464  0  0  0.097065  0  3.997512  0  0  -0.009775  0.096939  0  3.959052  0
C  C42  1  0.78046315  0.99963496  0.74492583  1  0  0.077703  0  3.73574  0  0  0.096958  0  3.974565  0  0  0.097178  0  3.997444  0  0  -0.009729  0.097052  0  3.958977  0
C  C43  1  0.19604779  0.94722696  0.06374601  1  0  -0.103474  0  3.743144  0  0  -0.120019  0  3.98792  0  0  -0.12237  0  4.008906  0  0  -0.087717  -0.118629  0  3.973983  0
C  C44  1  0.80394569  0.05277580  0.93625249  1  0  -0.103328  0  3.742996  0  0  -0.119942  0  3.987733  0  0  -0.122294  0  4.008718  0  0  -0.087739  -0.118553  0  3.973799  0
C  C45  1  0.65703491  0.82576922  0.37016870  1  0  -0.000102  0  3.760834  0  0  -0.033849  0  4.027692  0  0  -0.031508  0  4.048455  0  0  -0.004195  -0.035579  0  4.014108  0
C  C46  1  0.34296036  0.17423477  0.62983464  1  0  -0.000192  0  3.760547  0  0  -0.033919  0  4.027401  0  0  -0.031576  0  4.04816  0  0  -0.004252  -0.03565  0  4.01382  0
C  C47  1  0.07186590  0.05571036  0.24498430  1  0  -0.10799  0  3.734556  0  0  -0.126303  0  3.976333  0  0  -0.129233  0  3.998032  0  0  -0.089932  -0.12399  0  3.961358  0
C  C48  1  0.92814036  0.94430076  0.75501549  1  0  -0.108166  0  3.734647  0  0  -0.126536  0  3.976419  0  0  -0.129469  0  3.998121  0  0  -0.09001  -0.124227  0  3.961436  0
C  C49  1  0.30203916  0.54362715  0.05163363  1  0  0.159445  0  3.736586  0  0  0.184285  0  3.968331  0  0  0.187175  0  3.991472  0  0  -0.000519  0.182552  0  3.952313  0
C  C50  1  0.69796804  0.45637099  0.94836580  1  0  0.159399  0  3.736626  0  0  0.184277  0  3.968321  0  0  0.187169  0  3.991459  0  0  -0.000483  0.182547  0  3.9523  0
C  C51  1  0.60866067  0.95227643  0.34653203  1  0  -0.080817  0  3.664832  0  0  -0.120704  0  3.926395  0  0  -0.120395  0  3.945677  0  0  -0.002729  -0.120904  0  3.914021  0
C  C52  1  0.39133699  0.04772404  0.65347204  1  0  -0.080607  0  3.664652  0  0  -0.120505  0  3.926202  0  0  -0.120196  0  3.945484  0  0  -0.00265  -0.120702  0  3.913816  0
C  C53  1  0.28062852  0.94618133  0.16277292  1  0  -0.125545  0  3.76777  0  0  -0.144378  0  4.015294  0  0  -0.146831  0  4.035504  0  0  -0.095046  -0.142691  0  4.001379  0
C  C54  1  0.71936291  0.05381668  0.83722540  1  0  -0.12559  0  3.767827  0  0  -0.144468  0  4.015349  0  0  -0.146925  0  4.035563  0  0  -0.095034  -0.142777  0  4.001422  0
C  C55  1  0.12889904  0.41913034  0.88548332  1  0  -0.057487  0  3.764343  0  0  -0.082842  0  4.012375  0  0  -0.081172  0  4.03307  0  0  -0.08687  -0.083717  0  3.998339  0
C  C56  1  0.87110873  0.58086309  0.11451756  1  0  -0.057582  0  3.764661  0  0  -0.082956  0  4.01271  0  0  -0.081285  0  4.033398  0  0  -0.087001  -0.083833  0  3.998681  0
C  C57  1  0.38271015  0.67663221  0.88663452  1  0  -0.06439  0  3.766978  0  0  -0.087333  0  4.015733  0  0  -0.085974  0  4.035858  0  0  -0.08933  -0.088084  0  4.002133  0
C  C58  1  0.61729501  0.32336118  0.11336472  1  0  -0.064405  0  3.767055  0  0  -0.087363  0  4.015843  0  0  -0.086003  0  4.035968  0  0  -0.089399  -0.088116  0  4.002252  0
C  C59  1  0.16128103  0.41783888  0.99462557  1  0  -0.119305  0  3.71658  0  0  -0.136055  0  3.958563  0  0  -0.141041  0  3.98114  0  0  -0.089328  -0.132734  0  3.943039  0
C  C60  1  0.83872592  0.58215574  0.00537770  1  0  -0.11916  0  3.716677  0  0  -0.135899  0  3.958649  0  0  -0.140884  0  3.981219  0  0  -0.089312  -0.132577  0  3.943122  0
C  C61  1  0.31084335  0.01127848  0.36420972  1  0  -0.046321  0  3.642016  0  0  -0.111888  0  3.886606  0  0  -0.108032  0  3.897712  0  0  -0.044788  -0.114527  0  3.879327  0
C  C62  1  0.68915650  0.98872076  0.63578722  1  0  -0.046129  0  3.641969  0  0  -0.111794  0  3.886589  0  0  -0.107947  0  3.897702  0  0  -0.04482  -0.114432  0  3.879306  0
C  C63  1  0.41421075  0.67206829  0.99529111  1  0  -0.124851  0  3.718566  0  0  -0.139539  0  3.961016  0  0  -0.144236  0  3.982649  0  0  -0.089738  -0.136342  0  3.946302  0
C  C64  1  0.58579461  0.32792866  0.00470983  1  0  -0.124818  0  3.718543  0  0  -0.139513  0  3.960988  0  0  -0.144214  0  3.982619  0  0  -0.089704  -0.136314  0  3.946272  0
C  C65  1  0.98664919  0.05548984  0.14635542  1  0  -0.101276  0  3.738976  0  0  -0.120643  0  3.987576  0  0  -0.122362  0  4.007969  0  0  -0.087332  -0.119768  0  3.973831  0
C  C66  1  0.01334968  0.94452242  0.85364584  1  0  -0.101047  0  3.738808  0  0  -0.12045  0  3.987326  0  0  -0.122167  0  4.007714  0  0  -0.087265  -0.119573  0  3.973579  0
C  C67  1  0.23846874  0.55006110  0.83215078  1  0  -0.1376  0  3.774304  0  0  -0.110656  0  4.019553  0  0  -0.119159  0  4.041729  0  0  -0.027045  -0.105193  0  4.004797  0
C  C68  1  0.76153775  0.44993228  0.16784611  1  0  -0.137599  0  3.774345  0  0  -0.110659  0  4.019605  0  0  -0.11916  0  4.04178  0  0  -0.026974  -0.105202  0  4.004862  0
C  C69  1  0.33039889  0.54152021  0.16951704  1  0  -0.338615  0  3.708053  0  0  -0.420523  0  3.945558  0  0  -0.422779  0  3.954667  0  0  -0.245895  -0.418778  0  3.938698  0
C  C70  1  0.66960438  0.45847788  0.83048072  1  0  -0.338786  0  3.708227  0  0  -0.420709  0  3.945693  0  0  -0.422964  0  3.954799  0  0  -0.245943  -0.41897  0  3.938842  0
S  S71  1  0.19556313  0.56046957  0.69465500  1  0  1.312051  0  5.615097  0  0  1.211412  0  6.133591  0  0  1.259833  0  6.108966  0  0  0.514864  1.177986  0  6.149835  0
S  S72  1  0.80443617  0.43952851  0.30534506  1  0  1.312057  0  5.614878  0  0  1.211395  0  6.13341  0  0  1.259813  0  6.108781  0  0  0.514852  1.17797  0  6.14966  0
N  N73  1  0.50453394  0.71207371  0.41295556  1  0  -0.406785  0  3.286405  0  0  -0.32607  0  3.565586  0  0  -0.348385  0  3.583824  0  0  -0.364103  -0.310554  0  3.552798  0
N  N74  1  0.49546115  0.28792668  0.58704211  1  0  -0.406807  0  3.286312  0  0  -0.326066  0  3.565475  0  0  -0.34838  0  3.58371  0  0  -0.3641  -0.310549  0  3.552687  0
N  N75  1  0.42354926  0.91322231  0.37498660  1  0  -0.055035  0  3.577387  0  0  0.037534  0  3.797346  0  0  0.022885  0  3.823926  0  0  -0.241593  0.047287  0  3.779354  0
N  N76  1  0.57644663  0.08677692  0.62501264  1  0  -0.055291  0  3.577624  0  0  0.037322  0  3.797603  0  0  0.022665  0  3.824195  0  0  -0.241601  0.047078  0  3.779607  0
O  O77  1  0.38285899  0.61550174  0.64735458  1  0  -0.704978  0  2.009498  0  0  -0.644074  0  2.282473  0  0  -0.667071  0  2.266384  0  0  -0.351126  -0.627683  0  2.293181  0
O  O78  1  0.61713553  0.38450338  0.35264322  1  0  -0.704975  0  2.009448  0  0  -0.644042  0  2.282387  0  0  -0.667059  0  2.26635  0  0  -0.351144  -0.62765  0  2.293097  0
O  O79  1  0.10506770  0.67779177  0.68574186  1  0  -0.684067  0  1.980969  0  0  -0.626984  0  2.227709  0  0  -0.64938  0  2.214007  0  0  -0.33801  -0.611392  0  2.237118  0
O  O80  1  0.89492143  0.32219799  0.31426094  1  0  -0.684144  0  1.980966  0  0  -0.627052  0  2.227709  0  0  -0.649448  0  2.214008  0  0  -0.338  -0.611459  0  2.237121  0
O  O81  1  0.07176313  0.39990794  0.65308028  1  0  -0.68314  0  1.974325  0  0  -0.625897  0  2.218336  0  0  -0.646796  0  2.203573  0  0  -0.34031  -0.611066  0  2.228308  0
O  O82  1  0.92823982  0.60009254  0.34692072  1  0  -0.683091  0  1.974249  0  0  -0.625837  0  2.218261  0  0  -0.646734  0  2.203496  0  0  -0.340285  -0.611005  0  2.228233  0
O  O83  1  0.17692131  0.34479411  0.45660809  1  0  -0.850069  0  1.83805  0  0  -0.79028  0  2.023004  0  0  -0.810963  0  1.990917  0  0  -0.597923  -0.775471  0  2.045111  0
O  O84  1  0.82307719  0.65520515  0.54339279  1  0  -0.850101  0  1.838046  0  0  -0.790292  0  2.023011  0  0  -0.810976  0  1.990924  0  0  -0.59792  -0.775484  0  2.045119  0
