# generated using pymatgen
data_K2H9C6NO7
_symmetry_space_group_name_H-M   'P 1'
_cell_length_a   4.87852083
_cell_length_b   13.24715840
_cell_length_c   18.01016955
_cell_angle_alpha   89.99967504
_cell_angle_beta   89.99954083
_cell_angle_gamma   89.99968247
_symmetry_Int_Tables_number   1
_chemical_formula_structural   K2H9C6NO7
_chemical_formula_sum   'K8 H36 C24 N4 O28'
_cell_volume   1163.93490937
_cell_formula_units_Z   4
loop_
 _symmetry_equiv_pos_site_id
 _symmetry_equiv_pos_as_xyz
  1  'x, y, z'
loop_
 _atom_site_type_symbol
 _atom_site_label
 _atom_site_symmetry_multiplicity
 _atom_site_fract_x
 _atom_site_fract_y
 _atom_site_fract_z
 _atom_site_occupancy
 _atom_site_hle17_bader_spin_density
 _atom_site_hle17_ddec_charge
 _atom_site_hle17_ddec_spin_density
 _atom_site_hle17_ddec_sum_bond_order
 _atom_site_hle17_magmom
 _atom_site_hse06_10hf_bader_spin_density
 _atom_site_hse06_10hf_ddec_charge
 _atom_site_hse06_10hf_ddec_spin_density
 _atom_site_hse06_10hf_ddec_sum_bond_order
 _atom_site_hse06_10hf_magmom
 _atom_site_hse06_bader_spin_density
 _atom_site_hse06_ddec_charge
 _atom_site_hse06_ddec_spin_density
 _atom_site_hse06_ddec_sum_bond_order
 _atom_site_hse06_magmom
 _atom_site_pbe_bader_spin_density
 _atom_site_pbe_cm5_charge
 _atom_site_pbe_ddec_charge
 _atom_site_pbe_ddec_spin_density
 _atom_site_pbe_ddec_sum_bond_order
 _atom_site_pbe_magmom
K  K0  1  0.45462274  0.18570446  0.92303430  1  0  0.929493  0  0.459847  0  0  0.889019  0  0.632566  0  0  0.902685  0  0.609597  0  0  0.792203  0.878556  0  0.649171  0
K  K1  1  0.04536001  0.81428917  0.42303259  1  0  0.929493  0  0.459863  0  0  0.889027  0  0.632574  0  0  0.902697  0  0.609599  0  0  0.79221  0.878557  0  0.649198  0
K  K2  1  0.95464858  0.31429405  0.07696372  1  0  0.929474  0  0.459861  0  0  0.889016  0  0.632567  0  0  0.902692  0  0.609586  0  0  0.792191  0.878562  0  0.64916  0
K  K3  1  0.54538320  0.68570954  0.57696868  1  0  0.92947  0  0.459855  0  0  0.889016  0  0.632546  0  0  0.902674  0  0.609585  0  0  0.792198  0.878549  0  0.64916  0
K  K4  1  0.00966493  0.66119358  0.07399903  1  0  0.921468  0  0.427528  0  0  0.873623  0  0.590444  0  0  0.889365  0  0.567332  0  0  0.788644  0.861816  0  0.607022  0
K  K5  1  0.49030972  0.33881182  0.57399558  1  0  0.921453  0  0.427536  0  0  0.873615  0  0.590437  0  0  0.88937  0  0.567305  0  0  0.788619  0.861808  0  0.607015  0
K  K6  1  0.50967344  0.83880823  0.92600398  1  0  0.921458  0  0.42752  0  0  0.873621  0  0.590425  0  0  0.889357  0  0.567325  0  0  0.788614  0.861814  0  0.607003  0
K  K7  1  0.99033160  0.16120549  0.42600458  1  0  0.921458  0  0.427559  0  0  0.873608  0  0.590481  0  0  0.889348  0  0.567374  0  0  0.788655  0.8618  0  0.607058  0
H  H8  1  0.27293342  0.99585414  0.17040636  1  0  0.270436  0  0.865438  0  0  0.249283  0  0.934368  0  0  0.25821  0  0.926804  0  0  0.317079  0.242833  0  0.9399  0
H  H9  1  0.22707116  0.00415051  0.67040543  1  0  0.270481  0  0.865458  0  0  0.24933  0  0.934341  0  0  0.258265  0  0.926764  0  0  0.317112  0.242877  0  0.939876  0
H  H10  1  0.77292930  0.50414864  0.82959442  1  0  0.270378  0  0.86554  0  0  0.249252  0  0.934393  0  0  0.258176  0  0.92684  0  0  0.317107  0.2428  0  0.939933  0
H  H11  1  0.72706630  0.49585450  0.32959419  1  0  0.270401  0  0.865465  0  0  0.249253  0  0.934383  0  0  0.258176  0  0.926836  0  0  0.317083  0.242801  0  0.939924  0
H  H12  1  0.81493468  0.89961714  0.15778255  1  0  0.133808  0  0.943431  0  0  0.144601  0  1.006247  0  0  0.148056  0  1.003559  0  0  0.127781  0.142048  0  1.008407  0
H  H13  1  0.68507421  0.10038356  0.65778186  1  0  0.133794  0  0.943416  0  0  0.14458  0  1.006265  0  0  0.14803  0  1.003587  0  0  0.127782  0.142029  0  1.008423  0
H  H14  1  0.31492686  0.60037951  0.84221647  1  0  0.133834  0  0.94341  0  0  0.144614  0  1.006248  0  0  0.148068  0  1.003566  0  0  0.127794  0.142062  0  1.008409  0
H  H15  1  0.18506853  0.39961777  0.34221951  1  0  0.133811  0  0.943399  0  0  0.144593  0  1.006231  0  0  0.148046  0  1.00355  0  0  0.127773  0.14204  0  1.008391  0
H  H16  1  0.66056478  0.96146029  0.08186437  1  0  0.116308  0  0.904913  0  0  0.134605  0  0.95504  0  0  0.137213  0  0.953149  0  0  0.137501  0.132674  0  0.956571  0
H  H17  1  0.83943406  0.03854100  0.58186305  1  0  0.116278  0  0.904915  0  0  0.134613  0  0.95502  0  0  0.137221  0  0.953128  0  0  0.137489  0.132682  0  0.956551  0
H  H18  1  0.16055974  0.53853969  0.91813610  1  0  0.116337  0  0.904913  0  0  0.134655  0  0.955022  0  0  0.137263  0  0.953134  0  0  0.137533  0.132724  0  0.956554  0
H  H19  1  0.33943341  0.46146001  0.41813744  1  0  0.116333  0  0.904932  0  0  0.134649  0  0.955037  0  0  0.137258  0  0.953146  0  0  0.137512  0.132718  0  0.956569  0
H  H20  1  0.78668830  0.10147093  0.15299694  1  0  0.12604  0  0.95305  0  0  0.133669  0  1.022334  0  0  0.137149  0  1.019729  0  0  0.121537  0.131134  0  1.024362  0
H  H21  1  0.71332688  0.89853057  0.65299344  1  0  0.125939  0  0.953152  0  0  0.133728  0  1.022278  0  0  0.137209  0  1.019673  0  0  0.121564  0.131195  0  1.024307  0
H  H22  1  0.28667178  0.39852566  0.84700755  1  0  0.125911  0  0.953179  0  0  0.133677  0  1.022334  0  0  0.137158  0  1.019727  0  0  0.121542  0.131143  0  1.024364  0
H  H23  1  0.21331117  0.60147007  0.34700303  1  0  0.126058  0  0.952995  0  0  0.133654  0  1.022323  0  0  0.137136  0  1.019717  0  0  0.121525  0.13112  0  1.02435  0
H  H24  1  0.53533623  0.14931063  0.21591990  1  0  0.122954  0  0.914268  0  0  0.138441  0  0.968481  0  0  0.141184  0  0.966421  0  0  0.130612  0.136368  0  0.970198  0
H  H25  1  0.96466683  0.85069037  0.71591938  1  0  0.122936  0  0.914269  0  0  0.138453  0  0.968495  0  0  0.1412  0  0.966431  0  0  0.130616  0.136383  0  0.970214  0
H  H26  1  0.03533254  0.35068798  0.78408014  1  0  0.122882  0  0.914242  0  0  0.138378  0  0.968494  0  0  0.14112  0  0.966432  0  0  0.130596  0.136307  0  0.970213  0
H  H27  1  0.46466047  0.64931201  0.28407987  1  0  0.122927  0  0.914241  0  0  0.138412  0  0.96846  0  0  0.141157  0  0.966401  0  0  0.1306  0.136341  0  0.970178  0
H  H28  1  0.70595028  0.99517160  0.28480737  1  0  0.127162  0  0.949657  0  0  0.138756  0  1.009315  0  0  0.142477  0  1.006794  0  0  0.126047  0.136113  0  1.011222  0
H  H29  1  0.79406100  0.00482887  0.78480906  1  0  0.127026  0  0.94978  0  0  0.138754  0  1.009284  0  0  0.142473  0  1.006757  0  0  0.126034  0.136108  0  1.01119  0
H  H30  1  0.20594355  0.50483056  0.71519189  1  0  0.127079  0  0.949723  0  0  0.138739  0  1.009302  0  0  0.142461  0  1.006779  0  0  0.126031  0.136095  0  1.011208  0
H  H31  1  0.29404536  0.49517072  0.21519485  1  0  0.127172  0  0.949603  0  0  0.138731  0  1.009313  0  0  0.142451  0  1.006793  0  0  0.126041  0.136086  0  1.011222  0
H  H32  1  0.50184436  0.88583672  0.27006226  1  0  0.125123  0  0.920073  0  0  0.136656  0  0.981191  0  0  0.139859  0  0.978731  0  0  0.12925  0.134326  0  0.983124  0
H  H33  1  0.99815915  0.11416462  0.77006195  1  0  0.125091  0  0.920087  0  0  0.136611  0  0.981239  0  0  0.139812  0  0.978775  0  0  0.12922  0.134278  0  0.983171  0
H  H34  1  0.00183352  0.61416360  0.72993799  1  0  0.125095  0  0.920015  0  0  0.136605  0  0.981173  0  0  0.139809  0  0.978713  0  0  0.129217  0.134274  0  0.983105  0
H  H35  1  0.49815495  0.38583531  0.22993986  1  0  0.125143  0  0.920023  0  0  0.136656  0  0.98116  0  0  0.139859  0  0.978698  0  0  0.12926  0.134324  0  0.983092  0
H  H36  1  0.44795734  0.20867012  0.73587278  1  0  0.414113  0  0.895245  0  0  0.386971  0  0.954894  0  0  0.396731  0  0.940488  0  0  0.284449  0.3801  0  0.965039  0
H  H37  1  0.05203710  0.79132874  0.23587393  1  0  0.414152  0  0.895209  0  0  0.387003  0  0.954869  0  0  0.396762  0  0.940467  0  0  0.284434  0.380131  0  0.965016  0
H  H38  1  0.94796773  0.29132765  0.26412525  1  0  0.41402  0  0.895371  0  0  0.386846  0  0.955084  0  0  0.39661  0  0.940672  0  0  0.284367  0.379975  0  0.96523  0
H  H39  1  0.55204006  0.70866996  0.76412789  1  0  0.41412  0  0.895238  0  0  0.386978  0  0.954886  0  0  0.396738  0  0.940481  0  0  0.284449  0.380107  0  0.965032  0
H  H40  1  0.58329026  0.30694604  0.76289771  1  0  0.412123  0  0.897587  0  0  0.384142  0  0.959605  0  0  0.393638  0  0.945607  0  0  0.284852  0.377433  0  0.969495  0
H  H41  1  0.91670527  0.69305007  0.26289737  1  0  0.41205  0  0.897677  0  0  0.384075  0  0.959691  0  0  0.393572  0  0.945691  0  0  0.284819  0.377366  0  0.96958  0
H  H42  1  0.08329283  0.19304945  0.23710277  1  0  0.412162  0  0.897526  0  0  0.384186  0  0.959558  0  0  0.393682  0  0.945558  0  0  0.284845  0.377471  0  0.96946  0
H  H43  1  0.41671182  0.80694713  0.73710254  1  0  0.4121  0  0.897612  0  0  0.384118  0  0.959633  0  0  0.393615  0  0.945634  0  0  0.284829  0.37741  0  0.969522  0
C  C44  1  0.61729708  0.92240195  0.13425490  1  0  -0.173745  0  3.526029  0  0  -0.233152  0  3.775363  0  0  -0.234096  0  3.778823  0  0  -0.056448  -0.232521  0  3.773113  0
C  C45  1  0.88270635  0.07759894  0.63425277  1  0  -0.173522  0  3.525987  0  0  -0.233014  0  3.775398  0  0  -0.233957  0  3.778863  0  0  -0.056354  -0.232385  0  3.773147  0
C  C46  1  0.11729301  0.57759511  0.86574566  1  0  -0.173808  0  3.526087  0  0  -0.233219  0  3.775415  0  0  -0.234171  0  3.778881  0  0  -0.056493  -0.232587  0  3.773166  0
C  C47  1  0.38270579  0.42240198  0.36574763  1  0  -0.173715  0  3.526041  0  0  -0.233123  0  3.775357  0  0  -0.23407  0  3.778817  0  0  -0.056384  -0.232491  0  3.773106  0
C  C48  1  0.56841906  0.10134579  0.16721192  1  0  -0.181561  0  3.517172  0  0  -0.238992  0  3.761251  0  0  -0.240094  0  3.76545  0  0  -0.066177  -0.238248  0  3.758564  0
C  C49  1  0.93159775  0.89865484  0.66721183  1  0  -0.181344  0  3.517155  0  0  -0.239019  0  3.761306  0  0  -0.240122  0  3.765506  0  0  -0.066223  -0.238279  0  3.758622  0
C  C50  1  0.06840501  0.39865276  0.83278859  1  0  -0.181294  0  3.517093  0  0  -0.23893  0  3.761292  0  0  -0.240027  0  3.765476  0  0  -0.066222  -0.238189  0  3.758611  0
C  C51  1  0.43157836  0.60134610  0.33278860  1  0  -0.181608  0  3.517111  0  0  -0.239019  0  3.761212  0  0  -0.24013  0  3.765427  0  0  -0.066202  -0.238273  0  3.758525  0
C  C52  1  0.50546377  0.96833518  0.26526202  1  0  -0.177541  0  3.518318  0  0  -0.234251  0  3.763344  0  0  -0.235933  0  3.76769  0  0  -0.060506  -0.233203  0  3.760611  0
C  C53  1  0.99454398  0.03166620  0.76526039  1  0  -0.177281  0  3.518375  0  0  -0.234084  0  3.763382  0  0  -0.235752  0  3.76773  0  0  -0.060419  -0.233053  0  3.760695  0
C  C54  1  0.00545811  0.53166437  0.73473934  1  0  -0.177365  0  3.518221  0  0  -0.234107  0  3.763254  0  0  -0.235789  0  3.767598  0  0  -0.060431  -0.233062  0  3.760534  0
C  C55  1  0.49453637  0.46833525  0.23473920  1  0  -0.177543  0  3.518237  0  0  -0.23423  0  3.763295  0  0  -0.23591  0  3.767639  0  0  -0.060516  -0.233189  0  3.760583  0
C  C56  1  0.43851635  0.83015826  0.11887064  1  0  0.690075  0  3.935161  0  0  0.644874  0  4.242584  0  0  0.677799  0  4.233671  0  0  0.189588  0.62253  0  4.247907  0
C  C57  1  0.06150001  0.16984000  0.61887160  1  0  0.690077  0  3.935096  0  0  0.644935  0  4.242466  0  0  0.677859  0  4.233554  0  0  0.189552  0.622593  0  4.247785  0
C  C58  1  0.93850412  0.66983814  0.88112645  1  0  0.690184  0  3.934759  0  0  0.644988  0  4.242193  0  0  0.677914  0  4.233272  0  0  0.189592  0.622644  0  4.24752  0
C  C59  1  0.56149200  0.33016007  0.38112893  1  0  0.690019  0  3.935079  0  0  0.644848  0  4.242474  0  0  0.677772  0  4.233562  0  0  0.18956  0.622504  0  4.247791  0
C  C60  1  0.39061788  0.14031835  0.10293835  1  0  0.660922  0  3.977787  0  0  0.618652  0  4.286108  0  0  0.650388  0  4.279558  0  0  0.171076  0.597167  0  4.289724  0
C  C61  1  0.10940305  0.85967927  0.60294190  1  0  0.660884  0  3.977707  0  0  0.618649  0  4.28598  0  0  0.650386  0  4.279426  0  0  0.17112  0.597165  0  4.289593  0
C  C62  1  0.89059824  0.35967652  0.89705758  1  0  0.660851  0  3.977858  0  0  0.618585  0  4.286171  0  0  0.650322  0  4.279619  0  0  0.171106  0.597099  0  4.28979  0
C  C63  1  0.60938511  0.64031931  0.39706090  1  0  0.661018  0  3.977915  0  0  0.61872  0  4.286279  0  0  0.650461  0  4.279726  0  0  0.171118  0.597235  0  4.289893  0
C  C64  1  0.27437967  0.01402944  0.31186237  1  0  0.674574  0  3.945831  0  0  0.629831  0  4.255154  0  0  0.662252  0  4.247318  0  0  0.183788  0.607887  0  4.259699  0
C  C65  1  0.22562482  0.98597109  0.81185792  1  0  0.674437  0  3.945926  0  0  0.629677  0  4.255304  0  0  0.662092  0  4.247473  0  0  0.18366  0.607731  0  4.259846  0
C  C66  1  0.77438279  0.48596868  0.68814104  1  0  0.674521  0  3.945832  0  0  0.629758  0  4.255188  0  0  0.662178  0  4.247355  0  0  0.183743  0.607814  0  4.259734  0
C  C67  1  0.72561700  0.51402876  0.18813796  1  0  0.674607  0  3.945836  0  0  0.629868  0  4.255151  0  0  0.662289  0  4.247313  0  0  0.183812  0.607923  0  4.259699  0
N  N68  1  0.48027679  0.99595880  0.18503010  1  0  -0.023603  0  3.409392  0  0  0.056455  0  3.617848  0  0  0.04552  0  3.636617  0  0  -0.349498  0.063907  0  3.605152  0
N  N69  1  0.01972736  0.00404347  0.68502850  1  0  -0.024038  0  3.409531  0  0  0.056081  0  3.618063  0  0  0.045132  0  3.636835  0  0  -0.349638  0.063539  0  3.605364  0
N  N70  1  0.98027310  0.50404129  0.81497134  1  0  -0.02379  0  3.409455  0  0  0.056305  0  3.617957  0  0  0.045372  0  3.636719  0  0  -0.349553  0.063757  0  3.605262  0
N  N71  1  0.51972498  0.49595895  0.31497101  1  0  -0.023655  0  3.409339  0  0  0.056431  0  3.617766  0  0  0.045495  0  3.636529  0  0  -0.349541  0.06388  0  3.60507  0
O  O72  1  0.21016185  0.82381059  0.15220874  1  0  -0.68726  0  1.992397  0  0  -0.631311  0  2.22028  0  0  -0.656205  0  2.209167  0  0  -0.383944  -0.613934  0  2.227546  0
O  O73  1  0.28983917  0.17618590  0.65220528  1  0  -0.687212  0  1.992626  0  0  -0.631286  0  2.220485  0  0  -0.656179  0  2.209372  0  0  -0.383861  -0.613912  0  2.227749  0
O  O74  1  0.71015461  0.67618402  0.84778996  1  0  -0.687304  0  1.992349  0  0  -0.631356  0  2.220224  0  0  -0.656249  0  2.209107  0  0  -0.383924  -0.613979  0  2.227493  0
O  O75  1  0.78983635  0.32380993  0.34779475  1  0  -0.687179  0  1.992523  0  0  -0.631231  0  2.220395  0  0  -0.656124  0  2.209284  0  0  -0.383909  -0.613856  0  2.227658  0
O  O76  1  0.53088362  0.76781667  0.07171676  1  0  -0.757877  0  1.923967  0  0  -0.715049  0  2.158258  0  0  -0.738852  0  2.1463  0  0  -0.49569  -0.698226  0  2.165982  0
O  O77  1  0.96912986  0.23218394  0.57171269  1  0  -0.757943  0  1.92369  0  0  -0.715118  0  2.157926  0  0  -0.738927  0  2.145969  0  0  -0.495747  -0.698293  0  2.165647  0
O  O78  1  0.03086514  0.73218056  0.92828177  1  0  -0.757875  0  1.923712  0  0  -0.715046  0  2.15799  0  0  -0.738847  0  2.146028  0  0  -0.495654  -0.698222  0  2.165715  0
O  O79  1  0.46911131  0.26781605  0.42828585  1  0  -0.757899  0  1.923741  0  0  -0.715071  0  2.157993  0  0  -0.738878  0  2.146036  0  0  -0.495762  -0.698246  0  2.165713  0
O  O80  1  0.46966011  0.22183473  0.07286120  1  0  -0.766213  0  1.965952  0  0  -0.723569  0  2.207797  0  0  -0.747032  0  2.196048  0  0  -0.532497  -0.706911  0  2.215345  0
O  O81  1  0.03037401  0.77816841  0.57286248  1  0  -0.766141  0  1.966195  0  0  -0.72348  0  2.207985  0  0  -0.746938  0  2.196238  0  0  -0.532425  -0.706819  0  2.215529  0
O  O82  1  0.96962236  0.27816525  0.92713623  1  0  -0.766138  0  1.966301  0  0  -0.723462  0  2.20811  0  0  -0.746921  0  2.196363  0  0  -0.532417  -0.706805  0  2.215658  0
O  O83  1  0.53033756  0.72183562  0.42713772  1  0  -0.766243  0  1.965969  0  0  -0.723586  0  2.207821  0  0  -0.747047  0  2.196071  0  0  -0.532497  -0.706923  0  2.215367  0
O  O84  1  0.17950738  0.08941035  0.08647132  1  0  -0.654991  0  1.869682  0  0  -0.614302  0  2.087635  0  0  -0.636389  0  2.078002  0  0  -0.345503  -0.598844  0  2.093804  0
O  O85  1  0.32052429  0.91059495  0.58647420  1  0  -0.654958  0  1.869272  0  0  -0.614324  0  2.087232  0  0  -0.636413  0  2.077598  0  0  -0.345574  -0.598863  0  2.093404  0
O  O86  1  0.67947624  0.41059325  0.91352507  1  0  -0.654934  0  1.869257  0  0  -0.614293  0  2.087242  0  0  -0.636381  0  2.077611  0  0  -0.345572  -0.598833  0  2.093418  0
O  O87  1  0.82049842  0.58941226  0.41352648  1  0  -0.655  0  1.869785  0  0  -0.614313  0  2.08775  0  0  -0.636397  0  2.078116  0  0  -0.345524  -0.598853  0  2.093922  0
O  O88  1  0.09703706  0.06902117  0.27912428  1  0  -0.692047  0  1.966994  0  0  -0.639489  0  2.198414  0  0  -0.664252  0  2.188199  0  0  -0.364647  -0.62216  0  2.204959  0
O  O89  1  0.40296840  0.93098037  0.77912245  1  0  -0.691933  0  1.967218  0  0  -0.639377  0  2.198611  0  0  -0.664139  0  2.188401  0  0  -0.364586  -0.62205  0  2.20516  0
O  O90  1  0.59703797  0.43097808  0.72087563  1  0  -0.691975  0  1.967101  0  0  -0.639431  0  2.19852  0  0  -0.664192  0  2.188306  0  0  -0.36463  -0.622105  0  2.205066  0
O  O91  1  0.90295675  0.56902063  0.22087472  1  0  -0.692058  0  1.967001  0  0  -0.639491  0  2.198394  0  0  -0.664256  0  2.188188  0  0  -0.364677  -0.622156  0  2.204925  0
O  O92  1  0.27708939  0.99232124  0.38016508  1  0  -0.731186  0  1.893444  0  0  -0.690374  0  2.114901  0  0  -0.712277  0  2.102527  0  0  -0.460781  -0.67489  0  2.122946  0
O  O93  1  0.22291308  0.00767800  0.88016469  1  0  -0.731196  0  1.893275  0  0  -0.690382  0  2.114749  0  0  -0.712284  0  2.102378  0  0  -0.460801  -0.674893  0  2.122792  0
O  O94  1  0.77709347  0.50767700  0.61983514  1  0  -0.7312  0  1.893282  0  0  -0.690384  0  2.11475  0  0  -0.71229  0  2.10238  0  0  -0.460808  -0.674901  0  2.122801  0
O  O95  1  0.72290629  0.49232023  0.11983494  1  0  -0.731203  0  1.893453  0  0  -0.690389  0  2.114906  0  0  -0.712294  0  2.102532  0  0  -0.460812  -0.674909  0  2.122956  0
O  O96  1  0.55989415  0.23544917  0.77699825  1  0  -0.878562  0  1.733606  0  0  -0.839075  0  1.89093  0  0  -0.857387  0  1.863696  0  0  -0.668662  -0.825926  0  1.909837  0
O  O97  1  0.94009891  0.76454683  0.27699868  1  0  -0.878529  0  1.733678  0  0  -0.839047  0  1.890981  0  0  -0.857354  0  1.863732  0  0  -0.668617  -0.825912  0  1.909912  0
O  O98  1  0.05991247  0.26454562  0.22300228  1  0  -0.878513  0  1.733617  0  0  -0.839035  0  1.890872  0  0  -0.857345  0  1.863621  0  0  -0.668568  -0.825896  0  1.9098  0
O  O99  1  0.44010490  0.73545032  0.72300285  1  0  -0.878531  0  1.733595  0  0  -0.839058  0  1.890934  0  0  -0.857362  0  1.863687  0  0  -0.668641  -0.825917  0  1.909855  0
