# generated using pymatgen
data_Al2H12(C4O3)5
_symmetry_space_group_name_H-M   'P 1'
_cell_length_a   6.62409290
_cell_length_b   11.18947031
_cell_length_c   11.12039367
_cell_angle_alpha   71.92691145
_cell_angle_beta   71.71115856
_cell_angle_gamma   71.06562014
_symmetry_Int_Tables_number   1
_chemical_formula_structural   Al2H12(C4O3)5
_chemical_formula_sum   'Al2 H12 C20 O15'
_cell_volume   720.05703407
_cell_formula_units_Z   1
loop_
 _symmetry_equiv_pos_site_id
 _symmetry_equiv_pos_as_xyz
  1  'x, y, z'
loop_
 _atom_site_type_symbol
 _atom_site_label
 _atom_site_symmetry_multiplicity
 _atom_site_fract_x
 _atom_site_fract_y
 _atom_site_fract_z
 _atom_site_occupancy
 _atom_site_pbe_bader_charge
 _atom_site_pbe_bader_spin_density
 _atom_site_pbe_cm5_charge
 _atom_site_pbe_ddec_charge
 _atom_site_pbe_ddec_spin_density
 _atom_site_pbe_ddec_sum_bond_order
 _atom_site_pbe_magmom
Al  Al0  1  0.49890143  0.48998486  0.51911786  1  2.503053  0  0.397694  1.637932  0  2.583356  0
Al  Al1  1  0.99979025  0.49394838  0.51276750  1  2.503265  0  0.398563  1.632014  0  2.581711  0
H  H2  1  0.28392394  0.32752724  0.59727851  1  0.600187  0  0.351973  0.425663  0  0.863986  0
H  H3  1  0.69879489  0.65535973  0.42945312  1  0.647102  0  0.34813  0.422587  0  0.873021  0
H  H4  1  0.10794765  0.53668006  0.13394431  1  0.097927  0  0.107213  0.115251  0  1.008499  0
H  H5  1  0.78854909  0.45969661  0.13508388  1  0.103207  0  0.116473  0.141077  0  0.991327  0
H  H6  1  0.22020223  0.52455536  0.89987264  1  0.131094  0  0.109221  0.117346  0  1.027008  0
H  H7  1  0.25602923  0.25852789  0.31609656  1  0.092801  0  0.101441  0.121512  0  1.053859  0
H  H8  1  0.44239066  0.79592066  0.30534033  1  0.070035  0  0.103249  0.118153  0  1.044051  0
H  H9  1  0.96025840  0.43870448  0.80462102  1  0.637073  0  0.318204  0.363147  0  0.953206  0
H  H10  1  0.75699061  0.76919758  0.60840262  1  0.630238  0  0.314206  0.350345  0  0.963549  0
H  H11  1  0.58708395  0.19132113  0.62291502  1  0.615975  0  0.314188  0.344191  0  0.985945  0
H  H12  1  0.56843294  0.26790948  0.15272628  1  0.619485  0  0.306543  0.328434  0  0.965068  0
H  H13  1  0.73554962  0.83945574  0.14317605  1  0.583735  0  0.337379  0.361254  0  0.873642  0
C  C14  1  0.88874792  0.26507980  0.50698058  1  1.481177  0  0.270481  0.668385  0  4.019029  0
C  C15  1  0.62501734  0.47927015  0.74837092  1  1.525473  0  0.268401  0.651817  0  4.071473  0
C  C16  1  0.12426597  0.72368627  0.50221215  1  1.479627  0  0.273255  0.672329  0  4.043758  0
C  C17  1  0.37513083  0.50643336  0.28639832  1  1.542128  0  0.264097  0.630144  0  4.105558  0
C  C18  1  0.56535208  0.48632080  0.88580627  1  0.003409  0  -0.025467  -0.183206  0  3.951519  0
C  C19  1  0.44162429  0.50080449  0.14671258  1  -0.058917  0  -0.016407  -0.039159  0  4.033555  0
C  C20  1  0.72893130  0.46743067  0.95235047  1  0.556454  0  0.103984  0.32667  0  4.042361  0
C  C21  1  0.27970532  0.51884867  0.08120255  1  -0.045151  0  -0.094496  -0.129955  0  3.99613  0
C  C22  1  0.66407743  0.47513428  0.08324001  1  -0.024685  0  -0.09358  -0.226621  0  3.924788  0
C  C23  1  0.34260499  0.51212825  0.95192803  1  0.0017  0  -0.071419  -0.042814  0  3.965873  0
C  C24  1  0.94954764  0.13212837  0.48896257  1  0.062505  0  -0.030748  -0.236742  0  3.93877  0
C  C25  1  0.15472293  0.07890180  0.40483602  1  0.007256  0  -0.00973  0.087864  0  3.995646  0
C  C26  1  0.79890792  0.05551849  0.55741064  1  0.550189  0  0.094008  0.221014  0  4.026139  0
C  C27  1  0.29703374  0.15585835  0.31779090  1  -0.010497  0  -0.12166  -0.288694  0  4.002535  0
C  C28  1  0.48549893  0.10593630  0.23169609  1  0.530832  0  0.073569  0.228011  0  4.086109  0
C  C29  1  0.06191195  0.86531764  0.48452414  1  0.069467  0  -0.032502  -0.233974  0  3.966057  0
C  C30  1  0.85415976  0.92193301  0.55394840  1  0.569333  0  0.091849  0.216683  0  4.040754  0
C  C31  1  0.21052031  0.94444982  0.40284964  1  0.036465  0  -0.013192  0.084506  0  4.006343  0
C  C32  1  0.40314370  0.89595757  0.31309756  1  0.003949  0  -0.123951  -0.300426  0  4.042799  0
C  C33  1  0.53919092  0.97312698  0.22901033  1  0.459301  0  0.06947  0.215879  0  4.106811  0
O  O34  1  0.68084936  0.31691335  0.54948904  1  -1.269094  0  -0.244792  -0.627752  0  2.395458  0
O  O35  1  0.83250766  0.45381969  0.69185476  1  -1.2617  0  -0.241951  -0.615325  0  2.38585  0
O  O36  1  0.96970782  0.66363935  0.53622135  1  -1.269941  0  -0.244677  -0.617307  0  2.350107  0
O  O37  1  0.52764594  0.48123076  0.34417290  1  -1.249259  0  -0.237342  -0.587906  0  2.347505  0
O  O38  1  0.32575554  0.66290850  0.48710618  1  -1.268399  0  -0.227579  -0.591246  0  2.413335  0
O  O39  1  0.16938380  0.53624504  0.33811784  1  -1.267804  0  -0.237993  -0.6003  0  2.358738  0
O  O40  1  0.03288016  0.32626311  0.48615563  1  -1.266056  0  -0.226172  -0.572368  0  2.344617  0
O  O41  1  0.47309484  0.49806682  0.69284770  1  -1.244969  0  -0.227048  -0.566724  0  2.329436  0
O  O42  1  0.25115039  0.42158700  0.57956958  1  -1.405109  0  -0.445017  -0.975474  0  2.155349  0
O  O43  1  0.74281616  0.56122714  0.45547680  1  -1.453517  0  -0.450516  -0.987094  0  2.194593  0
O  O44  1  0.94520518  0.44210656  0.89603824  1  -1.136615  0  -0.332915  -0.423368  0  2.294392  0
O  O45  1  0.69935592  0.85766564  0.62572448  1  -1.125311  0  -0.339702  -0.40067  0  2.283021  0
O  O46  1  0.60122638  0.09700720  0.63435185  1  -1.114326  0  -0.342448  -0.402798  0  2.282542  0
O  O47  1  0.62424267  0.17755337  0.14524051  1  -1.150547  0  -0.351903  -0.414476  0  2.297504  0
O  O48  1  0.72380697  0.92953110  0.13968984  1  -1.092548  0  -0.350382  -0.417807  0  2.250376  0
