# generated using pymatgen
data_Cu3P4H26C10(NO5)4
_symmetry_space_group_name_H-M   'P 1'
_cell_length_a   7.96942691
_cell_length_b   9.68871610
_cell_length_c   10.08820856
_cell_angle_alpha   92.99140922
_cell_angle_beta   112.83404515
_cell_angle_gamma   100.82916627
_symmetry_Int_Tables_number   1
_chemical_formula_structural   Cu3P4H26C10(NO5)4
_chemical_formula_sum   'Cu3 P4 H26 C10 N4 O20'
_cell_volume   698.35208701
_cell_formula_units_Z   1
loop_
 _symmetry_equiv_pos_site_id
 _symmetry_equiv_pos_as_xyz
  1  'x, y, z'
loop_
 _atom_site_type_symbol
 _atom_site_label
 _atom_site_symmetry_multiplicity
 _atom_site_fract_x
 _atom_site_fract_y
 _atom_site_fract_z
 _atom_site_occupancy
 _atom_site_hle17_ddec_charge
 _atom_site_hle17_ddec_spin_density
 _atom_site_hle17_ddec_sum_bond_order
 _atom_site_hle17_magmom
 _atom_site_hse06_10hf_ddec_charge
 _atom_site_hse06_10hf_ddec_spin_density
 _atom_site_hse06_10hf_ddec_sum_bond_order
 _atom_site_hse06_10hf_magmom
 _atom_site_hse06_ddec_charge
 _atom_site_hse06_ddec_spin_density
 _atom_site_hse06_ddec_sum_bond_order
 _atom_site_hse06_magmom
 _atom_site_pbe_cm5_charge
 _atom_site_pbe_ddec_charge
 _atom_site_pbe_ddec_spin_density
 _atom_site_pbe_ddec_sum_bond_order
 _atom_site_pbe_magmom
Cu  Cu0  1  0.49852022  0.50049160  0.00008257  1  1.117453  0.699605  1.588058  0.529  1.124618  0.823214  1.960314  0.682  1.202982  0.887709  1.907662  0.766  0.74162  1.072642  0.749075  1.997981  0.603
Cu  Cu1  1  0.81136789  0.61198149  0.67073109  1  1.063621  -0.710332  1.603475  -0.528  1.083515  -0.837159  1.96522  -0.685  1.167399  -0.916103  1.912195  -0.777  0.719124  1.012077  -0.754454  2.020775  -0.606
Cu  Cu2  1  0.18736454  0.38729448  0.32924863  1  1.07056  0.710923  1.603307  0.546  1.092846  0.82181  1.956283  0.691  1.176245  0.888915  1.901687  0.778  0.723944  1.018739  0.76639  2.021905  0.627
P  P3  1  0.65672125  0.74329639  0.85745889  1  1.358836  -0.001248  4.916484  0.0  1.211782  -0.000928  5.425115  0.0  1.266615  -0.000776  5.389365  0.0  0.305405  1.173682  -0.000993  5.44846  0.0
P  P4  1  0.34316474  0.25603171  0.14320486  1  1.358991  -0.000292  4.914897  -0.004  1.212454  0.005038  5.42258  0.001  1.267405  0.004096  5.38679  0.001  0.307837  1.173574  0.005571  5.444684  0.001
P  P5  1  0.38435524  0.48520426  0.65731231  1  1.370148  0.001904  4.951679  0.0  1.232368  0.00591  5.453801  0.004  1.287562  0.00492  5.417437  0.004  0.310487  1.193198  0.006262  5.475323  0.004
P  P6  1  0.61419941  0.51556556  0.34210933  1  1.36679  0.001235  4.947751  0.001  1.230556  0.001137  5.451722  0.001  1.286724  0.0005  5.415514  0.001  0.310707  1.189832  0.001859  5.4741  0.001
H  H7  1  0.44851419  0.21851881  0.66584658  1  0.132813  -0.000155  0.983736  0.0  0.141359  -0.000134  1.04114  0.0  0.144565  -8.3e-05  1.039184  0.0  0.129498  0.138264  -0.000163  1.043296  0.0
H  H8  1  0.55622063  0.78333260  0.33713743  1  0.132157  0.000115  0.984071  0.0  0.141424  0.000135  1.040946  0.0  0.144693  8.4e-05  1.038902  0.0  0.130062  0.138332  0.000179  1.043087  0.0
H  H9  1  0.37624744  0.94058247  0.52681902  1  0.135627  4e-06  0.947178  0.0  0.1454  1.6e-05  1.001924  0.0  0.148477  1.1e-05  1.000078  0.0  0.132855  0.14284  1.3e-05  1.004064  0.0
H  H10  1  0.62825320  0.06138490  0.47527199  1  0.136152  -5e-06  0.946374  0.0  0.14577  -1.1e-05  1.001183  0.0  0.148782  -8e-06  0.99938  0.0  0.132836  0.143312  1.1e-05  1.003189  0.0
H  H11  1  0.27648687  0.92544201  0.90981191  1  0.129658  -2e-06  0.899335  0.0  0.141195  -1.8e-05  0.953477  0.0  0.14379  -1.2e-05  0.950688  0.0  0.158092  0.138988  -1.7e-05  0.956141  0.0
H  H12  1  0.72314421  0.07556690  0.09020631  1  0.128468  -2.9e-05  0.898884  0.0  0.140557  -1.4e-05  0.952876  0.0  0.143142  -1.1e-05  0.950092  0.0  0.157788  0.138275  -1e-05  0.955742  0.0
H  H13  1  0.15616063  0.69579658  0.57981773  1  0.113553  0.000134  0.901255  0.0  0.126681  7.4e-05  0.960896  0.0  0.128103  6.2e-05  0.959503  0.0  0.120485  0.125917  7.6e-05  0.961551  0.0
H  H14  1  0.84469180  0.30652809  0.41967755  1  0.113783  -0.000108  0.902049  0.0  0.12654  -0.000101  0.962468  0.0  0.127929  -8.8e-05  0.961035  0.0  0.120725  0.125944  -9.6e-05  0.962966  0.0
H  H15  1  0.23907802  0.69458023  0.77109462  1  0.097089  7.2e-05  0.933233  0.0  0.105259  0.000141  1.008007  0.0  0.106135  0.000142  1.006592  0.0  0.122649  0.105118  0.000111  1.008323  0.0
H  H16  1  0.76026465  0.30656780  0.22819548  1  0.096403  -0.000242  0.935729  0.0  0.10526  -0.000267  1.010099  0.0  0.106216  -0.000254  1.00871  0.0  0.123107  0.105022  -0.000232  1.010302  0.0
H  H17  1  0.37668501  0.18758840  0.89183483  1  0.339435  0.000129  0.917774  0.0  0.314998  0.000179  0.982705  0.0  0.32528  9e-05  0.97455  0.0  0.313913  0.307593  0.000278  0.988635  0.0
H  H18  1  0.62441213  0.81357549  0.10929338  1  0.339853  6.2e-05  0.916451  0.0  0.315349  9e-05  0.981504  0.0  0.32566  4.6e-05  0.973273  0.0  0.314039  0.307889  0.000161  0.987716  0.0
H  H19  1  0.46417652  0.66008610  0.48655277  1  0.381196  -0.000107  0.935611  0.0  0.352526  -5.1e-05  1.014389  0.0  0.362882  -4.2e-05  0.999249  0.0  0.29024  0.345442  -4.7e-05  1.024205  0.0
H  H20  1  0.53461976  0.34025927  0.51320094  1  0.382338  4.5e-05  0.937425  0.0  0.353412  3e-05  1.014401  0.0  0.363799  2.4e-05  0.999204  0.0  0.290497  0.346383  5e-05  1.024498  0.0
H  H21  1  0.05077035  0.43969106  0.70864037  1  0.434902  -0.000123  0.828868  0.0  0.418411  -0.000364  0.885179  -0.001  0.429704  -0.000284  0.868807  0.0  0.307072  0.409589  -0.000395  0.895629  -0.001
H  H22  1  0.94616519  0.55954491  0.28685012  1  0.435549  0.000179  0.826511  0.0  0.41934  0.000494  0.882657  0.001  0.430672  0.000347  0.866953  0.0  0.30787  0.410663  0.000596  0.892452  0.001
H  H23  1  0.06079132  0.50763181  0.85727025  1  0.424069  7.8e-05  0.887331  0.0  0.395856  -0.000159  0.948477  0.0  0.407429  -6.3e-05  0.931672  0.0  0.285174  0.387588  -0.00024  0.960411  0.0
H  H24  1  0.93672031  0.48890916  0.13953571  1  0.424114  -7.8e-05  0.88738  0.0  0.395508  0.000154  0.949174  0.0  0.407104  6.8e-05  0.932312  0.0  0.285809  0.387265  0.000234  0.961056  0.0
H  H25  1  0.84752915  0.87841723  0.74939926  1  0.429862  0.000654  0.85511  0.001  0.405486  0.000118  0.919326  0.0  0.417407  0.000104  0.902347  0.0  0.295988  0.396868  0.00014  0.931601  0.0
H  H26  1  0.15388457  0.12095598  0.25360311  1  0.431044  -0.000253  0.852697  -0.001  0.407095  0.00023  0.916011  0.0  0.418893  6.6e-05  0.899206  0.0  0.297769  0.398423  0.000436  0.928311  0.0
H  H27  1  0.82436630  0.86050697  0.58666591  1  0.410004  0.000486  0.851137  0.001  0.38875  -3e-05  0.921714  0.0  0.397305  7.7e-05  0.912368  0.0  0.307815  0.382299  -0.00013  0.927969  0.0
H  H28  1  0.17851686  0.13988666  0.41653197  1  0.410445  -0.000532  0.850424  -0.001  0.388373  2.6e-05  0.922431  0.0  0.396769  -9e-05  0.913397  0.0  0.307728  0.382333  0.000132  0.927969  0.0
H  H29  1  0.81737127  0.34907068  0.92724462  1  0.437462  -2e-06  0.798157  0.0  0.426272  -3e-05  0.841283  0.0  0.434502  -2e-05  0.832385  0.0  0.324639  0.419842  -3e-05  0.848899  0.0
H  H30  1  0.17988100  0.64677954  0.06941163  1  0.438727  3e-06  0.796184  0.0  0.427188  -4.1e-05  0.8397  0.0  0.435572  -2.4e-05  0.830576  0.0  0.325209  0.420758  -5.9e-05  0.847294  0.0
H  H31  1  0.79094661  0.50582087  0.92363111  1  0.429406  1.9e-05  0.882759  0.0  0.395869  -3.6e-05  0.952006  0.0  0.407073  -1.1e-05  0.935634  0.0  0.291597  0.388054  -4.9e-05  0.963465  0.0
H  H32  1  0.20509236  0.48982981  0.07415876  1  0.428837  -0.000286  0.883907  0.0  0.395546  -0.000148  0.952632  0.0  0.406906  -0.00017  0.936067  0.0  0.29215  0.387455  -0.000111  0.964452  0.0
C  C33  1  0.39709143  0.11587373  0.69096791  1  0.007723  -0.000402  3.649476  0.0  -0.032202  -0.000168  3.91153  0.0  -0.030363  -9.1e-05  3.928713  0.0  0.015565  -0.033138  -0.000185  3.900254  0.0
C  C34  1  0.60674860  0.88574903  0.31121446  1  0.008524  0.000564  3.650119  0.001  -0.032022  0.000202  3.912012  0.0  -0.030085  9.6e-05  3.929082  0.0  0.014304  -0.032936  0.000299  3.900637  0.0
C  C35  1  0.36291441  0.98107783  0.62322789  1  -0.038249  -7.6e-05  3.629179  0.0  -0.081137  0.0  3.890494  0.0  -0.078905  3e-06  3.907715  0.0  0.014055  -0.08288  2.9e-05  3.87977  0.0
C  C36  1  0.64052997  0.02066432  0.37848167  1  -0.037179  0.00013  3.627563  0.0  -0.080415  6.3e-05  3.889401  0.0  -0.078317  3.8e-05  3.906845  0.0  0.015796  -0.082128  7.8e-05  3.878501  0.0
C  C37  1  0.31390123  0.96612499  0.82454457  1  0.211518  -0.000368  3.542855  0.0  0.137313  -0.000187  3.815676  0.0  0.154206  -0.000102  3.823454  0.0  0.179345  0.126175  -0.000167  3.810723  0.0
C  C38  1  0.68705080  0.03506393  0.17610597  1  0.213784  0.000236  3.541407  0.0  0.138503  0.00011  3.814848  0.0  0.155308  4.9e-05  3.822741  0.0  0.18064  0.127273  0.000123  3.809998  0.0
C  C39  1  0.27616313  0.73470781  0.68422174  1  -0.021863  5e-06  3.623404  0.0  -0.09409  0.000185  3.883241  0.0  -0.08773  0.000235  3.892743  0.0  -0.046318  -0.098379  8.5e-05  3.875938  0.0
C  C40  1  0.72431996  0.26676014  0.31567799  1  -0.02295  -0.000427  3.624185  0.0  -0.096246  -0.000391  3.885947  0.0  -0.089978  -0.00039  3.895489  0.0  -0.047119  -0.100377  -0.000252  3.878541  0.0
C  C41  1  0.44557704  0.68171102  0.68254368  1  -0.240895  0.001918  3.699202  0.002  -0.20378  0.000499  3.951459  0.001  -0.214428  5.1e-05  3.963003  0.0  0.041409  -0.196252  0.001039  3.942919  0.002
C  C42  1  0.55454061  0.31895160  0.31770589  1  -0.240598  -0.00159  3.701026  -0.001  -0.203778  -0.000891  3.954349  -0.001  -0.214337  -0.000783  3.965739  -0.001  0.041134  -0.196536  -0.00084  3.945945  -0.001
N  N43  1  0.31245597  0.88940535  0.70908896  1  -0.035053  -0.000207  3.551543  0.0  0.057893  -0.000125  3.771998  0.0  0.042819  -6.2e-05  3.797376  0.0  -0.225999  0.067992  -0.00016  3.754465  0.0
N  N44  1  0.68928598  0.11208176  0.29171392  1  -0.034773  0.000223  3.550549  0.0  0.058298  7e-05  3.771858  0.0  0.043157  2.2e-05  3.797485  0.0  -0.227577  0.068224  0.000154  3.754545  0.0
N  N45  1  0.36426898  0.10320971  0.81461228  1  -0.253341  0.000448  3.412677  0.001  -0.186238  0.000232  3.652156  0.0  -0.201716  0.000109  3.664573  0.0  -0.353733  -0.176221  0.000419  3.644018  0.001
N  N46  1  0.63790509  0.89802946  0.18683254  1  -0.254905  0.000299  3.412618  0.0  -0.187124  0.000283  3.652062  0.0  -0.202548  0.000157  3.664376  0.0  -0.35414  -0.177047  0.000456  3.643968  0.001
O  O47  1  0.49654653  0.73610618  0.57123836  1  -0.561285  -0.002345  2.16476  -0.003  -0.524159  -0.00287  2.395383  -0.004  -0.540153  -0.001883  2.383815  -0.003  -0.392368  -0.511139  -0.003608  2.401753  -0.005
O  O48  1  0.50435843  0.26397941  0.42906866  1  -0.564743  0.00256  2.165409  0.004  -0.526875  0.002474  2.395098  0.004  -0.542902  0.001484  2.383619  0.002  -0.393546  -0.513389  0.003695  2.401492  0.005
O  O49  1  0.73085486  0.90023288  0.86661181  1  -0.780179  0.011592  1.800942  0.015  -0.729096  0.005441  2.026179  0.007  -0.757926  0.00339  2.010544  0.005  -0.385813  -0.708277  0.008999  2.036478  0.012
O  O50  1  0.27128824  0.09892737  0.13456368  1  -0.784534  0.017168  1.802139  0.023  -0.730581  0.008159  2.025614  0.012  -0.758744  0.004667  2.009706  0.008  -0.386075  -0.707884  0.012572  2.03504  0.018
O  O51  1  0.80205992  0.65437015  0.85688613  1  -0.824999  -0.076181  2.087694  -0.1  -0.767306  -0.046943  2.36542  -0.066  -0.809414  -0.035232  2.347177  -0.051  -0.38981  -0.738172  -0.050991  2.378708  -0.069
O  O52  1  0.19606487  0.34337111  0.14392449  1  -0.822356  0.082578  2.089871  0.112  -0.767502  0.047395  2.368442  0.069  -0.81072  0.034311  2.350731  0.052  -0.389843  -0.735455  0.055329  2.381216  0.078
O  O53  1  0.58944001  0.69927538  0.97787931  1  -0.805988  0.042567  2.093737  0.06  -0.757754  0.033162  2.387565  0.049  -0.798487  0.027164  2.37034  0.042  -0.375452  -0.729889  0.036416  2.399399  0.052
O  O54  1  0.40838997  0.30146821  0.02217863  1  -0.806177  0.072495  2.095952  0.1  -0.757617  0.04679  2.389301  0.069  -0.798273  0.034527  2.372064  0.053  -0.375774  -0.727346  0.055532  2.399841  0.078
O  O55  1  0.55138534  0.43936210  0.64288445  1  -0.849793  -0.016551  2.102418  -0.022  -0.792601  -0.013419  2.368555  -0.019  -0.825268  -0.009572  2.3491  -0.014  -0.371595  -0.765283  -0.014523  2.379904  -0.02
O  O56  1  0.44611920  0.56095856  0.35486726  1  -0.842347  0.02303  2.091607  0.032  -0.789848  0.014075  2.358877  0.021  -0.823366  0.009234  2.339259  0.015  -0.370502  -0.762142  0.016844  2.371089  0.024
O  O57  1  0.34680922  0.44187458  0.78969062  1  -0.812968  0.072116  2.0222  0.098  -0.768254  0.043931  2.316157  0.064  -0.80675  0.032808  2.295731  0.05  -0.382521  -0.740836  0.050726  2.329305  0.071
O  O58  1  0.65319555  0.55755198  0.20970051  1  -0.805458  0.04936  2.019461  0.067  -0.765786  0.037075  2.315312  0.054  -0.806801  0.029212  2.295746  0.045  -0.37882  -0.735041  0.038181  2.32731  0.053
O  O59  1  0.19881798  0.43077888  0.52092928  1  -0.80463  0.07825  1.980462  0.105  -0.769539  0.042375  2.283575  0.06  -0.809877  0.030802  2.262133  0.045  -0.39756  -0.738162  0.049938  2.298046  0.069
O  O60  1  0.79923790  0.57283410  0.47815810  1  -0.799405  -0.059837  1.978248  -0.078  -0.765616  -0.03469  2.282321  -0.048  -0.807395  -0.026437  2.26176  -0.038  -0.395103  -0.732263  -0.036687  2.294818  -0.05
O  O61  1  0.97029235  0.46455515  0.75451166  1  -0.821021  -0.034331  1.877864  -0.046  -0.787163  -0.025961  2.074945  -0.038  -0.813322  -0.01955  2.037476  -0.03  -0.589191  -0.767271  -0.028959  2.100992  -0.04
O  O62  1  0.02696408  0.53335693  0.24189029  1  -0.822745  0.034696  1.874183  0.048  -0.789319  0.02581  2.071098  0.039  -0.815472  0.019129  2.033994  0.031  -0.590582  -0.768381  0.0303  2.097398  0.043
O  O63  1  0.89919436  0.83911383  0.68245705  1  -0.798591  -0.044704  1.905506  -0.059  -0.76851  -0.03607  2.106655  -0.051  -0.797017  -0.027018  2.077175  -0.041  -0.560011  -0.748448  -0.040073  2.127996  -0.055
O  O64  1  0.10282384  0.16064208  0.32064480  1  -0.796784  0.047049  1.907105  0.064  -0.769137  0.036229  2.109047  0.053  -0.797742  0.026575  2.07969  0.042  -0.55877  -0.747242  0.042503  2.130558  0.059
O  O65  1  0.78802753  0.42228398  0.97896371  1  -0.828337  -0.000628  1.849669  0.0  -0.787711  -0.00063  2.031687  0.0  -0.805175  -0.000796  1.999762  0.0  -0.57481  -0.775655  -0.00033  2.055135  0.0
O  O66  1  0.20869182  0.57281990  0.01816721  1  -0.828751  -0.00149  1.854887  -0.001  -0.788164  -0.001523  2.038872  -0.001  -0.805997  -0.001367  2.00661  -0.001  -0.573943  -0.775692  -0.001486  2.062645  -0.001
