# generated using pymatgen
data_CdH22C26(NO3)2
_symmetry_space_group_name_H-M   'P 1'
_cell_length_a   9.04911852
_cell_length_b   10.16130062
_cell_length_c   14.74574510
_cell_angle_alpha   73.24413827
_cell_angle_beta   82.82960208
_cell_angle_gamma   63.66303832
_symmetry_Int_Tables_number   1
_chemical_formula_structural   CdH22C26(NO3)2
_chemical_formula_sum   'Cd2 H44 C52 N4 O12'
_cell_volume   1163.54294064
_cell_formula_units_Z   2
loop_
 _symmetry_equiv_pos_site_id
 _symmetry_equiv_pos_as_xyz
  1  'x, y, z'
loop_
 _atom_site_type_symbol
 _atom_site_label
 _atom_site_symmetry_multiplicity
 _atom_site_fract_x
 _atom_site_fract_y
 _atom_site_fract_z
 _atom_site_occupancy
 _atom_site_pbe_bader_spin_density
 _atom_site_pbe_cm5_charge
 _atom_site_pbe_ddec_charge
 _atom_site_pbe_ddec_spin_density
 _atom_site_pbe_ddec_sum_bond_order
 _atom_site_pbe_magmom
Cd  Cd0  1  0.24990095  0.22688968  0.55064628  1  0  0.775818  0.926503  0  2.175157  0
Cd  Cd1  1  0.75009886  0.77310891  0.44935462  1  0  0.775829  0.926523  0  2.175157  0
H  H2  1  0.37761457  0.43273573  0.38534929  1  0  0.115043  0.086418  0  1.028935  0
H  H3  1  0.62238586  0.56726397  0.61464999  1  0  0.115042  0.086408  0  1.028893  0
H  H4  1  0.38802263  0.52235492  0.21282072  1  0  0.107416  0.115793  0  1.027831  0
H  H5  1  0.61197630  0.47764819  0.78718003  1  0  0.1074  0.115782  0  1.027809  0
H  H6  1  0.12004554  0.26722244  0.19410223  1  0  0.105189  0.112435  0  1.031201  0
H  H7  1  0.87995276  0.73277956  0.80589607  1  0  0.105202  0.112462  0  1.031197  0
H  H8  1  0.12996017  0.17987447  0.36815785  1  0  0.116814  0.090672  0  1.016888  0
H  H9  1  0.87004138  0.82012520  0.63183998  1  0  0.116782  0.090626  0  1.016905  0
H  H10  1  0.30945156  0.64740678  0.07824752  1  0  0.098416  0.096138  0  1.047024  0
H  H11  1  0.69054687  0.35259747  0.92175168  1  0  0.098438  0.096175  0  1.047044  0
H  H12  1  0.30960406  0.73815386  0.90492787  1  0  0.095896  0.09118  0  1.043495  0
H  H13  1  0.69039875  0.26184803  0.09507146  1  0  0.095914  0.091218  0  1.043462  0
H  H14  1  0.24990048  0.60867853  0.80377450  1  0  0.099574  0.096605  0  1.019781  0
H  H15  1  0.75010294  0.39132447  0.19622320  1  0  0.099603  0.096673  0  1.01974  0
H  H16  1  0.19094062  0.38432146  0.88056863  1  0  0.095759  0.090031  0  1.044111  0
H  H17  1  0.80906493  0.61567924  0.11942801  1  0  0.095755  0.089992  0  1.044169  0
H  H18  1  0.19322127  0.28944798  0.05394757  1  0  0.09899  0.097261  0  1.03779  0
H  H19  1  0.80678365  0.71055161  0.94604867  1  0  0.099005  0.097273  0  1.037899  0
H  H20  1  0.02965101  0.32624098  0.72951217  1  0  0.114984  0.092197  0  1.010354  0
H  H21  1  0.97035092  0.67375531  0.27048699  1  0  0.115012  0.092255  0  1.010376  0
H  H22  1  0.02198732  0.24766724  0.90499894  1  0  0.103445  0.107873  0  1.040549  0
H  H23  1  0.97801299  0.75233020  0.09500011  1  0  0.103448  0.107843  0  1.040559  0
H  H24  1  0.48160634  0.85396715  0.89513472  1  0  0.102797  0.106336  0  1.040489  0
H  H25  1  0.51839400  0.14603031  0.10487112  1  0  0.102808  0.106366  0  1.040455  0
H  H26  1  0.47179552  0.95350111  0.72047470  1  0  0.114122  0.089474  0  1.014645  0
H  H27  1  0.52820670  0.04648955  0.27953031  1  0  0.114125  0.089505  0  1.014664  0
H  H28  1  0.99083890  0.12799841  0.03664670  1  0  0.093371  0.088047  0  1.066715  0
H  H29  1  0.00915615  0.87200592  0.96335343  1  0  0.09337  0.08805  0  1.066807  0
H  H30  1  0.99179468  0.03915255  0.21151888  1  0  0.098619  0.102279  0  1.020194  0
H  H31  1  0.00820311  0.96086073  0.78848128  1  0  0.098613  0.102266  0  1.020106  0
H  H32  1  0.24838442  0.84509442  0.29761921  1  0  0.107683  0.117222  0  1.004476  0
H  H33  1  0.75160938  0.15491782  0.70238486  1  0  0.107701  0.117205  0  1.004427  0
H  H34  1  0.50743088  0.74206502  0.20901178  1  0  0.098305  0.100906  0  1.024902  0
H  H35  1  0.49256206  0.25794162  0.79099280  1  0  0.098281  0.100829  0  1.02496  0
H  H36  1  0.51151831  0.83435151  0.03451015  1  0  0.09313  0.088167  0  1.061315  0
H  H37  1  0.48847877  0.16564828  0.96549615  1  0  0.093118  0.088126  0  1.061376  0
H  H38  1  0.53331322  0.22258168  0.59154177  1  0  0.283389  0.369342  0  0.977936  0
H  H39  1  0.46668984  0.77741458  0.40845595  1  0  0.283386  0.369312  0  0.977974  0
H  H40  1  0.60790839  0.09653478  0.52968557  1  0  0.281672  0.381598  0  0.963956  0
H  H41  1  0.39209354  0.90346151  0.47031224  1  0  0.281684  0.381599  0  0.963949  0
H  H42  1  0.89515924  0.38325507  0.52429449  1  0  0.281804  0.379409  0  0.966868  0
H  H43  1  0.10484310  0.61673783  0.47570871  1  0  0.281774  0.37936  0  0.966938  0
H  H44  1  0.96331375  0.20594657  0.58625813  1  0  0.282648  0.368175  0  0.979642  0
H  H45  1  0.03668406  0.79404643  0.41374065  1  0  0.282628  0.368069  0  0.979764  0
C  C46  1  0.32316154  0.39668731  0.34080025  1  0  0.048468  0.105542  0  3.955068  0
C  C47  1  0.67684002  0.60331236  0.65920030  1  0  0.048526  0.105598  0  3.954984  0
C  C48  1  0.32689076  0.44829030  0.24280657  1  0  -0.083206  -0.174534  0  3.921783  0
C  C49  1  0.67310980  0.55171164  0.75719428  1  0  -0.08329  -0.174592  0  3.921818  0
C  C50  1  0.25325056  0.40479053  0.18523010  1  0  0.011113  0.104806  0  3.976048  0
C  C51  1  0.74674672  0.59521375  0.81476715  1  0  0.011138  0.104849  0  3.976143  0
C  C52  1  0.18068342  0.30643712  0.23263490  1  0  -0.084856  -0.177815  0  3.923327  0
C  C53  1  0.81931777  0.69356594  0.76736771  1  0  -0.084855  -0.177868  0  3.923298  0
C  C54  1  0.18412719  0.25761094  0.33103286  1  0  0.049426  0.104461  0  3.944917  0
C  C55  1  0.81587336  0.74239100  0.66896528  1  0  0.049456  0.104536  0  3.94481  0
C  C56  1  0.25207676  0.46027972  0.08055622  1  0  -0.011227  0.046247  0  3.987481  0
C  C57  1  0.74792216  0.53972339  0.91944113  1  0  -0.011209  0.046315  0  3.987314  0
C  C58  1  0.28461372  0.58732833  0.03600552  1  0  -0.08846  -0.126283  0  3.958765  0
C  C59  1  0.71538408  0.41267481  0.96399328  1  0  -0.088512  -0.126379  0  3.958775  0
C  C60  1  0.28413332  0.63969764  0.93762254  1  0  -0.091127  -0.073951  0  4.007398  0
C  C61  1  0.71586836  0.36030428  0.06237687  1  0  -0.091138  -0.073984  0  4.007444  0
C  C62  1  0.25035654  0.56750934  0.88083865  1  0  -0.08765  -0.077445  0  3.978582  0
C  C63  1  0.74964176  0.43249266  0.11916101  1  0  -0.08771  -0.077576  0  3.978565  0
C  C64  1  0.21707898  0.44196246  0.92396307  1  0  -0.091646  -0.074434  0  4.009883  0
C  C65  1  0.78292270  0.55803946  0.07603499  1  0  -0.091627  -0.074341  0  4.009814  0
C  C66  1  0.21814690  0.38866400  0.02240576  1  0  -0.089214  -0.128407  0  3.962165  0
C  C67  1  0.78185540  0.61133903  0.97759202  1  0  -0.089215  -0.128436  0  3.962209  0
C  C68  1  0.12816029  0.22306750  0.76963349  1  0  0.045018  0.096429  0  3.957063  0
C  C69  1  0.87184253  0.77692426  0.23036651  1  0  0.044983  0.096362  0  3.956985  0
C  C70  1  0.12441046  0.17696537  0.86780336  1  0  -0.086945  -0.181223  0  3.956146  0
C  C71  1  0.87558798  0.82302874  0.13219719  1  0  -0.086918  -0.181113  0  3.956079  0
C  C72  1  0.25160377  0.04173789  0.91756665  1  0  0.011478  0.109799  0  3.976743  0
C  C73  1  0.74839305  0.95825740  0.08243582  1  0  0.011416  0.109688  0  3.976848  0
C  C74  1  0.37839568  0.95997402  0.86243431  1  0  -0.08681  -0.182685  0  3.960417  0
C  C75  1  0.62160553  0.04001891  0.13756965  1  0  -0.086857  -0.182704  0  3.960667  0
C  C76  1  0.37358904  0.01372910  0.76446585  1  0  0.045514  0.099757  0  3.958907  0
C  C77  1  0.62641267  0.98626269  0.23553626  1  0  0.045504  0.099703  0  3.959116  0
C  C78  1  0.25133642  0.98835544  0.02177920  1  0  -0.01805  0.041539  0  4.005432  0
C  C79  1  0.74866164  0.01164207  0.97822138  1  0  -0.018028  0.041614  0  4.005427  0
C  C80  1  0.10567154  0.04521399  0.07349767  1  0  -0.09526  -0.137545  0  3.990495  0
C  C81  1  0.89432502  0.95478693  0.92650437  1  0  -0.095316  -0.137662  0  3.990725  0
C  C82  1  0.10495801  0.99464762  0.17185028  1  0  -0.093096  -0.082058  0  4.013327  0
C  C83  1  0.89503729  0.00536121  0.82815096  1  0  -0.093068  -0.082033  0  4.01309  0
C  C84  1  0.24941223  0.88488124  0.22080608  1  0  -0.080793  -0.057335  0  3.937352  0
C  C85  1  0.75058532  0.11512754  0.77919567  1  0  -0.080785  -0.057246  0  3.937234  0
C  C86  1  0.39487334  0.82705948  0.17046182  1  0  -0.093632  -0.085552  0  4.014684  0
C  C87  1  0.60512460  0.17294591  0.82954329  1  0  -0.093585  -0.085415  0  4.014963  0
C  C88  1  0.39606012  0.87879854  0.07213346  1  0  -0.093469  -0.131633  0  3.981526  0
C  C89  1  0.60393707  0.12120349  0.92786967  1  0  -0.093468  -0.131678  0  3.981824  0
C  C90  1  0.33558426  0.48745973  0.59183729  1  0  0.217143  0.634555  0  4.300099  0
C  C91  1  0.66442606  0.51253523  0.40816148  1  0  0.217072  0.634489  0  4.300282  0
C  C92  1  0.27481572  0.64312851  0.59824088  1  0  -0.035694  -0.147372  0  3.962187  0
C  C93  1  0.72518618  0.35687790  0.40175287  1  0  -0.035639  -0.147339  0  3.962238  0
C  C94  1  0.21915116  0.77745900  0.59570274  1  0  -0.03305  -0.139966  0  3.953946  0
C  C95  1  0.78084799  0.22253846  0.40428895  1  0  -0.033062  -0.14  0  3.953893  0
C  C96  1  0.15831403  0.93983212  0.58490983  1  0  0.217214  0.636358  0  4.30248  0
C  C97  1  0.84168312  0.06016990  0.41508517  1  0  0.217127  0.636236  0  4.302707  0
N  N98  1  0.25332070  0.30247163  0.38496779  1  0  -0.328211  -0.253016  0  3.487042  0
N  N99  1  0.74668085  0.69752804  0.61503072  1  0  -0.328193  -0.253032  0  3.487095  0
N  N100  1  0.25061431  0.14323011  0.71826152  1  0  -0.331455  -0.242986  0  3.485279  0
N  N101  1  0.74938789  0.85676054  0.28173942  1  0  -0.331387  -0.242954  0  3.485246  0
O  O102  1  0.52841158  0.13245476  0.58031678  1  0  -0.593953  -0.77034  0  2.109728  0
O  O103  1  0.47158985  0.86754266  0.41968152  1  0  -0.593965  -0.770327  0  2.109774  0
O  O104  1  0.96957089  0.30448412  0.57723460  1  0  -0.592902  -0.766647  0  2.111799  0
O  O105  1  0.03042806  0.69550886  0.42276749  1  0  -0.592842  -0.766471  0  2.111973  0
O  O106  1  0.23270489  0.46393216  0.55323645  1  0  -0.314268  -0.557144  0  2.271008  0
O  O107  1  0.76730632  0.53605828  0.44676383  1  0  -0.314301  -0.557218  0  2.270988  0
O  O108  1  0.47798259  0.39268841  0.62184252  1  0  -0.296202  -0.522089  0  2.128844  0
O  O109  1  0.52202735  0.60730994  0.37815696  1  0  -0.296123  -0.521968  0  2.128844  0
O  O110  1  0.26000882  0.99502326  0.54336441  1  0  -0.315067  -0.560038  0  2.279221  0
O  O111  1  0.73999059  0.00497871  0.45663178  1  0  -0.315043  -0.559992  0  2.279222  0
O  O112  1  0.01696827  0.01102046  0.61492369  1  0  -0.294036  -0.523067  0  2.14028  0
O  O113  1  0.98302665  0.98898162  0.38507419  1  0  -0.293984  -0.522967  0  2.140357  0
