# generated using pymatgen
data_CoH22C14N2Cl2O
_symmetry_space_group_name_H-M   'P 1'
_cell_length_a   7.34051191
_cell_length_b   9.33601171
_cell_length_c   13.01621470
_cell_angle_alpha   110.01828349
_cell_angle_beta   90.00032550
_cell_angle_gamma   89.99988261
_symmetry_Int_Tables_number   1
_chemical_formula_structural   CoH22C14N2Cl2O
_chemical_formula_sum   'Co2 H44 C28 N4 Cl4 O2'
_cell_volume   838.12305733
_cell_formula_units_Z   2
loop_
 _symmetry_equiv_pos_site_id
 _symmetry_equiv_pos_as_xyz
  1  'x, y, z'
loop_
 _atom_site_type_symbol
 _atom_site_label
 _atom_site_symmetry_multiplicity
 _atom_site_fract_x
 _atom_site_fract_y
 _atom_site_fract_z
 _atom_site_occupancy
 _atom_site_hle17_ddec_charge
 _atom_site_hle17_ddec_spin_density
 _atom_site_hle17_ddec_sum_bond_order
 _atom_site_hle17_magmom
 _atom_site_hse06_10hf_ddec_charge
 _atom_site_hse06_10hf_ddec_spin_density
 _atom_site_hse06_10hf_ddec_sum_bond_order
 _atom_site_hse06_10hf_magmom
 _atom_site_hse06_ddec_charge
 _atom_site_hse06_ddec_spin_density
 _atom_site_hse06_ddec_sum_bond_order
 _atom_site_hse06_magmom
 _atom_site_pbe_cm5_charge
 _atom_site_pbe_ddec_charge
 _atom_site_pbe_ddec_spin_density
 _atom_site_pbe_ddec_sum_bond_order
 _atom_site_pbe_magmom
Co  Co0  1  0.63963704  0.46225569  0.74768877  1  0.832724  -2.799091  2.295762  -2.471  0.792137  -2.801385  2.790632  -2.535  0.888605  -2.854602  2.697436  -2.639  0.528798  0.721037  -2.756168  2.856463  -2.445
Co  Co1  1  0.13963525  0.53774245  0.25230961  1  0.832771  -2.799143  2.295804  -2.471  0.792112  -2.801408  2.790701  -2.535  0.888514  -2.854599  2.697525  -2.639  0.528763  0.720988  -2.756188  2.856502  -2.445
H  H2  1  0.17660020  0.65365353  0.59541301  1  0.115183  -0.000473  0.975777  0.0  0.122706  -0.000679  1.041727  0.0  0.127487  -0.00043  1.038564  0.0  0.101025  0.118875  -0.000944  1.044507  -0.001
H  H3  1  0.67660291  0.34634918  0.40458814  1  0.115169  -0.000473  0.975789  0.0  0.122698  -0.000679  1.041737  0.0  0.127478  -0.00043  1.038573  0.0  0.101026  0.11887  -0.000944  1.044518  -0.001
H  H4  1  0.88347883  0.52023524  0.58833525  1  0.082305  -0.001088  0.943947  -0.002  0.087742  -0.001059  1.014047  -0.001  0.090631  -0.000756  1.011392  -0.001  0.116751  0.085596  -0.001361  1.015835  -0.002
H  H5  1  0.38347199  0.47975376  0.41166092  1  0.082358  -0.001089  0.943939  -0.002  0.087759  -0.001059  1.014057  -0.001  0.090649  -0.000756  1.011402  -0.001  0.116767  0.085613  -0.001361  1.015847  -0.002
H  H6  1  0.94806857  0.51725039  0.90489753  1  0.088782  -0.001245  0.956481  -0.002  0.093664  -0.001199  1.02516  -0.001  0.096669  -0.000839  1.022759  -0.001  0.112659  0.091008  -0.00155  1.027748  -0.002
H  H7  1  0.44806533  0.48275228  0.09510217  1  0.088809  -0.001245  0.956419  -0.002  0.093699  -0.001199  1.025092  -0.001  0.096706  -0.000838  1.022689  -0.001  0.112663  0.09104  -0.00155  1.027688  -0.002
H  H8  1  0.25128331  0.64123774  0.92328789  1  0.12099  -0.000347  0.948559  0.0  0.129179  -0.000556  1.010743  0.0  0.133387  -0.000351  1.008711  0.0  0.109551  0.125554  -0.000778  1.013336  -0.001
H  H9  1  0.75128268  0.35876838  0.07671510  1  0.120904  -0.000347  0.948562  0.0  0.129117  -0.000556  1.010726  0.0  0.133325  -0.000351  1.008695  0.0  0.109538  0.125488  -0.000778  1.01331  -0.001
H  H10  1  0.13748348  0.90755159  0.74932020  1  0.067861  3.4e-05  0.960396  0.0  0.085312  -1.9e-05  1.021738  0.0  0.085092  -2.2e-05  1.023048  0.0  0.106354  0.085567  3.5e-05  1.020801  0.0
H  H11  1  0.63748121  0.09244770  0.25067999  1  0.06789  3.4e-05  0.960336  0.0  0.085324  -2e-05  1.021694  0.0  0.085103  -2.2e-05  1.023006  0.0  0.106352  0.085579  3.5e-05  1.020756  0.0
H  H12  1  0.27441357  0.03931826  0.71374376  1  0.085043  -0.000297  0.915939  0.0  0.103008  -0.000237  0.97196  0.0  0.104192  -0.000149  0.971161  0.0  0.115633  0.101972  -0.000344  0.972593  0.0
H  H13  1  0.77441485  0.96067987  0.28625505  1  0.085021  -0.000298  0.915952  0.0  0.102985  -0.000237  0.971976  0.0  0.10417  -0.000149  0.971175  0.0  0.11563  0.101946  -0.000344  0.972611  0.0
H  H14  1  0.36889011  0.15602943  0.91097480  1  0.044484  -0.00029  0.941191  0.0  0.062032  -0.000284  0.995719  0.0  0.062914  -0.000172  0.996181  0.0  0.086261  0.061216  -0.000426  0.995524  0.0
H  H15  1  0.86889107  0.84397097  0.08902563  1  0.044491  -0.000289  0.941185  0.0  0.062025  -0.000284  0.995731  0.0  0.062909  -0.000171  0.996192  0.0  0.08626  0.061209  -0.000426  0.995533  0.0
H  H16  1  0.30649731  0.93363661  0.97386553  1  0.089517  1.4e-05  0.97838  0.0  0.10918  1.2e-05  1.046307  0.0  0.109867  1.6e-05  1.047214  0.0  0.082069  0.108777  1.4e-05  1.045878  0.0
H  H17  1  0.80649693  0.06636379  0.02613317  1  0.089577  1.4e-05  0.978445  0.0  0.109198  1.2e-05  1.046403  0.0  0.109884  1.6e-05  1.047312  0.0  0.082099  0.108797  1.4e-05  1.045972  0.0
H  H18  1  0.07021666  0.95025267  0.95183144  1  0.094014  -3e-05  0.962633  0.0  0.1179  -1.8e-05  1.022742  0.0  0.118365  -1.6e-05  1.024324  0.0  0.083212  0.117546  -2e-05  1.021668  0.0
H  H19  1  0.57021790  0.04974662  0.04816700  1  0.09402  -3e-05  0.962671  0.0  0.117909  -1.8e-05  1.022765  0.0  0.118374  -1.6e-05  1.024345  0.0  0.083228  0.117556  -2e-05  1.021691  0.0
H  H20  1  0.18700617  0.09889055  0.05370322  1  0.105923  5e-05  0.965885  0.0  0.127724  8.4e-05  1.0271  0.0  0.129261  9.9e-05  1.02717  0.0  0.086556  0.126657  7.7e-05  1.02696  0.0
H  H21  1  0.68700747  0.90110873  0.94629636  1  0.105952  4.9e-05  0.965848  0.0  0.12773  8.4e-05  1.027089  0.0  0.129268  9.9e-05  1.027157  0.0  0.086541  0.12667  7.7e-05  1.026944  0.0
H  H22  1  0.08056293  0.29714836  0.97006439  1  0.101258  0.0001  0.96203  0.0  0.118406  7e-05  1.031576  0.0  0.119317  0.000125  1.032523  0.0  0.08098  0.117833  1.7e-05  1.030572  0.0
H  H23  1  0.58056638  0.70285206  0.02993128  1  0.101227  0.0001  0.962018  0.0  0.118377  6.9e-05  1.031554  0.0  0.119292  0.000125  1.032497  0.0  0.080956  0.117806  1.7e-05  1.030546  0.0
H  H24  1  0.95758181  0.15346465  0.86762253  1  0.091346  3.2e-05  0.962419  0.0  0.112938  3e-05  1.02647  0.0  0.114029  3.8e-05  1.027121  0.0  0.080745  0.112157  1.7e-05  1.025933  0.0
H  H25  1  0.45758346  0.84653344  0.13237302  1  0.091371  3.2e-05  0.962356  0.0  0.112925  3e-05  1.026467  0.0  0.114014  3.7e-05  1.02712  0.0  0.080729  0.112139  1.7e-05  1.025937  0.0
H  H26  1  0.12370911  0.26508365  0.82998644  1  0.094548  0.000266  0.962678  0.0  0.115022  0.000195  1.025782  0.0  0.115771  0.000169  1.026733  0.0  0.083137  0.114126  0.000234  1.02579  0.0
H  H27  1  0.62370845  0.73491334  0.17000931  1  0.094566  0.000266  0.962709  0.0  0.115063  0.000196  1.025786  0.0  0.11581  0.00017  1.026739  0.0  0.083154  0.114162  0.000234  1.025791  0.0
H  H28  1  0.70423152  0.87766342  0.76115770  1  0.081771  7e-05  0.940194  0.0  0.097223  0.000119  0.99966  0.0  0.098588  0.000134  0.998735  0.0  0.10903  0.096155  4.5e-05  1.000487  0.0
H  H29  1  0.20422931  0.12233586  0.23884194  1  0.081772  7e-05  0.940197  0.0  0.097254  0.000119  0.99964  0.0  0.098599  0.000134  0.998737  0.0  0.109037  0.096189  4.5e-05  1.000471  0.0
H  H30  1  0.60465799  0.06314781  0.80424331  1  0.077463  -8.2e-05  0.956311  0.0  0.090828  -9.1e-05  1.024291  0.0  0.09211  6e-06  1.023495  0.0  0.10056  0.089483  -0.000292  1.025058  0.0
H  H31  1  0.10465460  0.93685263  0.19575705  1  0.077479  -8.2e-05  0.956282  0.0  0.090844  -9.1e-05  1.024285  0.0  0.09213  6e-06  1.02348  0.0  0.100577  0.089497  -0.000292  1.025053  0.0
H  H32  1  0.51816721  0.03478053  0.61731780  1  0.036179  2e-05  0.940599  0.0  0.050464  5e-06  1.002671  0.0  0.051251  5.8e-05  1.002905  0.0  0.086064  0.0499  -2.2e-05  1.002093  0.0
H  H33  1  0.01816835  0.96522106  0.38268257  1  0.036216  2.1e-05  0.940582  0.0  0.050511  5e-06  1.002631  0.0  0.051298  5.9e-05  1.002864  0.0  0.086082  0.049944  -2.2e-05  1.002053  0.0
H  H34  1  0.82333763  0.02655160  0.53818289  1  0.103673  -1.9e-05  0.958188  0.0  0.127033  -4.7e-05  1.016007  0.0  0.128252  -1.9e-05  1.016363  0.0  0.086364  0.125881  -5.3e-05  1.016103  0.0
H  H35  1  0.32334092  0.97344995  0.46181768  1  0.103595  -1.9e-05  0.958192  0.0  0.126952  -4.7e-05  1.016025  0.0  0.128171  -1.9e-05  1.016382  0.0  0.086319  0.1258  -5.3e-05  1.016125  0.0
H  H36  1  0.91313036  0.93423301  0.62542059  1  0.088648  -0.000277  0.963545  0.0  0.110569  -0.000287  1.026223  0.0  0.111898  -0.000205  1.026449  0.0  0.076827  0.109526  -0.00037  1.026313  0.0
H  H37  1  0.41312967  0.06576852  0.37457873  1  0.088671  -0.000278  0.963582  0.0  0.110591  -0.000288  1.026246  0.0  0.111922  -0.000206  1.026467  0.0  0.076845  0.109549  -0.00037  1.026332  0.0
H  H38  1  0.82984595  0.12546997  0.68121091  1  0.090076  -9.2e-05  0.971511  0.0  0.105151  -0.000352  1.046515  0.0  0.105392  -0.000252  1.047726  0.0  0.08058  0.104792  -0.000472  1.046101  0.0
H  H39  1  0.32984668  0.87452930  0.31878835  1  0.090079  -9.2e-05  0.97148  0.0  0.105143  -0.000352  1.046494  0.0  0.105385  -0.000253  1.047704  0.0  0.080584  0.104784  -0.000472  1.046081  0.0
H  H40  1  0.60674234  0.80206712  0.45848631  1  0.102393  8.1e-05  0.946265  0.0  0.128369  7e-05  1.000016  0.0  0.12949  7.3e-05  1.000548  0.0  0.086112  0.127157  5.2e-05  1.000193  0.0
H  H41  1  0.10674435  0.19793331  0.54151407  1  0.102414  8.1e-05  0.946245  0.0  0.128382  7e-05  1.000007  0.0  0.129497  7.3e-05  1.000543  0.0  0.086113  0.127164  5.2e-05  1.000186  0.0
H  H42  1  0.44342996  0.75711683  0.54265471  1  0.083519  2.8e-05  0.979798  0.0  0.099184  -3.8e-05  1.054945  0.0  0.099952  -3e-06  1.055655  0.0  0.076333  0.098608  -7.1e-05  1.054468  0.0
H  H43  1  0.94343211  0.24288242  0.45734569  1  0.083546  2.8e-05  0.979769  0.0  0.099206  -3.8e-05  1.054935  0.0  0.099973  -3e-06  1.055645  0.0  0.076347  0.09863  -7.1e-05  1.054457  0.0
H  H44  1  0.67729249  0.71017762  0.55006536  1  0.091719  -4.9e-05  0.963571  0.0  0.111999  -4.8e-05  1.031298  0.0  0.112729  1e-05  1.032302  0.0  0.077546  0.11197  -0.000119  1.029287  0.0
H  H45  1  0.17729062  0.28982395  0.44993629  1  0.091727  -4.9e-05  0.963514  0.0  0.112009  -4.9e-05  1.031237  0.0  0.112739  1e-05  1.032239  0.0  0.077553  0.111976  -0.000119  1.029229  0.0
C  C46  1  0.23798639  0.66170650  0.76158834  1  0.002918  0.028953  3.766872  0.02  0.01694  0.007068  4.006229  0.004  0.018537  0.004517  4.023353  0.003  0.008621  0.013907  0.011999  3.997267  0.008
C  C47  1  0.73798744  0.33829964  0.23841692  1  0.002866  0.028966  3.766822  0.02  0.016888  0.007071  4.006105  0.004  0.01848  0.004519  4.023242  0.003  0.008583  0.013855  0.012003  3.997143  0.008
C  C48  1  0.13363765  0.62445348  0.66596654  1  -0.13184  -0.01132  3.706982  -0.016  -0.15159  -0.003425  3.949429  -0.005  -0.156084  -0.0027  3.964417  -0.004  -0.075968  -0.14963  -0.004037  3.942612  -0.007
C  C49  1  0.63363548  0.37555038  0.33403706  1  -0.13185  -0.011323  3.707172  -0.016  -0.151619  -0.003424  3.949591  -0.005  -0.156111  -0.002701  3.964578  -0.004  -0.075962  -0.14966  -0.004036  3.942781  -0.007
C  C50  1  0.96841329  0.55056513  0.66135258  1  0.14055  0.025949  3.669938  0.018  0.113994  0.004873  3.920268  0.003  0.123815  0.003949  3.935724  0.002  0.052271  0.105775  0.006931  3.912451  0.004
C  C51  1  0.46841396  0.44943071  0.33864784  1  0.140491  0.025957  3.670096  0.018  0.113977  0.004873  3.920408  0.003  0.123799  0.00395  3.935854  0.002  0.052244  0.105756  0.006932  3.912596  0.004
C  C52  1  0.00555490  0.54739235  0.83783752  1  0.134131  0.025557  3.660273  0.018  0.109992  0.00424  3.90572  0.002  0.120128  0.003248  3.920964  0.002  0.052277  0.101216  0.006526  3.898837  0.004
C  C53  1  0.50555625  0.45260925  0.16216512  1  0.134006  0.02556  3.66033  0.018  0.10984  0.00424  3.905824  0.002  0.119979  0.003247  3.921055  0.002  0.052187  0.101065  0.006526  3.898931  0.004
C  C54  1  0.17470110  0.61782343  0.84766525  1  -0.119679  -0.011558  3.693286  -0.016  -0.141287  -0.003528  3.939329  -0.005  -0.146384  -0.00283  3.9553  -0.004  -0.070463  -0.139151  -0.004165  3.932745  -0.006
C  C55  1  0.67469845  0.38218271  0.15233903  1  -0.119483  -0.01156  3.693295  -0.016  -0.141115  -0.003527  3.939333  -0.005  -0.146208  -0.002829  3.955306  -0.004  -0.070392  -0.138974  -0.004165  3.932731  -0.006
C  C56  1  0.41618779  0.74172347  0.76863297  1  0.489883  0.00479  3.757805  0.002  0.446195  -0.001095  4.035466  -0.002  0.478265  -0.000498  4.035297  -0.002  0.258582  0.423764  -0.001271  4.035846  -0.002
C  C57  1  0.91618898  0.25827920  0.23136740  1  0.489803  0.004794  3.757862  0.002  0.446254  -0.001093  4.035313  -0.002  0.478329  -0.000495  4.035135  -0.002  0.25864  0.423833  -0.00127  4.035678  -0.002
C  C58  1  0.26008258  0.97843273  0.77208758  1  -0.033568  -0.000257  3.604  0.0  -0.098547  -0.000456  3.857897  0.0  -0.094456  -0.000283  3.870081  0.0  -0.05503  -0.100949  -0.000627  3.849409  -0.001
C  C59  1  0.76008435  0.02156769  0.22791328  1  -0.033574  -0.000254  3.603971  0.0  -0.098512  -0.000456  3.857858  0.0  -0.094421  -0.000282  3.870048  0.0  -0.055023  -0.100912  -0.000627  3.84937  -0.001
C  C60  1  0.23965931  0.09299937  0.88872993  1  0.084047  -0.000603  3.662125  -0.001  0.095188  -0.000782  3.897341  -0.001  0.09399  -0.000521  3.915649  -0.001  -0.095477  0.096235  -0.001083  3.884366  -0.002
C  C61  1  0.73965897  0.90699990  0.11126828  1  0.084011  -0.000607  3.662132  -0.001  0.09516  -0.000782  3.897308  -0.001  0.093962  -0.000523  3.915617  -0.001  -0.095494  0.096206  -0.001083  3.884331  -0.002
C  C62  1  0.19897602  0.01402253  0.97126150  1  -0.326816  2e-06  3.686989  0.0  -0.408333  -9e-06  3.928979  0.0  -0.410941  9e-06  3.940452  0.0  -0.253383  -0.406134  -1.8e-05  3.920735  0.0
C  C63  1  0.69897737  0.98597789  0.02873686  1  -0.326871  4e-06  3.687082  0.0  -0.408334  -9e-06  3.92907  0.0  -0.410945  1.1e-05  3.940544  0.0  -0.253397  -0.406145  -1.8e-05  3.920827  0.0
C  C64  1  0.09169809  0.20827696  0.88909200  1  -0.320385  0.000212  3.689949  0.0  -0.397661  2.7e-05  3.928885  0.0  -0.400377  9.1e-05  3.940497  0.0  -0.248857  -0.395368  -8.8e-05  3.920885  0.0
C  C65  1  0.59169805  0.79172232  0.11090421  1  -0.320368  0.000215  3.689918  0.0  -0.397658  2.7e-05  3.92889  0.0  -0.400376  9.1e-05  3.940497  0.0  -0.248828  -0.39536  -8.8e-05  3.920887  0.0
C  C66  1  0.59567897  0.94711628  0.74427526  1  -0.043464  8.7e-05  3.595923  0.0  -0.104561  -0.000285  3.844984  0.0  -0.100467  -6.5e-05  3.855974  0.0  -0.062756  -0.107164  -0.000332  3.837953  0.0
C  C67  1  0.09567847  0.05288416  0.25572508  1  -0.043443  8.9e-05  3.595915  0.0  -0.104593  -0.000285  3.845042  0.0  -0.100487  -6.7e-05  3.856041  0.0  -0.062775  -0.107199  -0.000332  3.838015  0.0
C  C68  1  0.61711966  0.95220216  0.62807687  1  0.088302  -0.000129  3.654911  0.0  0.097644  -0.000227  3.893145  0.0  0.096432  -0.000131  3.91168  0.0  -0.093252  0.098251  -0.000436  3.880651  -0.001
C  C69  1  0.11712035  0.04780055  0.37192332  1  0.088197  -0.000131  3.654961  0.0  0.097557  -0.000227  3.893194  0.0  0.096344  -0.000132  3.911727  0.0  -0.093277  0.098165  -0.000436  3.880697  -0.001
C  C70  1  0.80693729  0.01343361  0.61821432  1  -0.314525  -0.000333  3.688295  0.0  -0.390698  -0.000627  3.924256  -0.001  -0.393254  -0.000452  3.936048  -0.001  -0.247506  -0.388745  -0.000804  3.916444  -0.001
C  C71  1  0.30693837  0.98656794  0.38178620  1  -0.314473  -0.00033  3.688216  0.0  -0.390626  -0.000627  3.924158  -0.001  -0.393183  -0.000449  3.935948  -0.001  -0.2475  -0.388677  -0.000804  3.916352  -0.001
C  C72  1  0.58380430  0.79674674  0.54043087  1  -0.319825  -2.7e-05  3.704579  0.0  -0.400202  -0.000173  3.946827  0.0  -0.402653  -7e-05  3.958874  0.0  -0.253541  -0.398263  -0.000294  3.938362  0.0
C  C73  1  0.08380548  0.20325369  0.45956866  1  -0.31984  -2.6e-05  3.704613  0.0  -0.400215  -0.000172  3.946854  0.0  -0.402658  -6.9e-05  3.958906  0.0  -0.253546  -0.398263  -0.000294  3.938386  0.0
N  N74  1  0.90252190  0.51537972  0.74669208  1  -0.305428  -0.048398  3.352424  -0.079  -0.251369  -0.033461  3.639776  -0.047  -0.279853  -0.027135  3.653334  -0.038  -0.340046  -0.232169  -0.038828  3.632999  -0.054
N  N75  1  0.40251890  0.48461841  0.25330867  1  -0.30534  -0.0484  3.352334  -0.079  -0.251269  -0.033461  3.639654  -0.047  -0.279736  -0.027138  3.653198  -0.038  -0.339977  -0.232066  -0.038828  3.63287  -0.054
N  N76  1  0.42070768  0.88027001  0.75960409  1  -0.16872  -0.006568  3.39802  -0.011  -0.080464  -0.006843  3.623887  -0.011  -0.101019  -0.005117  3.646191  -0.009  -0.25569  -0.067424  -0.00812  3.609344  -0.013
N  N77  1  0.92070796  0.11972925  0.24039700  1  -0.168735  -0.00657  3.398081  -0.011  -0.080559  -0.006844  3.623983  -0.011  -0.10111  -0.005117  3.646279  -0.009  -0.255739  -0.067523  -0.00812  3.609443  -0.013
Cl  Cl78  1  0.53876740  0.32990135  0.58386044  1  -0.536205  -0.086263  0.948565  -0.122  -0.521297  -0.065778  1.227172  -0.083  -0.562259  -0.046301  1.200968  -0.056  -0.293169  -0.485304  -0.0851  1.242479  -0.108
Cl  Cl79  1  0.03876828  0.67009567  0.41613811  1  -0.536221  -0.086261  0.948586  -0.122  -0.521294  -0.065778  1.227187  -0.083  -0.562235  -0.046306  1.200982  -0.056  -0.293166  -0.485291  -0.085102  1.242488  -0.108
Cl  Cl80  1  0.58659929  0.37285309  0.88069503  1  -0.535104  -0.081896  0.965457  -0.115  -0.514916  -0.063789  1.243539  -0.079  -0.553465  -0.045043  1.215054  -0.054  -0.281442  -0.481765  -0.081461  1.261849  -0.101
Cl  Cl81  1  0.08660002  0.62714506  0.11930242  1  -0.535138  -0.081891  0.965447  -0.115  -0.514911  -0.063788  1.24352  -0.079  -0.55345  -0.045045  1.215053  -0.054  -0.281428  -0.481751  -0.08146  1.261822  -0.101
O  O82  1  0.56295699  0.67626527  0.78030496  1  -0.553704  -0.035505  2.177808  -0.059  -0.516803  -0.030009  2.464008  -0.044  -0.555207  -0.023582  2.452059  -0.035  -0.298313  -0.488476  -0.036288  2.471424  -0.053
O  O83  1  0.06295679  0.32373291  0.21969779  1  -0.553652  -0.035501  2.177943  -0.059  -0.516781  -0.030007  2.46409  -0.044  -0.555177  -0.023582  2.452127  -0.035  -0.298319  -0.488454  -0.036285  2.471494  -0.053
