# generated using pymatgen
data_Zr3H4C26N10ClO36
_symmetry_space_group_name_H-M   'P 1'
_cell_length_a   14.76101142
_cell_length_b   14.77899130
_cell_length_c   14.78930653
_cell_angle_alpha   59.84761336
_cell_angle_beta   60.31254625
_cell_angle_gamma   59.94461867
_symmetry_Int_Tables_number   1
_chemical_formula_structural   Zr3H4C26N10ClO36
_chemical_formula_sum   'Zr6 H8 C52 N20 Cl2 O72'
_cell_volume   2283.08180896
_cell_formula_units_Z   2
loop_
 _symmetry_equiv_pos_site_id
 _symmetry_equiv_pos_as_xyz
  1  'x, y, z'
loop_
 _atom_site_type_symbol
 _atom_site_label
 _atom_site_symmetry_multiplicity
 _atom_site_fract_x
 _atom_site_fract_y
 _atom_site_fract_z
 _atom_site_occupancy
 _atom_site_pbe_bader_charge
 _atom_site_pbe_bader_spin_density
 _atom_site_pbe_cm5_charge
 _atom_site_pbe_ddec_charge
 _atom_site_pbe_ddec_spin_density
 _atom_site_pbe_ddec_sum_bond_order
 _atom_site_pbe_magmom
Zr  Zr0  1  0.87572299  0.88083536  0.62906728  1  2.639863  0  1.634699  2.387055  0  2.692843  0
Zr  Zr1  1  0.11630168  0.11896602  0.37799135  1  2.639043  0  1.630394  2.386227  0  2.691774  0
Zr  Zr2  1  0.12049882  0.87886036  0.62066073  1  2.642849  0  1.62873  2.38515  0  2.694465  0
Zr  Zr3  1  0.87136851  0.11905493  0.38753856  1  2.639767  0  1.628049  2.380074  0  2.715395  0
Zr  Zr4  1  0.11174596  0.87897789  0.38545826  1  2.640343  0  1.632966  2.384344  0  2.720899  0
Zr  Zr5  1  0.88121214  0.12107521  0.62106050  1  2.635433  0  1.62561  2.38092  0  2.699212  0
H  H6  1  0.08253863  0.71697812  0.60193308  1  0.604835  0  0.327023  0.415414  0  0.875552  0
H  H7  1  0.09006725  0.09254551  0.22037728  1  0.623453  0  0.327181  0.41903  0  0.872062  0
H  H8  1  0.10098498  0.10000618  0.58232109  1  0.599786  0  0.331774  0.428758  0  0.849964  0
H  H9  1  0.71276710  0.09307850  0.61109507  1  0.623999  0  0.333627  0.43173  0  0.846022  0
H  H10  1  0.03990756  0.56336469  0.72694753  1  0.031963  0  0.09364  0.086788  0  1.037791  0
H  H11  1  0.10458504  0.38200773  0.70995075  1  0.064769  0  0.102389  0.104177  0  0.985853  0
H  H12  1  0.06564905  0.21981655  0.05633791  1  0.027844  0  0.092029  0.083293  0  1.036906  0
H  H13  1  0.12248071  0.20878854  0.87443197  1  0.043836  0  0.096361  0.093837  0  1.010087  0
C  C14  1  0.97943126  0.71485441  0.48481187  1  1.637402  0  0.244954  0.653011  0  4.0917  0
C  C15  1  0.30771584  0.98133645  0.20797237  1  1.613014  0  0.246671  0.658216  0  4.08096  0
C  C16  1  0.98408350  0.31681001  0.48670308  1  1.63957  0  0.244437  0.653648  0  4.097257  0
C  C17  1  0.71489060  0.99300270  0.82524705  1  1.623567  0  0.247667  0.659563  0  4.075648  0
C  C18  1  0.99336614  0.70187016  0.81201907  1  1.552272  0  0.247218  0.670577  0  4.073663  0
C  C19  1  0.68026290  0.99582666  0.52957495  1  1.638607  0  0.244813  0.650521  0  4.086402  0
C  C20  1  0.98866560  0.30541144  0.20322613  1  1.57814  0  0.247233  0.66788  0  4.084299  0
C  C21  1  0.31770386  0.98979345  0.47674788  1  1.64667  0  0.244704  0.654392  0  4.088222  0
C  C22  1  0.28575525  0.68298398  0.51844677  1  1.615169  0  0.242728  0.652059  0  4.098476  0
C  C23  1  0.01984431  0.00498205  0.79284981  1  1.61323  0  0.242754  0.649678  0  4.102  0
C  C24  1  0.69005926  0.30265837  0.50010343  1  1.621315  0  0.247083  0.654566  0  4.089149  0
C  C25  1  0.98610642  0.00749759  0.20143617  1  1.632389  0  0.244342  0.653444  0  4.095311  0
C  C26  1  0.97341388  0.42915308  0.47418085  1  0.021116  0  0.011683  -0.093728  0  3.885687  0
C  C27  1  0.96795116  0.62724076  0.47036858  1  0.0998  0  0.015461  -0.086785  0  3.864019  0
C  C28  1  0.05618122  0.47699452  0.39755791  1  0.293386  0  0.100984  0.026721  0  3.886789  0
C  C29  1  0.88279937  0.58226640  0.54373514  1  0.244  0  0.102667  0.034013  0  3.877608  0
C  C30  1  0.04664839  0.58014139  0.38746747  1  0.308372  0  0.105041  0.044123  0  3.852859  0
C  C31  1  0.88058383  0.49161642  0.53901255  1  0.294418  0  0.104817  0.040955  0  3.869018  0
C  C32  1  0.41738121  0.97794218  0.11504456  1  0.158149  0  0.01685  -0.081904  0  3.853006  0
C  C33  1  0.62154131  0.98046951  0.93470597  1  0.078664  0  0.016788  -0.086238  0  3.853226  0
C  C34  1  0.45004537  0.07266885  0.05499987  1  0.188559  0  0.104387  0.044239  0  3.81612  0
C  C35  1  0.58739659  0.88752505  0.99091477  1  0.286548  0  0.107219  0.047471  0  3.824426  0
C  C36  1  0.55728190  0.06589188  0.98083045  1  0.30905  0  0.106659  0.04569  0  3.841942  0
C  C37  1  0.49427429  0.88274105  0.08664869  1  0.281126  0  0.105532  0.037489  0  3.856055  0
C  C38  1  0.02506129  0.01662459  0.88572019  1  0.069963  0  0.013471  -0.089615  0  3.868731  0
C  C39  1  0.00063463  0.01973155  0.08825798  1  0.139185  0  0.012411  -0.094782  0  3.886262  0
C  C40  1  0.94252912  0.10264398  0.92763838  1  0.305224  0  0.104975  0.041816  0  3.850258  0
C  C41  1  0.09936416  0.95583149  0.02945469  1  0.256759  0  0.103576  0.037643  0  3.876057  0
C  C42  1  0.92207115  0.09438853  0.03370446  1  0.236579  0  0.106125  0.036944  0  3.876103  0
C  C43  1  0.10526281  0.94437260  0.93855631  1  0.256923  0  0.103112  0.03368  0  3.883609  0
C  C44  1  0.37469855  0.57159294  0.52695341  1  0.091241  0  0.00975  -0.101287  0  3.893466  0
C  C45  1  0.57984170  0.39504002  0.50773023  1  0.100402  0  0.019375  -0.075007  0  3.856647  0
C  C46  1  0.42687385  0.53209206  0.43828411  1  0.262177  0  0.108003  0.052767  0  3.840235  0
C  C47  1  0.51248641  0.41499317  0.60811270  1  0.278501  0  0.102583  0.031281  0  3.884585  0
C  C48  1  0.53461549  0.45718416  0.42129203  1  0.302725  0  0.10436  0.038446  0  3.852246  0
C  C49  1  0.41627450  0.50691600  0.61551972  1  0.270419  0  0.108873  0.053226  0  3.850835  0
C  C50  1  0.99208067  0.59971738  0.91289987  1  0.047765  0  -0.007396  -0.122447  0  3.906338  0
C  C51  1  0.01873464  0.49775271  0.90200414  1  0.028154  0  0.00979  0.08599  0  3.927541  0
C  C52  1  0.96376193  0.60525942  0.01481241  1  0.127855  0  0.02335  0.088287  0  4.008222  0
C  C53  1  0.04705574  0.48858686  0.79939139  1  -0.038655  0  -0.088769  -0.112961  0  3.96898  0
C  C54  1  0.08227214  0.38714567  0.78983073  1  0.033551  0  -0.086755  -0.068061  0  4.008226  0
C  C55  1  0.98821637  0.40802031  0.10210307  1  0.023191  0  -0.003191  -0.108577  0  3.893872  0
C  C56  1  0.95730276  0.50907555  0.11116243  1  0.141648  0  0.022725  0.083062  0  3.999687  0
C  C57  1  0.02186546  0.39911666  0.99768006  1  0.055988  0  0.008038  0.077538  0  3.938725  0
C  C58  1  0.05973164  0.29575994  0.98474941  1  0.013108  0  -0.086738  -0.107347  0  3.970606  0
C  C59  1  0.09073920  0.28934487  0.88313576  1  -0.030224  0  -0.091236  -0.074759  0  4.01382  0
C  C60  1  0.42110073  0.98293522  0.48161720  1  0.127513  0  0.013126  -0.093014  0  3.867297  0
C  C61  1  0.57545036  0.00080525  0.52903344  1  0.030414  0  0.017095  -0.083695  0  3.86148  0
C  C62  1  0.45968813  0.90288792  0.57120847  1  0.210322  0  0.10249  0.043007  0  3.826196  0
C  C63  1  0.53600171  0.08133463  0.44035086  1  0.298124  0  0.101965  0.041649  0  3.843963  0
C  C64  1  0.52808463  0.91657711  0.59974677  1  0.29361  0  0.103406  0.045385  0  3.836463  0
C  C65  1  0.46704615  0.06838002  0.41239641  1  0.253861  0  0.103585  0.042668  0  3.851353  0
N  N66  1  0.16032390  0.41480939  0.32857976  1  0.487907  0  0.062217  0.510309  0  4.275699  0
N  N67  1  0.78455559  0.64226727  0.61802761  1  0.435762  0  0.062933  0.512218  0  4.252369  0
N  N68  1  0.11053595  0.64443119  0.27993401  1  0.447196  0  0.062983  0.508635  0  4.233136  0
N  N69  1  0.77340843  0.47156735  0.59501611  1  0.450605  0  0.061418  0.506392  0  4.240355  0
N  N70  1  0.36509614  0.18505156  0.05975448  1  0.492239  0  0.067358  0.508049  0  4.249039  0
N  N71  1  0.65827464  0.78378553  0.96110973  1  0.466845  0  0.061599  0.504552  0  4.274502  0
N  N72  1  0.61157194  0.13450670  0.96990395  1  0.440785  0  0.063261  0.50847  0  4.22846  0
N  N73  1  0.48875174  0.77043766  0.16051485  1  0.413879  0  0.061441  0.509481  0  4.230399  0
N  N74  1  0.88719309  0.21040263  0.85401503  1  0.442082  0  0.06507  0.509881  0  4.231346  0
N  N75  1  0.20379889  0.91268794  0.05267499  1  0.45374  0  0.060866  0.505822  0  4.253128  0
N  N76  1  0.81142498  0.16210010  0.08963158  1  0.46223  0  0.063514  0.507427  0  4.267287  0
N  N77  1  0.20739046  0.86011503  0.89517732  1  0.446794  0  0.06308  0.507863  0  4.259002  0
N  N78  1  0.35557476  0.55600657  0.37789869  1  0.464941  0  0.068683  0.511326  0  4.237164  0
N  N79  1  0.53975891  0.33450248  0.71041318  1  0.436488  0  0.058561  0.511111  0  4.241387  0
N  N80  1  0.60187694  0.45526739  0.30638787  1  0.468324  0  0.063209  0.506007  0  4.24585  0
N  N81  1  0.34950279  0.52474829  0.72456519  1  0.463992  0  0.062425  0.503066  0  4.244259  0
N  N82  1  0.44042612  0.79366153  0.62562593  1  0.47212  0  0.066374  0.512797  0  4.245993  0
N  N83  1  0.55529348  0.18987594  0.38771260  1  0.480361  0  0.063447  0.512561  0  4.249452  0
N  N84  1  0.52873086  0.85818355  0.71696779  1  0.466082  0  0.065034  0.508816  0  4.216499  0
N  N85  1  0.46037078  0.13307776  0.29823780  1  0.466586  0  0.065433  0.513199  0  4.229098  0
Cl  Cl86  1  0.90624500  0.51969669  0.23954217  1  -0.166346  0  0.013482  -0.037512  0  1.641458  0
Cl  Cl87  1  0.93095990  0.72861301  0.02737299  1  -0.165777  0  0.00867  -0.036074  0  1.570798  0
O  O88  1  0.90793260  0.74884709  0.56507361  1  -1.170118  0  -0.323446  -0.589541  0  2.296405  0
O  O89  1  0.26386988  0.06252411  0.24200160  1  -1.166911  0  -0.341123  -0.605961  0  2.346425  0
O  O90  1  0.06243989  0.27396830  0.41448502  1  -1.169053  0  -0.329591  -0.595079  0  2.345987  0
O  O91  1  0.75235536  0.91848607  0.78465599  1  -1.163842  0  -0.336665  -0.594894  0  2.360525  0
O  O92  1  0.06662121  0.74484529  0.77431834  1  -1.15857  0  -0.342436  -0.605652  0  2.273921  0
O  O93  1  0.72591105  0.06444103  0.44563441  1  -1.172806  0  -0.333013  -0.600046  0  2.326443  0
O  O94  1  0.91142419  0.26638179  0.24488550  1  -1.162084  0  -0.339943  -0.596135  0  2.270426  0
O  O95  1  0.27854232  0.91249199  0.55013734  1  -1.175393  0  -0.343037  -0.605778  0  2.354224  0
O  O96  1  0.25131379  0.72922715  0.43685100  1  -1.169548  0  -0.340668  -0.60198  0  2.360382  0
O  O97  1  0.93539497  0.07301919  0.76234995  1  -1.159186  0  -0.336537  -0.598488  0  2.328841  0
O  O98  1  0.73456558  0.27010537  0.57064228  1  -1.155643  0  -0.328984  -0.596477  0  2.322033  0
O  O99  1  0.05961706  0.92653429  0.24324650  1  -1.167426  0  -0.33578  -0.598143  0  2.348933  0
O  O100  1  0.09704029  0.92785342  0.75499307  1  -1.157443  0  -0.334433  -0.591663  0  2.275843  0
O  O101  1  0.72721566  0.26156003  0.42570930  1  -1.155766  0  -0.34765  -0.597318  0  2.329355  0
O  O102  1  0.90397745  0.07834390  0.24524623  1  -1.164987  0  -0.338542  -0.59218  0  2.277734  0
O  O103  1  0.25554743  0.72443896  0.59044088  1  -1.159052  0  -0.338152  -0.586624  0  2.296001  0
O  O104  1  0.92042717  0.73705407  0.76807722  1  -1.158197  0  -0.356398  -0.609245  0  2.290926  0
O  O105  1  0.27200032  0.07650219  0.40882466  1  -1.171382  0  -0.333459  -0.588976  0  2.261431  0
O  O106  1  0.07031416  0.26234573  0.23789866  1  -1.163713  0  -0.35492  -0.608945  0  2.282981  0
O  O107  1  0.71934931  0.91966553  0.60690599  1  -1.167654  0  -0.339649  -0.589405  0  2.285887  0
O  O108  1  0.74372501  0.07844726  0.77830138  1  -1.162116  0  -0.342588  -0.602743  0  2.293167  0
O  O109  1  0.06566916  0.74183428  0.41788574  1  -1.167426  0  -0.349599  -0.599628  0  2.3171  0
O  O110  1  0.26696498  0.90673851  0.24443138  1  -1.15425  0  -0.336288  -0.596334  0  2.28806  0
O  O111  1  0.91468817  0.27265798  0.57167835  1  -1.165995  0  -0.346118  -0.601413  0  2.310382  0
O  O112  1  0.79297725  0.06681648  0.57950535  1  -1.248766  0  -0.690321  -1.074314  0  2.345393  0
O  O113  1  0.07160137  0.07010211  0.56133782  1  -1.226775  0  -0.684621  -1.071058  0  2.321902  0
O  O114  1  0.06136750  0.06484647  0.30066011  1  -1.251244  0  -0.691452  -1.07293  0  2.361437  0
O  O115  1  0.05898940  0.79752383  0.57263157  1  -1.232847  0  -0.692901  -1.071747  0  2.376931  0
O  O116  1  0.14370251  0.94822619  0.45257426  1  -1.192446  0  -0.788989  -1.146389  0  2.134187  0
O  O117  1  0.94224355  0.95082707  0.45797507  1  -1.199807  0  -0.786697  -1.150969  0  2.118423  0
O  O118  1  0.94610878  0.14783710  0.45269786  1  -1.195628  0  -0.7851  -1.145138  0  2.12162  0
O  O119  1  0.95240700  0.95215025  0.65090103  1  -1.19348  0  -0.788008  -1.144207  0  2.137493  0
O  O120  1  0.22601194  0.34363023  0.37937717  1  -0.408009  0  -0.097714  -0.27571  0  1.955018  0
O  O121  1  0.17110157  0.43966940  0.23223770  1  -0.378404  0  -0.076022  -0.246282  0  1.927711  0
O  O122  1  0.77876510  0.61138076  0.71377718  1  -0.360284  0  -0.062226  -0.229099  0  1.929791  0
O  O123  1  0.71730989  0.71996315  0.57053078  1  -0.412076  0  -0.108545  -0.304695  0  1.974329  0
O  O124  1  0.05050732  0.73461754  0.23316643  1  -0.435547  0  -0.117875  -0.308357  0  1.931352  0
O  O125  1  0.21079192  0.60163136  0.24356298  1  -0.367691  0  -0.071813  -0.247158  0  2.009999  0
O  O126  1  0.73285575  0.48596324  0.53099051  1  -0.4165  0  -0.106742  -0.288711  0  1.932567  0
O  O127  1  0.73275929  0.44997100  0.69549765  1  -0.376421  0  -0.072478  -0.246386  0  1.973126  0
O  O128  1  0.30520182  0.21861782  0.00548098  1  -0.422345  0  -0.105411  -0.287971  0  1.90163  0
O  O129  1  0.36132772  0.23270598  0.10946660  1  -0.364794  0  -0.069351  -0.246478  0  2.029891  0
O  O130  1  0.64291407  0.77205192  0.89439561  1  -0.372415  0  -0.072252  -0.24659  0  2.011735  0
O  O131  1  0.72574241  0.71817883  0.01136442  1  -0.407673  0  -0.103971  -0.29539  0  1.972398  0
O  O132  1  0.70052279  0.07630661  0.98926615  1  -0.424165  0  -0.114737  -0.303727  0  1.954883  0
O  O133  1  0.56331248  0.23375530  0.95493270  1  -0.356624  0  -0.075237  -0.247012  0  2.018561  0
O  O134  1  0.48118091  0.74451454  0.25716614  1  -0.429314  0  -0.117704  -0.306465  0  1.92569  0
O  O135  1  0.50124638  0.71046590  0.11766527  1  -0.376366  0  -0.071972  -0.24623  0  2.001498  0
O  O136  1  0.95453201  0.25209130  0.76910081  1  -0.434129  0  -0.121701  -0.318046  0  1.92004  0
O  O137  1  0.78642323  0.25177121  0.88394905  1  -0.363246  0  -0.066022  -0.237732  0  2.002963  0
O  O138  1  0.23078835  0.98846141  0.03582493  1  -0.441422  0  -0.114323  -0.30688  0  1.930752  0
O  O139  1  0.25589576  0.81320145  0.07841372  1  -0.373514  0  -0.070125  -0.241702  0  1.978544  0
O  O140  1  0.74604699  0.11026281  0.14740923  1  -0.377742  0  -0.088577  -0.264596  0  1.955632  0
O  O141  1  0.79594954  0.25846583  0.07125601  1  -0.376654  0  -0.074427  -0.243139  0  1.904003  0
O  O142  1  0.20358416  0.76904095  0.92178837  1  -0.361905  0  -0.060937  -0.22369  0  1.925235  0
O  O143  1  0.28801975  0.89259728  0.84074256  1  -0.405773  0  -0.106967  -0.29931  0  1.987259  0
O  O144  1  0.29315222  0.49987570  0.43958450  1  -0.404838  0  -0.112287  -0.297919  0  1.891137  0
O  O145  1  0.36117269  0.62018892  0.28425369  1  -0.356344  0  -0.057932  -0.226693  0  2.093052  0
O  O146  1  0.52764904  0.24386640  0.74532734  1  -0.451733  0  -0.128485  -0.323248  0  1.90801  0
O  O147  1  0.56839117  0.36479272  0.75246034  1  -0.360678  0  -0.062109  -0.233343  0  2.02876  0
O  O148  1  0.68701685  0.47747779  0.26714676  1  -0.418658  0  -0.103825  -0.286777  0  1.949721  0
O  O149  1  0.56414369  0.43950520  0.26005843  1  -0.386599  0  -0.080511  -0.257782  0  1.983025  0
O  O150  1  0.38126612  0.56311965  0.75552496  1  -0.360134  0  -0.068266  -0.239611  0  1.980934  0
O  O151  1  0.26810336  0.49347453  0.77503805  1  -0.435213  0  -0.106531  -0.297164  0  1.92941  0
O  O152  1  0.36966241  0.77216792  0.71503227  1  -0.367886  0  -0.070935  -0.252163  0  2.09093  0
O  O153  1  0.50470560  0.73420902  0.56745710  1  -0.398069  0  -0.101799  -0.277295  0  1.89334  0
O  O154  1  0.50618846  0.24042479  0.45420338  1  -0.437434  0  -0.116132  -0.306112  0  1.918724  0
O  O155  1  0.61054642  0.22051272  0.29090674  1  -0.363241  0  -0.06842  -0.245808  0  2.064032  0
O  O156  1  0.54399755  0.75850885  0.76079425  1  -0.373098  0  -0.078431  -0.251925  0  1.986621  0
O  O157  1  0.50110091  0.92443713  0.76119681  1  -0.410554  0  -0.112064  -0.292782  0  1.920718  0
O  O158  1  0.49706600  0.07175234  0.24498825  1  -0.427754  0  -0.113027  -0.302649  0  1.9273  0
O  O159  1  0.43057049  0.23436876  0.26521556  1  -0.370674  0  -0.071327  -0.240602  0  1.991743  0
