# generated using pymatgen
data_Sr2H10C6O11
_symmetry_space_group_name_H-M   'P 1'
_cell_length_a   7.15912016
_cell_length_b   8.02116196
_cell_length_c   11.58804055
_cell_angle_alpha   104.37610282
_cell_angle_beta   90.01224670
_cell_angle_gamma   116.50015656
_symmetry_Int_Tables_number   1
_chemical_formula_structural   Sr2H10C6O11
_chemical_formula_sum   'Sr4 H20 C12 O22'
_cell_volume   572.12570520
_cell_formula_units_Z   2
loop_
 _symmetry_equiv_pos_site_id
 _symmetry_equiv_pos_as_xyz
  1  'x, y, z'
loop_
 _atom_site_type_symbol
 _atom_site_label
 _atom_site_symmetry_multiplicity
 _atom_site_fract_x
 _atom_site_fract_y
 _atom_site_fract_z
 _atom_site_occupancy
 _atom_site_hle17_bader_spin_density
 _atom_site_hle17_ddec_charge
 _atom_site_hle17_ddec_spin_density
 _atom_site_hle17_ddec_sum_bond_order
 _atom_site_hle17_magmom
 _atom_site_hse06_10hf_bader_spin_density
 _atom_site_hse06_10hf_ddec_charge
 _atom_site_hse06_10hf_ddec_spin_density
 _atom_site_hse06_10hf_ddec_sum_bond_order
 _atom_site_hse06_10hf_magmom
 _atom_site_hse06_bader_spin_density
 _atom_site_hse06_ddec_charge
 _atom_site_hse06_ddec_spin_density
 _atom_site_hse06_ddec_sum_bond_order
 _atom_site_hse06_magmom
 _atom_site_pbe_bader_spin_density
 _atom_site_pbe_cm5_charge
 _atom_site_pbe_ddec_charge
 _atom_site_pbe_ddec_spin_density
 _atom_site_pbe_ddec_sum_bond_order
 _atom_site_pbe_magmom
Sr  Sr0  1  0.22749531  0.82623470  0.58077880  1  0  1.611686  0  1.090142  0  0  1.464314  0  1.457415  0  0  1.50349  0  1.412619  0  0  0.94338  1.435407  0  1.489386  0
Sr  Sr1  1  0.40120697  0.17368752  0.91919713  1  0  1.612273  0  1.089454  0  0  1.464307  0  1.45748  0  0  1.503977  0  1.41183  0  0  0.943333  1.435026  0  1.490083  0
Sr  Sr2  1  0.77250472  0.17376554  0.41922139  1  0  1.611701  0  1.090131  0  0  1.464339  0  1.457382  0  0  1.503511  0  1.412587  0  0  0.943381  1.435431  0  1.489354  0
Sr  Sr3  1  0.59879378  0.82631416  0.08080332  1  0  1.612285  0  1.08944  0  0  1.46432  0  1.457453  0  0  1.503991  0  1.411803  0  0  0.943327  1.435041  0  1.490056  0
H  H4  1  0.60003577  0.90919777  0.77787462  1  0  0.429306  0  0.876862  0  0  0.397882  0  0.941617  0  0  0.409352  0  0.924798  0  0  0.30305  0.389732  0  0.953563  0
H  H5  1  0.69082451  0.09065424  0.72206578  1  0  0.430441  0  0.875232  0  0  0.398174  0  0.941208  0  0  0.409644  0  0.924407  0  0  0.303143  0.390019  0  0.95316  0
H  H6  1  0.39996427  0.09080247  0.22212472  1  0  0.429295  0  0.876877  0  0  0.397868  0  0.941638  0  0  0.409338  0  0.924817  0  0  0.303042  0.389718  0  0.953583  0
H  H7  1  0.30917412  0.90934599  0.27793527  1  0  0.43045  0  0.875219  0  0  0.39819  0  0.941181  0  0  0.409659  0  0.92438  0  0  0.303144  0.390034  0  0.953133  0
H  H8  1  0.94780419  0.02200128  0.63903290  1  0  0.426364  0  0.865816  0  0  0.396654  0  0.934088  0  0  0.406323  0  0.919793  0  0  0.311097  0.389805  0  0.944242  0
H  H9  1  0.92578165  0.97799384  0.86093604  1  0  0.425778  0  0.866379  0  0  0.39646  0  0.934183  0  0  0.406086  0  0.919941  0  0  0.310941  0.389633  0  0.944314  0
H  H10  1  0.05219584  0.97799896  0.36096730  1  0  0.426296  0  0.865844  0  0  0.396614  0  0.934131  0  0  0.406284  0  0.919836  0  0  0.311083  0.389764  0  0.944286  0
H  H11  1  0.07421838  0.02200639  0.13906415  1  0  0.425777  0  0.86638  0  0  0.396457  0  0.934187  0  0  0.406084  0  0.919944  0  0  0.31094  0.38963  0  0.944318  0
H  H12  1  0.77255489  0.83661122  0.55336115  1  0  0.421964  0  0.878622  0  0  0.395151  0  0.936312  0  0  0.404347  0  0.922833  0  0  0.306592  0.388635  0  0.945881  0
H  H13  1  0.93585129  0.16329699  0.94667733  1  0  0.423221  0  0.877057  0  0  0.395981  0  0.935341  0  0  0.4052  0  0.921847  0  0  0.30676  0.38945  0  0.944913  0
H  H14  1  0.22744587  0.16339047  0.44663930  1  0  0.421987  0  0.878611  0  0  0.395175  0  0.936296  0  0  0.404371  0  0.922818  0  0  0.306613  0.388659  0  0.945866  0
H  H15  1  0.06414874  0.83670325  0.05332287  1  0  0.423214  0  0.877068  0  0  0.395974  0  0.93535  0  0  0.405193  0  0.921857  0  0  0.306757  0.389444  0  0.944922  0
H  H16  1  0.95567671  0.43095392  0.86340739  1  0  0.152604  0  0.918626  0  0  0.16552  0  0.976054  0  0  0.169707  0  0.973271  0  0  0.124387  0.162593  0  0.978131  0
H  H17  1  0.52490737  0.56902536  0.63648168  1  0  0.152702  0  0.918414  0  0  0.164979  0  0.976509  0  0  0.169075  0  0.973885  0  0  0.123915  0.162075  0  0.978525  0
H  H18  1  0.04432332  0.56904632  0.13659280  1  0  0.152601  0  0.918632  0  0  0.165502  0  0.976049  0  0  0.169687  0  0.973266  0  0  0.1244  0.162576  0  0.978127  0
H  H19  1  0.47509478  0.43097633  0.36351877  1  0  0.152708  0  0.918428  0  0  0.164978  0  0.976512  0  0  0.169073  0  0.973889  0  0  0.123934  0.162075  0  0.97853  0
H  H20  1  0.20733919  0.45729333  0.84314195  1  0  0.150216  0  0.930545  0  0  0.162336  0  0.991202  0  0  0.165987  0  0.989177  0  0  0.129504  0.159803  0  0.992733  0
H  H21  1  0.75003311  0.54243554  0.65695226  1  0  0.150472  0  0.931016  0  0  0.162677  0  0.991146  0  0  0.166389  0  0.989006  0  0  0.129509  0.1601  0  0.992737  0
H  H22  1  0.79265945  0.54270691  0.15685739  1  0  0.150224  0  0.930532  0  0  0.162334  0  0.991171  0  0  0.165983  0  0.989147  0  0  0.129537  0.15981  0  0.992696  0
H  H23  1  0.24996620  0.45756324  0.34304768  1  0  0.150475  0  0.93102  0  0  0.16267  0  0.991145  0  0  0.16638  0  0.989007  0  0  0.1295  0.160094  0  0.992736  0
C  C24  1  0.17145210  0.71469261  0.85981827  1  0  0.764157  0  3.826996  0  0  0.713319  0  4.123865  0  0  0.747568  0  4.115023  0  0  0.232674  0.690095  0  4.129011  0
C  C25  1  0.45663690  0.28522388  0.64015144  1  0  0.763185  0  3.828542  0  0  0.713396  0  4.123245  0  0  0.747643  0  4.114374  0  0  0.232523  0.690162  0  4.128432  0
C  C26  1  0.82854865  0.28530908  0.14018218  1  0  0.76424  0  3.826892  0  0  0.713397  0  4.123737  0  0  0.747645  0  4.114892  0  0  0.232707  0.690174  0  4.128884  0
C  C27  1  0.54336313  0.71477635  0.35984962  1  0  0.763262  0  3.828503  0  0  0.713407  0  4.123276  0  0  0.747653  0  4.114408  0  0  0.232511  0.690174  0  4.128463  0
C  C28  1  0.08968248  0.49698989  0.81512227  1  0  -0.441686  0  3.62405  0  0  -0.478862  0  3.867983  0  0  -0.489217  0  3.868041  0  0  -0.153464  -0.471912  0  3.867918  0
C  C29  1  0.59263446  0.50289707  0.68486399  1  0  -0.442391  0  3.625488  0  0  -0.478657  0  3.867382  0  0  -0.488978  0  3.867447  0  0  -0.153076  -0.471689  0  3.867309  0
C  C30  1  0.91031828  0.50301181  0.18487732  1  0  -0.441684  0  3.624034  0  0  -0.478785  0  3.867872  0  0  -0.489134  0  3.867926  0  0  -0.1535  -0.471849  0  3.867813  0
C  C31  1  0.40736557  0.49710317  0.31513620  1  0  -0.442414  0  3.625508  0  0  -0.478612  0  3.867338  0  0  -0.488927  0  3.867406  0  0  -0.15308  -0.471649  0  3.867274  0
C  C32  1  0.02411061  0.40187289  0.68115602  1  0  0.761815  0  3.823471  0  0  0.709557  0  4.125827  0  0  0.743469  0  4.117345  0  0  0.227053  0.686583  0  4.130775  0
C  C33  1  0.62211942  0.59796363  0.81881036  1  0  0.761066  0  3.824385  0  0  0.709148  0  4.125901  0  0  0.742983  0  4.117557  0  0  0.227157  0.686178  0  4.130791  0
C  C34  1  0.97588942  0.59812735  0.31884331  1  0  0.761832  0  3.823461  0  0  0.709554  0  4.125815  0  0  0.743466  0  4.117333  0  0  0.227068  0.68658  0  4.130765  0
C  C35  1  0.37788273  0.40203806  0.18119009  1  0  0.761053  0  3.824382  0  0  0.709127  0  4.125885  0  0  0.742959  0  4.117545  0  0  0.227154  0.686158  0  4.130776  0
O  O36  1  0.56243154  0.99993088  0.74994577  1  0  -0.932056  0  1.849041  0  0  -0.87091  0  2.045542  0  0  -0.892595  0  2.012901  0  0  -0.640867  -0.855419  0  2.068462  0
O  O37  1  0.43756709  0.00006936  0.25005443  1  0  -0.932057  0  1.849033  0  0  -0.870915  0  2.045549  0  0  -0.892598  0  2.012906  0  0  -0.640866  -0.855424  0  2.06847  0
O  O38  1  0.90647083  0.88391332  0.60374856  1  0  -0.87206  0  1.832155  0  0  -0.822416  0  2.0225  0  0  -0.840556  0  1.992139  0  0  -0.629002  -0.809517  0  2.043805  0
O  O39  1  0.02254394  0.11603490  0.89636153  1  0  -0.872581  0  1.831863  0  0  -0.822861  0  2.022238  0  0  -0.841058  0  1.99186  0  0  -0.629053  -0.809914  0  2.043563  0
O  O40  1  0.09352992  0.11608837  0.39625189  1  0  -0.872015  0  1.832176  0  0  -0.822406  0  2.022506  0  0  -0.840545  0  1.992145  0  0  -0.629007  -0.809506  0  2.043812  0
O  O41  1  0.97745610  0.88396534  0.10363780  1  0  -0.872571  0  1.831871  0  0  -0.822855  0  2.022251  0  0  -0.841052  0  1.991871  0  0  -0.62905  -0.809909  0  2.043577  0
O  O42  1  0.13773105  0.80594990  0.79436720  1  0  -0.722286  0  1.996618  0  0  -0.65114  0  2.236952  0  0  -0.678679  0  2.228402  0  0  -0.381042  -0.63184  0  2.242348  0
O  O43  1  0.33162794  0.19395342  0.70555684  1  0  -0.721662  0  1.997957  0  0  -0.650442  0  2.236878  0  0  -0.677987  0  2.228304  0  0  -0.38041  -0.631131  0  2.242293  0
O  O44  1  0.86226970  0.19405179  0.20563325  1  0  -0.722358  0  1.996603  0  0  -0.651194  0  2.236885  0  0  -0.678734  0  2.228336  0  0  -0.381052  -0.631896  0  2.242284  0
O  O45  1  0.66837281  0.80604826  0.29444361  1  0  -0.721718  0  1.997919  0  0  -0.650472  0  2.236866  0  0  -0.678017  0  2.228292  0  0  -0.380414  -0.63116  0  2.242281  0
O  O46  1  0.26630022  0.79937576  0.96772942  1  0  -0.761232  0  1.952826  0  0  -0.694892  0  2.194485  0  0  -0.720935  0  2.182346  0  0  -0.372419  -0.676508  0  2.202348  0
O  O47  1  0.46689240  0.20052379  0.53227539  1  0  -0.759964  0  1.951077  0  0  -0.695267  0  2.193736  0  0  -0.721122  0  2.181413  0  0  -0.372811  -0.676972  0  2.201631  0
O  O48  1  0.73369981  0.20062447  0.03227164  1  0  -0.761259  0  1.952776  0  0  -0.694928  0  2.194435  0  0  -0.720971  0  2.182295  0  0  -0.372446  -0.676543  0  2.202299  0
O  O49  1  0.53310623  0.79947644  0.46772481  1  0  -0.759981  0  1.951088  0  0  -0.695288  0  2.193826  0  0  -0.721132  0  2.181479  0  0  -0.372799  -0.676993  0  2.20172  0
O  O50  1  0.87247338  0.22863829  0.64842888  1  0  -0.729796  0  2.027972  0  0  -0.657143  0  2.260191  0  0  -0.683788  0  2.248774  0  0  -0.349029  -0.638591  0  2.26774  0
O  O51  1  0.64366080  0.77116981  0.85156111  1  0  -0.728437  0  2.027954  0  0  -0.65674  0  2.260233  0  0  -0.683263  0  2.248715  0  0  -0.348817  -0.638185  0  2.267802  0
O  O52  1  0.12752666  0.77136196  0.35157046  1  0  -0.729833  0  2.028016  0  0  -0.657185  0  2.260253  0  0  -0.68384  0  2.248847  0  0  -0.349041  -0.638633  0  2.267801  0
O  O53  1  0.35633923  0.22883042  0.14843909  1  0  -0.728434  0  2.027949  0  0  -0.656735  0  2.260223  0  0  -0.683258  0  2.248706  0  0  -0.348815  -0.638179  0  2.267791  0
O  O54  1  0.11823621  0.48883403  0.60493188  1  0  -0.726784  0  1.928421  0  0  -0.6654  0  2.170547  0  0  -0.691599  0  2.160846  0  0  -0.372405  -0.646988  0  2.176718  0
O  O55  1  0.62929993  0.51091663  0.89499339  1  0  -0.726323  0  1.928579  0  0  -0.66514  0  2.170463  0  0  -0.691477  0  2.160847  0  0  -0.372626  -0.646642  0  2.176628  0
O  O56  1  0.88176382  0.51116622  0.39506746  1  0  -0.726759  0  1.928404  0  0  -0.665384  0  2.170545  0  0  -0.691588  0  2.160856  0  0  -0.372398  -0.646971  0  2.176716  0
O  O57  1  0.37070150  0.48908361  0.10500680  1  0  -0.726308  0  1.928568  0  0  -0.665132  0  2.170447  0  0  -0.691468  0  2.160833  0  0  -0.372627  -0.646634  0  2.176613  0
