# generated using pymatgen
data_CdH6C5N5Cl
_symmetry_space_group_name_H-M   'P 1'
_cell_length_a   6.43754631
_cell_length_b   10.16378768
_cell_length_c   12.51182576
_cell_angle_alpha   89.99980735
_cell_angle_beta   96.77356067
_cell_angle_gamma   89.99973143
_symmetry_Int_Tables_number   1
_chemical_formula_structural   CdH6C5N5Cl
_chemical_formula_sum   'Cd4 H24 C20 N20 Cl4'
_cell_volume   812.93280889
_cell_formula_units_Z   4
loop_
 _symmetry_equiv_pos_site_id
 _symmetry_equiv_pos_as_xyz
  1  'x, y, z'
loop_
 _atom_site_type_symbol
 _atom_site_label
 _atom_site_symmetry_multiplicity
 _atom_site_fract_x
 _atom_site_fract_y
 _atom_site_fract_z
 _atom_site_occupancy
 _atom_site_hle17_bader_spin_density
 _atom_site_hle17_ddec_charge
 _atom_site_hle17_ddec_spin_density
 _atom_site_hle17_ddec_sum_bond_order
 _atom_site_hle17_magmom
 _atom_site_hse06_10hf_bader_spin_density
 _atom_site_hse06_10hf_ddec_charge
 _atom_site_hse06_10hf_ddec_spin_density
 _atom_site_hse06_10hf_ddec_sum_bond_order
 _atom_site_hse06_10hf_magmom
 _atom_site_hse06_bader_spin_density
 _atom_site_hse06_ddec_charge
 _atom_site_hse06_ddec_spin_density
 _atom_site_hse06_ddec_sum_bond_order
 _atom_site_hse06_magmom
 _atom_site_pbe_bader_spin_density
 _atom_site_pbe_cm5_charge
 _atom_site_pbe_ddec_charge
 _atom_site_pbe_ddec_spin_density
 _atom_site_pbe_ddec_sum_bond_order
 _atom_site_pbe_magmom
Cd  Cd0  1  0.51796767  0.44431459  0.14187654  1  0  0.994424  0  1.929875  0  0  0.825779  0  2.391114  0  0  0.870503  0  2.351247  0  0  0.704279  0.794151  0  2.418354  0
Cd  Cd1  1  0.98202688  0.94431307  0.35812185  1  0  0.994395  0  1.929864  0  0  0.825727  0  2.391099  0  0  0.870458  0  2.351226  0  0  0.704282  0.794107  0  2.41834  0
Cd  Cd2  1  0.48202403  0.55568207  0.85812375  1  0  0.99441  0  1.929857  0  0  0.825749  0  2.391124  0  0  0.870477  0  2.351254  0  0  0.704264  0.794121  0  2.418365  0
Cd  Cd3  1  0.01797113  0.05568457  0.64187565  1  0  0.994376  0  1.929829  0  0  0.825736  0  2.391057  0  0  0.870466  0  2.351186  0  0  0.704277  0.794116  0  2.418296  0
H  H4  1  0.46641388  0.72311502  0.25426995  1  0  0.086189  0  0.958075  0  0  0.093413  0  1.026956  0  0  0.095719  0  1.025491  0  0  0.109051  0.091759  0  1.028157  0
H  H5  1  0.03358095  0.22311803  0.24572912  1  0  0.086261  0  0.958014  0  0  0.093488  0  1.026883  0  0  0.095793  0  1.025419  0  0  0.109057  0.091833  0  1.028084  0
H  H6  1  0.53358103  0.27687967  0.74572574  1  0  0.086193  0  0.958066  0  0  0.09343  0  1.026938  0  0  0.095735  0  1.025473  0  0  0.109075  0.091776  0  1.02814  0
H  H7  1  0.96640917  0.77688158  0.75427186  1  0  0.086178  0  0.958115  0  0  0.093395  0  1.027002  0  0  0.095701  0  1.025538  0  0  0.10905  0.091741  0  1.028202  0
H  H8  1  0.20465082  0.67067568  0.55362231  1  0  0.109865  0  0.956995  0  0  0.11872  0  1.020288  0  0  0.121624  0  1.018659  0  0  0.101818  0.116664  0  1.02142  0
H  H9  1  0.29535586  0.17067117  0.94638072  1  0  0.109891  0  0.956972  0  0  0.118743  0  1.020271  0  0  0.121652  0  1.018635  0  0  0.101815  0.116687  0  1.021402  0
H  H10  1  0.79535498  0.32933377  0.44637729  1  0  0.109865  0  0.956966  0  0  0.118827  0  1.020152  0  0  0.121742  0  1.018518  0  0  0.101836  0.116771  0  1.021287  0
H  H11  1  0.70464826  0.82933041  0.05362596  1  0  0.109833  0  0.956968  0  0  0.118716  0  1.020244  0  0  0.121639  0  1.018593  0  0  0.101808  0.116663  0  1.021374  0
H  H12  1  0.18651952  0.42843244  0.51350935  1  0  0.106614  0  0.955821  0  0  0.116171  0  1.015832  0  0  0.118863  0  1.015681  0  0  0.100807  0.114569  0  1.015515  0
H  H13  1  0.31347873  0.92842991  0.98649803  1  0  0.106629  0  0.955777  0  0  0.11623  0  1.015743  0  0  0.118925  0  1.015587  0  0  0.100804  0.114635  0  1.015418  0
H  H14  1  0.81347990  0.57157603  0.48649783  1  0  0.106616  0  0.955724  0  0  0.116198  0  1.01572  0  0  0.118893  0  1.015565  0  0  0.10081  0.114603  0  1.015389  0
H  H15  1  0.68652856  0.07157266  0.01350646  1  0  0.10666  0  0.955728  0  0  0.116214  0  1.015749  0  0  0.118907  0  1.015597  0  0  0.100802  0.114617  0  1.015426  0
H  H16  1  0.31534736  0.34576558  0.34630410  1  0  0.072805  0  0.976698  0  0  0.077255  0  1.05214  0  0  0.079448  0  1.05049  0  0  0.100537  0.075499  0  1.053503  0
H  H17  1  0.18465105  0.84576481  0.15370208  1  0  0.072812  0  0.976744  0  0  0.077241  0  1.052211  0  0  0.079435  0  1.050562  0  0  0.100546  0.075497  0  1.053562  0
H  H18  1  0.68464891  0.65423403  0.65370368  1  0  0.072799  0  0.976691  0  0  0.077237  0  1.052159  0  0  0.07943  0  1.050509  0  0  0.100534  0.075493  0  1.053505  0
H  H19  1  0.81535470  0.15423382  0.84630072  1  0  0.072823  0  0.976655  0  0  0.077234  0  1.052143  0  0  0.079428  0  1.050493  0  0  0.100551  0.075518  0  1.053464  0
H  H20  1  0.43723057  0.90518768  0.37989860  1  0  0.316573  0  0.912304  0  0  0.299856  0  0.97946  0  0  0.306167  0  0.975027  0  0  0.288752  0.29537  0  0.982455  0
H  H21  1  0.06276911  0.40519014  0.12009630  1  0  0.316603  0  0.912317  0  0  0.29988  0  0.979493  0  0  0.306192  0  0.975059  0  0  0.288751  0.295391  0  0.982491  0
H  H22  1  0.56277063  0.09481292  0.62009510  1  0  0.316552  0  0.912179  0  0  0.299822  0  0.979394  0  0  0.306133  0  0.974961  0  0  0.28875  0.295336  0  0.982389  0
H  H23  1  0.93722264  0.59481243  0.87990079  1  0  0.316609  0  0.91223  0  0  0.299879  0  0.979427  0  0  0.306189  0  0.974994  0  0  0.288743  0.295391  0  0.982423  0
H  H24  1  0.34696765  0.88326168  0.49878217  1  0  0.303239  0  0.918636  0  0  0.286689  0  0.985437  0  0  0.292304  0  0.98233  0  0  0.286969  0.282756  0  0.987392  0
H  H25  1  0.15304158  0.38325748  0.00121422  1  0  0.303188  0  0.918638  0  0  0.286647  0  0.985421  0  0  0.292262  0  0.982315  0  0  0.286925  0.282711  0  0.987375  0
H  H26  1  0.65303981  0.11674383  0.50121194  1  0  0.303229  0  0.918577  0  0  0.28669  0  0.98535  0  0  0.292303  0  0.982245  0  0  0.286946  0.282757  0  0.987305  0
H  H27  1  0.84695796  0.61674016  0.99878498  1  0  0.303193  0  0.918707  0  0  0.286642  0  0.985506  0  0  0.292257  0  0.9824  0  0  0.286906  0.282706  0  0.987463  0
C  C28  1  0.40476837  0.66126895  0.31442215  1  0  0.016903  0  3.667916  0  0  -0.020373  0  3.923807  0  0  -0.016961  0  3.942655  0  0  0.02827  -0.023014  0  3.91152  0
C  C29  1  0.09523161  0.16127104  0.18557982  1  0  0.016811  0  3.66785  0  0  -0.020474  0  3.923741  0  0  -0.017061  0  3.942589  0  0  0.028238  -0.023113  0  3.911452  0
C  C30  1  0.59523277  0.33872771  0.68557555  1  0  0.016967  0  3.668045  0  0  -0.020354  0  3.923937  0  0  -0.016942  0  3.942786  0  0  0.028262  -0.022994  0  3.911645  0
C  C31  1  0.90476320  0.83872857  0.81442146  1  0  0.0169  0  3.668092  0  0  -0.020365  0  3.923915  0  0  -0.016956  0  3.942765  0  0  0.028253  -0.023004  0  3.911624  0
C  C32  1  0.33645955  0.71660453  0.40672988  1  0  0.250939  0  3.807104  0  0  0.251704  0  4.051197  0  0  0.255671  0  4.074452  0  0  0.091336  0.248616  0  4.036193  0
C  C33  1  0.16354472  0.21660188  0.09326983  1  0  0.250928  0  3.807081  0  0  0.251738  0  4.05114  0  0  0.255706  0  4.074394  0  0  0.091377  0.24865  0  4.036133  0
C  C34  1  0.66354468  0.28339901  0.59326962  1  0  0.250954  0  3.807192  0  0  0.251802  0  4.051228  0  0  0.255769  0  4.074484  0  0  0.091416  0.248714  0  4.03622  0
C  C35  1  0.83645332  0.78339871  0.90672607  1  0  0.250936  0  3.807178  0  0  0.251775  0  4.05118  0  0  0.255741  0  4.074438  0  0  0.091358  0.248687  0  4.036174  0
C  C36  1  0.25786571  0.63148859  0.48056959  1  0  -0.117069  0  3.689095  0  0  -0.140008  0  3.936395  0  0  -0.140497  0  3.954903  0  0  -0.08012  -0.139347  0  3.923767  0
C  C37  1  0.24214077  0.13148404  0.01943288  1  0  -0.11709  0  3.689146  0  0  -0.14006  0  3.936483  0  0  -0.140552  0  3.954987  0  0  -0.080177  -0.139398  0  3.923855  0
C  C38  1  0.74214167  0.36851692  0.51942931  1  0  -0.117094  0  3.688918  0  0  -0.140196  0  3.936276  0  0  -0.140696  0  3.954788  0  0  -0.080234  -0.139537  0  3.923649  0
C  C39  1  0.75786185  0.86851557  0.98056971  1  0  -0.117014  0  3.688881  0  0  -0.140032  0  3.936216  0  0  -0.140534  0  3.954715  0  0  -0.080148  -0.139373  0  3.923591  0
C  C40  1  0.24645089  0.49770782  0.45835070  1  0  -0.090752  0  3.761129  0  0  -0.101652  0  4.01032  0  0  -0.106535  0  4.031952  0  0  -0.086383  -0.098548  0  3.995087  0
C  C41  1  0.25355728  0.99770830  0.04165330  1  0  -0.09078  0  3.761019  0  0  -0.101709  0  4.010222  0  0  -0.106595  0  4.031855  0  0  -0.086322  -0.098605  0  3.994996  0
C  C42  1  0.75355638  0.50229376  0.54165459  1  0  -0.090742  0  3.760993  0  0  -0.101634  0  4.010213  0  0  -0.106523  0  4.031849  0  0  -0.086323  -0.098528  0  3.994985  0
C  C43  1  0.74645009  0.00229624  0.95834640  1  0  -0.090732  0  3.76103  0  0  -0.101622  0  4.010233  0  0  -0.106508  0  4.031873  0  0  -0.0863  -0.09852  0  3.995015  0
C  C44  1  0.31740352  0.45044600  0.36487040  1  0  0.093973  0  3.732856  0  0  0.057128  0  3.994121  0  0  0.063467  0  4.011794  0  0  0.022278  0.053301  0  3.981531  0
C  C45  1  0.18259872  0.95044531  0.13513654  1  0  0.094068  0  3.73284  0  0  0.057241  0  3.994105  0  0  0.06358  0  4.011782  0  0  0.022309  0.053407  0  3.981519  0
C  C46  1  0.68259905  0.54955263  0.63513538  1  0  0.094058  0  3.732893  0  0  0.057212  0  3.994157  0  0  0.063554  0  4.011831  0  0  0.022298  0.053375  0  3.981568  0
C  C47  1  0.81740391  0.04955430  0.86486525  1  0  0.093936  0  3.733018  0  0  0.057117  0  3.994299  0  0  0.063456  0  4.011975  0  0  0.022259  0.053262  0  3.9817  0
N  N48  1  0.61057559  0.25205028  0.24456245  1  0  -0.473149  0  2.622904  0  0  -0.453  0  2.906292  0  0  -0.46861  0  2.913595  0  0  -0.243873  -0.441863  0  2.901339  0
N  N49  1  0.88942683  0.75204258  0.25543377  1  0  -0.472886  0  2.623351  0  0  -0.45269  0  2.906698  0  0  -0.468295  0  2.914  0  0  -0.243723  -0.441561  0  2.901748  0
N  N50  1  0.38942084  0.74795129  0.75543574  1  0  -0.473052  0  2.623011  0  0  -0.452882  0  2.906347  0  0  -0.468487  0  2.913647  0  0  -0.243831  -0.441749  0  2.901397  0
N  N51  1  0.11057592  0.24795506  0.74456084  1  0  -0.472776  0  2.62351  0  0  -0.452716  0  2.90686  0  0  -0.468315  0  2.914158  0  0  -0.243718  -0.441591  0  2.901916  0
N  N52  1  0.62758550  0.14776917  0.28477243  1  0  0.423422  0  4.249791  0  0  0.455041  0  4.528472  0  0  0.472158  0  4.557065  0  0  0.088502  0.443467  0  4.50898  0
N  N53  1  0.87241775  0.64776857  0.21522492  1  0  0.422985  0  4.250062  0  0  0.454582  0  4.528801  0  0  0.471698  0  4.557398  0  0  0.088242  0.44301  0  4.509306  0
N  N54  1  0.37241095  0.85222749  0.71522416  1  0  0.423217  0  4.249627  0  0  0.454851  0  4.528296  0  0  0.471968  0  4.556892  0  0  0.088344  0.443279  0  4.508805  0
N  N55  1  0.12758341  0.35222219  0.78477119  1  0  0.422941  0  4.250164  0  0  0.454737  0  4.528771  0  0  0.471854  0  4.557366  0  0  0.088286  0.443164  0  4.509276  0
N  N56  1  0.64644627  0.04325978  0.32830779  1  0  -0.552792  0  2.612076  0  0  -0.525076  0  2.883421  0  0  -0.543018  0  2.889308  0  0  -0.284157  -0.512401  0  2.879516  0
N  N57  1  0.85355319  0.54325450  0.17168640  1  0  -0.552556  0  2.611788  0  0  -0.524869  0  2.88318  0  0  -0.542816  0  2.889073  0  0  -0.28404  -0.512189  0  2.879271  0
N  N58  1  0.35355025  0.95673884  0.67168482  1  0  -0.55268  0  2.611755  0  0  -0.524992  0  2.883132  0  0  -0.542939  0  2.889023  0  0  -0.284064  -0.512316  0  2.879226  0
N  N59  1  0.14644475  0.45673822  0.82831509  1  0  -0.552538  0  2.611579  0  0  -0.524976  0  2.882983  0  0  -0.54293  0  2.888877  0  0  -0.284077  -0.512295  0  2.879072  0
N  N60  1  0.39638159  0.53132139  0.29479226  1  0  -0.319273  0  3.331998  0  0  -0.239894  0  3.59724  0  0  -0.258464  0  3.619031  0  0  -0.339275  -0.226989  0  3.581815  0
N  N61  1  0.10362101  0.03131944  0.20521023  1  0  -0.319297  0  3.332057  0  0  -0.239922  0  3.597301  0  0  -0.258493  0  3.619096  0  0  -0.339286  -0.227018  0  3.581882  0
N  N62  1  0.60361789  0.46867527  0.70521093  1  0  -0.31939  0  3.332064  0  0  -0.240003  0  3.597327  0  0  -0.258574  0  3.619118  0  0  -0.339303  -0.227101  0  3.58191  0
N  N63  1  0.89637534  0.96867821  0.79479275  1  0  -0.31929  0  3.332143  0  0  -0.239911  0  3.597355  0  0  -0.258482  0  3.619148  0  0  -0.339264  -0.22701  0  3.581945  0
N  N64  1  0.33242754  0.85364201  0.41987066  1  0  -0.660128  0  3.181355  0  0  -0.604004  0  3.409368  0  0  -0.625235  0  3.411564  0  0  -0.599511  -0.589383  0  3.407547  0
N  N65  1  0.16757720  0.35364235  0.08012791  1  0  -0.660111  0  3.181333  0  0  -0.604009  0  3.409356  0  0  -0.62524  0  3.411552  0  0  -0.599507  -0.589384  0  3.407531  0
N  N66  1  0.66757835  0.14635957  0.58012415  1  0  -0.660122  0  3.181226  0  0  -0.604032  0  3.409235  0  0  -0.625261  0  3.411432  0  0  -0.599534  -0.589409  0  3.407411  0
N  N67  1  0.83241606  0.64635824  0.91987247  1  0  -0.66016  0  3.181331  0  0  -0.604044  0  3.409266  0  0  -0.625274  0  3.411462  0  0  -0.599468  -0.58942  0  3.407443  0
Cl  Cl68  1  0.36335648  0.65609830  0.03237562  1  0  -0.561842  0  0.990896  0  0  -0.497763  0  1.273612  0  0  -0.516621  0  1.255309  0  0  -0.289285  -0.484631  0  1.285716  0
Cl  Cl69  1  0.13664198  0.15609713  0.46762627  1  0  -0.561821  0  0.990868  0  0  -0.497757  0  1.273609  0  0  -0.516619  0  1.255313  0  0  -0.289285  -0.484622  0  1.285711  0
Cl  Cl70  1  0.63664613  0.34390230  0.96762777  1  0  -0.561826  0  0.990889  0  0  -0.497768  0  1.273647  0  0  -0.516628  0  1.25535  0  0  -0.289293  -0.484638  0  1.285757  0
Cl  Cl71  1  0.86335603  0.84390248  0.53237123  1  0  -0.561797  0  0.990864  0  0  -0.497747  0  1.273647  0  0  -0.516609  0  1.255349  0  0  -0.289274  -0.484614  0  1.28575  0
