# generated using pymatgen
data_ZnH18C24(N2O5)2
_symmetry_space_group_name_H-M   'P 1'
_cell_length_a   9.91089225
_cell_length_b   10.96628254
_cell_length_c   12.33936665
_cell_angle_alpha   89.99998423
_cell_angle_beta   90.00003045
_cell_angle_gamma   114.26962336
_symmetry_Int_Tables_number   1
_chemical_formula_structural   ZnH18C24(N2O5)2
_chemical_formula_sum   'Zn2 H36 C48 N8 O20'
_cell_volume   1222.58631152
_cell_formula_units_Z   2
loop_
 _symmetry_equiv_pos_site_id
 _symmetry_equiv_pos_as_xyz
  1  'x, y, z'
loop_
 _atom_site_type_symbol
 _atom_site_label
 _atom_site_symmetry_multiplicity
 _atom_site_fract_x
 _atom_site_fract_y
 _atom_site_fract_z
 _atom_site_occupancy
 _atom_site_pbe_bader_spin_density
 _atom_site_pbe_cm5_charge
 _atom_site_pbe_ddec_charge
 _atom_site_pbe_ddec_spin_density
 _atom_site_pbe_ddec_sum_bond_order
 _atom_site_pbe_magmom
Zn  Zn0  1  0.49999936  0.49999924  0.00000005  1  0  0.694464  0.87222  0  2.23988  0
Zn  Zn1  1  0.00000032  0.99999948  0.49999961  1  0  0.694485  0.872243  0  2.239865  0
H  H2  1  0.05277841  0.29715358  0.20775213  1  0  0.294071  0.344612  0  1.00816  0
H  H3  1  0.44722224  0.20284562  0.70775195  1  0  0.294068  0.344618  0  1.008159  0
H  H4  1  0.94722154  0.70284687  0.79224823  1  0  0.294063  0.344613  0  1.008172  0
H  H5  1  0.55277679  0.79715282  0.29224841  1  0  0.294059  0.344607  0  1.008185  0
H  H6  1  0.56368837  0.06845377  0.23154036  1  0  0.101765  0.10105  0  1.018734  0
H  H7  1  0.93631177  0.43154642  0.73154012  1  0  0.101767  0.101047  0  1.018739  0
H  H8  1  0.43631158  0.93154668  0.76845676  1  0  0.101738  0.101  0  1.018763  0
H  H9  1  0.06368818  0.56845403  0.26845862  1  0  0.101757  0.101021  0  1.018751  0
H  H10  1  0.10085740  0.12427854  0.90900371  1  0  0.10398  0.115497  0  1.009521  0
H  H11  1  0.39914237  0.37572065  0.40900239  1  0  0.103986  0.11548  0  1.009554  0
H  H12  1  0.89914201  0.87572292  0.09099827  1  0  0.10397  0.115483  0  1.009537  0
H  H13  1  0.60085766  0.62427778  0.59099716  1  0  0.103989  0.115508  0  1.009514  0
H  H14  1  0.94561210  0.11654054  0.83054443  1  0  0.091379  0.09221  0  1.023405  0
H  H15  1  0.55438718  0.38345764  0.33054378  1  0  0.091381  0.092191  0  1.023435  0
H  H16  1  0.05438839  0.88345890  0.16945674  1  0  0.091384  0.092188  0  1.023403  0
H  H17  1  0.44561085  0.61654082  0.66945658  1  0  0.091388  0.092204  0  1.023398  0
H  H18  1  0.58033868  0.26324624  0.92312608  1  0  0.103933  0.113975  0  1.059039  0
H  H19  1  0.91966305  0.23675492  0.42312642  1  0  0.103957  0.113971  0  1.059065  0
H  H20  1  0.41966321  0.73675620  0.07687347  1  0  0.10394  0.113965  0  1.059064  0
H  H21  1  0.08033790  0.76324551  0.57687313  1  0  0.103962  0.113998  0  1.05905  0
H  H22  1  0.32839997  0.05454629  0.23411338  1  0  0.345587  0.307137  0  0.890561  0
H  H23  1  0.17160070  0.44545290  0.73411384  1  0  0.3456  0.307172  0  0.890537  0
H  H24  1  0.67160053  0.94545314  0.76588537  1  0  0.345601  0.307153  0  0.890559  0
H  H25  1  0.82840026  0.55454754  0.26588572  1  0  0.345592  0.307154  0  0.890553  0
H  H26  1  0.77745428  0.02520756  0.17682528  1  0  0.104071  0.118341  0  1.017853  0
H  H27  1  0.72254629  0.47479363  0.67682333  1  0  0.104042  0.118286  0  1.017794  0
H  H28  1  0.22254420  0.97479189  0.82317508  1  0  0.10405  0.118311  0  1.017832  0
H  H29  1  0.27745467  0.52520681  0.32317460  1  0  0.104069  0.118339  0  1.017821  0
H  H30  1  0.04796395  0.26281729  0.91053212  1  0  0.096485  0.100318  0  1.004149  0
H  H31  1  0.45203436  0.23718091  0.41053086  1  0  0.09651  0.100334  0  1.004172  0
H  H32  1  0.95203554  0.73718216  0.08946905  1  0  0.096512  0.100341  0  1.004142  0
H  H33  1  0.54796513  0.76281853  0.58946950  1  0  0.096504  0.10034  0  1.004135  0
H  H34  1  0.79638544  0.22268739  0.87077498  1  0  0.101526  0.113109  0  1.023531  0
H  H35  1  0.70361680  0.27731277  0.37077441  1  0  0.101513  0.113099  0  1.023575  0
H  H36  1  0.20361652  0.77731304  0.12922538  1  0  0.10153  0.11311  0  1.023532  0
H  H37  1  0.29638370  0.72268667  0.62922514  1  0  0.101498  0.113078  0  1.023517  0
C  C38  1  0.55594155  0.17096781  0.08080570  1  0  -0.026489  -0.040859  0  4.06454  0
C  C39  1  0.94405842  0.32903439  0.58080631  1  0  -0.026459  -0.040875  0  4.064605  0
C  C40  1  0.44405933  0.82903463  0.91919385  1  0  -0.026433  -0.04084  0  4.064528  0
C  C41  1  0.05594154  0.67096606  0.41919405  1  0  -0.026496  -0.04089  0  4.064451  0
C  C42  1  0.21657202  0.39574411  0.10725510  1  0  0.230323  0.562194  0  4.166841  0
C  C43  1  0.28342856  0.10425510  0.60725407  1  0  0.230337  0.562246  0  4.166824  0
C  C44  1  0.78342847  0.60425533  0.89274607  1  0  0.230328  0.562233  0  4.166807  0
C  C45  1  0.71657093  0.89574435  0.39274629  1  0  0.230304  0.562204  0  4.166854  0
C  C46  1  0.23072142  0.18940088  0.20196501  1  0  0.090988  0.00775  0  3.969216  0
C  C47  1  0.26927868  0.31059933  0.70196473  1  0  0.090969  0.007737  0  3.969156  0
C  C48  1  0.76927807  0.81059856  0.79803535  1  0  0.091023  0.00785  0  3.969108  0
C  C49  1  0.73072127  0.68940112  0.29803563  1  0  0.090999  0.007762  0  3.969174  0
C  C50  1  0.61128623  0.10106224  0.15131258  1  0  -0.088677  -0.096021  0  4.003292  0
C  C51  1  0.88871231  0.39893897  0.65131234  1  0  -0.088711  -0.096064  0  4.003419  0
C  C52  1  0.38871419  0.89893921  0.84868535  1  0  -0.088654  -0.095954  0  4.003217  0
C  C53  1  0.11128764  0.60106148  0.34868640  1  0  -0.088651  -0.095959  0  4.003225  0
C  C54  1  0.43287748  0.20253905  0.11206254  1  0  0.24016  0.332087  0  3.953685  0
C  C55  1  0.06712302  0.29746216  0.61206219  1  0  0.240159  0.332082  0  3.95364  0
C  C56  1  0.56712293  0.79746240  0.88793782  1  0  0.240161  0.332077  0  3.953638  0
C  C57  1  0.93287840  0.70253928  0.38793736  1  0  0.240154  0.332072  0  3.953638  0
C  C58  1  0.74496474  0.18717270  0.94922876  1  0  -0.1111  -0.220502  0  3.993281  0
C  C59  1  0.75503856  0.31282745  0.44922820  1  0  -0.111013  -0.220446  0  3.99327  0
C  C60  1  0.25503668  0.81282874  0.05077160  1  0  -0.11106  -0.220442  0  3.993244  0
C  C61  1  0.24496248  0.68717098  0.55077135  1  0  -0.111054  -0.220511  0  3.993268  0
C  C62  1  0.27411089  0.29335924  0.12759733  1  0  0.078519  -0.023312  0  4.042702  0
C  C63  1  0.22588870  0.20663997  0.62759625  1  0  0.078535  -0.023304  0  4.042581  0
C  C64  1  0.72588759  0.70664021  0.87240303  1  0  0.078519  -0.023367  0  4.042652  0
C  C65  1  0.77411079  0.79335947  0.37240411  1  0  0.078526  -0.023297  0  4.042675  0
C  C66  1  0.73142670  0.07513563  0.12133376  1  0  -0.103217  -0.187402  0  3.987195  0
C  C67  1  0.76857338  0.42486456  0.62133103  1  0  -0.103187  -0.187254  0  3.987154  0
C  C68  1  0.26857380  0.92486381  0.87866579  1  0  -0.103191  -0.187333  0  3.987093  0
C  C69  1  0.23142758  0.57513587  0.37866690  1  0  -0.103225  -0.187396  0  3.987179  0
C  C70  1  0.62341657  0.21186290  0.97946853  1  0  -0.07801  -0.049572  0  3.948311  0
C  C71  1  0.87658519  0.28813826  0.47946884  1  0  -0.078007  -0.049461  0  3.948335  0
C  C72  1  0.37658531  0.78813954  0.02053102  1  0  -0.078043  -0.04958  0  3.94837  0
C  C73  1  0.12341623  0.71186318  0.52053071  1  0  -0.078045  -0.049553  0  3.94831  0
C  C74  1  0.80021951  0.11935116  0.02054578  1  0  0.085411  0.258437  0  4.059985  0
C  C75  1  0.69978104  0.38064804  0.52054303  1  0  0.085335  0.258217  0  4.060065  0
C  C76  1  0.19978090  0.88065029  0.97945539  1  0  0.08537  0.25832  0  4.0599  0
C  C77  1  0.30021945  0.61935140  0.47945571  1  0  0.085416  0.258433  0  4.059882  0
C  C78  1  0.00770847  0.15325696  0.90639415  1  0  -0.147196  -0.185755  0  3.911502  0
C  C79  1  0.49229084  0.34674123  0.40639288  1  0  -0.147231  -0.185748  0  3.911529  0
C  C80  1  0.99229102  0.84674248  0.09360783  1  0  -0.147215  -0.185749  0  3.911445  0
C  C81  1  0.50770966  0.65325821  0.59360748  1  0  -0.147234  -0.185801  0  3.91148  0
C  C82  1  0.11072008  0.14218907  0.28302020  1  0  0.211879  0.546566  0  4.278884  0
C  C83  1  0.38928062  0.35781013  0.78301997  1  0  0.211893  0.546583  0  4.278838  0
C  C84  1  0.88928041  0.85781037  0.71697935  1  0  0.211851  0.546513  0  4.278919  0
C  C85  1  0.61072034  0.64219031  0.21698039  1  0  0.211851  0.546545  0  4.278892  0
N  N86  1  0.39831394  0.30066733  0.07297543  1  0  -0.325866  -0.345762  0  3.383073  0
N  N87  1  0.10168554  0.19933390  0.57297511  1  0  -0.325883  -0.345748  0  3.383031  0
N  N88  1  0.60168400  0.69933313  0.92702493  1  0  -0.325896  -0.345748  0  3.383051  0
N  N89  1  0.89831441  0.80066655  0.42702606  1  0  -0.325882  -0.34577  0  3.383086  0
N  N90  1  0.33218670  0.13469270  0.19070028  1  0  -0.36372  -0.269887  0  3.621761  0
N  N91  1  0.16781294  0.36530651  0.69069995  1  0  -0.36376  -0.269972  0  3.621732  0
N  N92  1  0.66781279  0.86530674  0.80929927  1  0  -0.363797  -0.269995  0  3.621689  0
N  N93  1  0.83218802  0.63469393  0.30929960  1  0  -0.363746  -0.269931  0  3.62173  0
O  O94  1  0.28932063  0.49307132  0.04805352  1  0  -0.274851  -0.468059  0  2.300464  0
O  O95  1  0.21067892  0.00692790  0.54805329  1  0  -0.27486  -0.46808  0  2.300496  0
O  O96  1  0.71067932  0.50692913  0.95194603  1  0  -0.274834  -0.468043  0  2.300504  0
O  O97  1  0.78931911  0.99307055  0.45194707  1  0  -0.274837  -0.468072  0  2.300505  0
O  O98  1  0.09181243  0.38235447  0.15232384  1  0  -0.314203  -0.457039  0  2.281531  0
O  O99  1  0.40818773  0.11764373  0.65232367  1  0  -0.314199  -0.457065  0  2.281527  0
O  O100  1  0.90818807  0.61764497  0.84767571  1  0  -0.31421  -0.457067  0  2.281497  0
O  O101  1  0.59181130  0.88235471  0.34767670  1  0  -0.314202  -0.457058  0  2.281541  0
O  O102  1  0.92004847  0.09212713  0.99967791  1  0  -0.184289  -0.164194  0  2.596056  0
O  O103  1  0.57995238  0.40787202  0.49967645  1  0  -0.18429  -0.164119  0  2.59605  0
O  O104  1  0.07995148  0.90787331  0.00032326  1  0  -0.184294  -0.164154  0  2.595946  0
O  O105  1  0.42004811  0.59212742  0.50032391  1  0  -0.184289  -0.16415  0  2.59598  0
O  O106  1  0.01827377  0.19581261  0.28265954  1  0  -0.296195  -0.497887  0  2.262778  0
O  O107  1  0.48172739  0.30418759  0.78265936  1  0  -0.296206  -0.497902  0  2.262763  0
O  O108  1  0.98172819  0.80418783  0.71734001  1  0  -0.296182  -0.497892  0  2.262806  0
O  O109  1  0.51827311  0.69581185  0.21734100  1  0  -0.29619  -0.497888  0  2.262795  0
O  O110  1  0.11003944  0.05182659  0.34729256  1  0  -0.313497  -0.54315  0  2.328212  0
O  O111  1  0.38996129  0.44817260  0.84729230  1  0  -0.313474  -0.543129  0  2.328231  0
O  O112  1  0.88996206  0.94817285  0.65270780  1  0  -0.313472  -0.543099  0  2.32825  0
O  O113  1  0.61003966  0.55182784  0.15270806  1  0  -0.313463  -0.543125  0  2.328226  0
