# generated using pymatgen
data_ZnH7C10N2ClO2
_symmetry_space_group_name_H-M   'P 1'
_cell_length_a   8.56469153
_cell_length_b   8.45101160
_cell_length_c   15.11357207
_cell_angle_alpha   89.99918615
_cell_angle_beta   89.99990902
_cell_angle_gamma   109.80385695
_symmetry_Int_Tables_number   1
_chemical_formula_structural   ZnH7C10N2ClO2
_chemical_formula_sum   'Zn4 H28 C40 N8 Cl4 O8'
_cell_volume   1029.22804222
_cell_formula_units_Z   4
loop_
 _symmetry_equiv_pos_site_id
 _symmetry_equiv_pos_as_xyz
  1  'x, y, z'
loop_
 _atom_site_type_symbol
 _atom_site_label
 _atom_site_symmetry_multiplicity
 _atom_site_fract_x
 _atom_site_fract_y
 _atom_site_fract_z
 _atom_site_occupancy
 _atom_site_hle17_bader_spin_density
 _atom_site_hle17_ddec_charge
 _atom_site_hle17_ddec_spin_density
 _atom_site_hle17_ddec_sum_bond_order
 _atom_site_hle17_magmom
 _atom_site_hse06_10hf_bader_spin_density
 _atom_site_hse06_10hf_ddec_charge
 _atom_site_hse06_10hf_ddec_spin_density
 _atom_site_hse06_10hf_ddec_sum_bond_order
 _atom_site_hse06_10hf_magmom
 _atom_site_hse06_bader_spin_density
 _atom_site_hse06_ddec_charge
 _atom_site_hse06_ddec_spin_density
 _atom_site_hse06_ddec_sum_bond_order
 _atom_site_hse06_magmom
 _atom_site_pbe_bader_spin_density
 _atom_site_pbe_cm5_charge
 _atom_site_pbe_ddec_charge
 _atom_site_pbe_ddec_spin_density
 _atom_site_pbe_ddec_sum_bond_order
 _atom_site_pbe_magmom
Zn  Zn0  1  0.51755211  0.41363074  0.39624730  1  0  0.995598  0  1.974177  0  0  0.821607  0  2.473273  0  0  0.867407  0  2.413973  0  0  0.627269  0.789663  0  2.514055  0
Zn  Zn1  1  0.48243865  0.08635841  0.89624888  1  0  0.995719  0  1.974106  0  0  0.821739  0  2.473144  0  0  0.867533  0  2.413841  0  0  0.627295  0.789792  0  2.513922  0
Zn  Zn2  1  0.48244850  0.58636211  0.60375350  1  0  0.995674  0  1.974164  0  0  0.821683  0  2.473282  0  0  0.867485  0  2.41398  0  0  0.627287  0.789735  0  2.514073  0
Zn  Zn3  1  0.51755819  0.91364071  0.10375390  1  0  0.995652  0  1.974155  0  0  0.821688  0  2.473219  0  0  0.867487  0  2.413915  0  0  0.627297  0.789747  0  2.513996  0
H  H4  1  0.92364067  0.31154283  0.47199536  1  0  0.089965  0  0.954028  0  0  0.10099  0  1.016082  0  0  0.103618  0  1.014365  0  0  0.101271  0.099026  0  1.017455  0
H  H5  1  0.07635661  0.18846669  0.97200107  1  0  0.089829  0  0.954145  0  0  0.100828  0  1.016252  0  0  0.103456  0  1.014535  0  0  0.101196  0.098868  0  1.01762  0
H  H6  1  0.07637472  0.68848398  0.52800676  1  0  0.089938  0  0.954115  0  0  0.100979  0  1.016144  0  0  0.103605  0  1.01443  0  0  0.101285  0.099021  0  1.01751  0
H  H7  1  0.92364742  0.81153999  0.02799774  1  0  0.089828  0  0.954136  0  0  0.100829  0  1.016247  0  0  0.103459  0  1.014526  0  0  0.101186  0.098867  0  1.017617  0
H  H8  1  0.13211325  0.19386552  0.52686734  1  0  0.105246  0  0.99974  0  0  0.112742  0  1.067396  0  0  0.116166  0  1.06579  0  0  0.092151  0.110291  0  1.068635  0
H  H9  1  0.86788924  0.30614475  0.02687628  1  0  0.105278  0  0.999685  0  0  0.112764  0  1.067353  0  0  0.116188  0  1.065748  0  0  0.092124  0.110309  0  1.068617  0
H  H10  1  0.86790322  0.80615753  0.47313147  1  0  0.105212  0  0.999708  0  0  0.112723  0  1.067333  0  0  0.116146  0  1.065725  0  0  0.092105  0.110268  0  1.068595  0
H  H11  1  0.13211370  0.69386570  0.97312121  1  0  0.10529  0  0.99964  0  0  0.112775  0  1.067307  0  0  0.116199  0  1.0657  0  0  0.092123  0.110317  0  1.068576  0
H  H12  1  0.92886709  0.17432309  0.79111901  1  0  0.103319  0  0.951458  0  0  0.113315  0  1.014253  0  0  0.116081  0  1.013522  0  0  0.104022  0.111337  0  1.014878  0
H  H13  1  0.07114468  0.32567553  0.29112641  1  0  0.103385  0  0.951501  0  0  0.113306  0  1.014375  0  0  0.116067  0  1.01366  0  0  0.104004  0.111318  0  1.015028  0
H  H14  1  0.07113009  0.82565592  0.20887650  1  0  0.103291  0  0.951452  0  0  0.113284  0  1.01426  0  0  0.116039  0  1.013562  0  0  0.103979  0.111301  0  1.014904  0
H  H15  1  0.92884991  0.67432735  0.70887306  1  0  0.1034  0  0.951509  0  0  0.113332  0  1.014375  0  0  0.116085  0  1.013679  0  0  0.10401  0.111341  0  1.01503  0
H  H16  1  0.72865497  0.29983399  0.73516954  1  0  0.102038  0  0.975243  0  0  0.107541  0  1.045444  0  0  0.110903  0  1.042993  0  0  0.095843  0.105076  0  1.047277  0
H  H17  1  0.27134928  0.20016252  0.23517249  1  0  0.102056  0  0.975219  0  0  0.10757  0  1.04541  0  0  0.110934  0  1.042959  0  0  0.095851  0.1051  0  1.047248  0
H  H18  1  0.27133553  0.70014250  0.26482994  1  0  0.101991  0  0.975325  0  0  0.107526  0  1.04549  0  0  0.110892  0  1.043041  0  0  0.095815  0.105056  0  1.047333  0
H  H19  1  0.72864290  0.79983659  0.76482764  1  0  0.102094  0  0.975342  0  0  0.107608  0  1.045522  0  0  0.110971  0  1.04307  0  0  0.095883  0.105138  0  1.047357  0
H  H20  1  0.16367077  0.15831283  0.83490915  1  0  0.091368  0  0.95925  0  0  0.098704  0  1.028957  0  0  0.101293  0  1.025457  0  0  0.136268  0.096839  0  1.031369  0
H  H21  1  0.83632932  0.34169325  0.33491716  1  0  0.091451  0  0.95916  0  0  0.098776  0  1.028873  0  0  0.101371  0  1.025357  0  0  0.136306  0.09692  0  1.031263  0
H  H22  1  0.83632891  0.84169132  0.16508901  1  0  0.091368  0  0.959231  0  0  0.098709  0  1.028934  0  0  0.101298  0  1.025437  0  0  0.136269  0.096836  0  1.031348  0
H  H23  1  0.16366945  0.65830462  0.66508165  1  0  0.091422  0  0.95919  0  0  0.098733  0  1.028923  0  0  0.101334  0  1.025391  0  0  0.136285  0.096876  0  1.031312  0
H  H24  1  0.26012322  0.03933148  0.57171370  1  0  0.124839  0  0.980377  0  0  0.131965  0  1.04422  0  0  0.134891  0  1.042874  0  0  0.116517  0.129835  0  1.045258  0
H  H25  1  0.73989421  0.46067497  0.07171687  1  0  0.124883  0  0.980409  0  0  0.13204  0  1.044202  0  0  0.134968  0  1.042856  0  0  0.116548  0.129912  0  1.045247  0
H  H26  1  0.73988607  0.96066641  0.42828710  1  0  0.124906  0  0.980326  0  0  0.132049  0  1.044136  0  0  0.134976  0  1.042789  0  0  0.116517  0.129921  0  1.045176  0
H  H27  1  0.26010347  0.53932667  0.92828261  1  0  0.124922  0  0.980403  0  0  0.132061  0  1.044208  0  0  0.134989  0  1.042862  0  0  0.116522  0.129935  0  1.045252  0
H  H28  1  0.48072003  0.97177694  0.68607069  1  0  0.112878  0  0.968457  0  0  0.119695  0  1.031952  0  0  0.12235  0  1.031055  0  0  0.111783  0.117736  0  1.032758  0
H  H29  1  0.51928156  0.52821838  0.18606622  1  0  0.112847  0  0.968476  0  0  0.119662  0  1.031978  0  0  0.122318  0  1.031079  0  0  0.11176  0.117703  0  1.03279  0
H  H30  1  0.51928300  0.02821968  0.31393474  1  0  0.112865  0  0.968506  0  0  0.119681  0  1.03201  0  0  0.122338  0  1.031111  0  0  0.111791  0.11772  0  1.032826  0
H  H31  1  0.48071570  0.47178200  0.81393391  1  0  0.112848  0  0.968488  0  0  0.119671  0  1.03197  0  0  0.122327  0  1.031072  0  0  0.111774  0.117711  0  1.032782  0
C  C32  1  0.81125053  0.31229051  0.59924262  1  0  -0.092399  0  3.767627  0  0  -0.067447  0  3.997574  0  0  -0.079115  0  4.022969  0  0  -0.024315  -0.059922  0  3.980518  0
C  C33  1  0.18875159  0.18770880  0.09924706  1  0  -0.092236  0  3.767677  0  0  -0.06735  0  3.997678  0  0  -0.079019  0  4.023075  0  0  -0.024276  -0.059837  0  3.980626  0
C  C34  1  0.18875217  0.68770863  0.40075751  1  0  -0.0923  0  3.767627  0  0  -0.067445  0  3.99775  0  0  -0.079114  0  4.023151  0  0  -0.024315  -0.059927  0  3.980687  0
C  C35  1  0.81124451  0.81229158  0.90075307  1  0  -0.092334  0  3.767561  0  0  -0.067387  0  3.997502  0  0  -0.079057  0  4.022905  0  0  -0.024309  -0.059872  0  3.980449  0
C  C36  1  0.92511546  0.27999963  0.54171362  1  0  -0.028466  0  3.727858  0  0  -0.053279  0  3.976611  0  0  -0.050607  0  3.996515  0  0  -0.077938  -0.054797  0  3.963112  0
C  C37  1  0.07488358  0.22000390  0.04172054  1  0  -0.028332  0  3.728032  0  0  -0.053081  0  3.976765  0  0  -0.050405  0  3.996667  0  0  -0.07786  -0.054593  0  3.963262  0
C  C38  1  0.07489458  0.72001460  0.45828652  1  0  -0.028482  0  3.728058  0  0  -0.053264  0  3.976822  0  0  -0.050589  0  3.996725  0  0  -0.077941  -0.054782  0  3.96332  0
C  C39  1  0.92511811  0.78000278  0.95827894  1  0  -0.028298  0  3.727946  0  0  -0.053062  0  3.976643  0  0  -0.050387  0  3.996544  0  0  -0.077873  -0.054576  0  3.963141  0
C  C40  1  0.04170785  0.21272095  0.57266918  1  0  -0.140208  0  3.709363  0  0  -0.160304  0  3.962426  0  0  -0.166131  0  3.98194  0  0  -0.092628  -0.156552  0  3.949324  0
C  C41  1  0.95829671  0.28728544  0.07267820  1  0  -0.140338  0  3.709503  0  0  -0.160491  0  3.96257  0  0  -0.166318  0  3.982084  0  0  -0.092626  -0.156737  0  3.949465  0
C  C42  1  0.95830570  0.78729329  0.42732897  1  0  -0.140201  0  3.709425  0  0  -0.160309  0  3.962501  0  0  -0.166131  0  3.982012  0  0  -0.092591  -0.156574  0  3.949424  0
C  C43  1  0.04170423  0.71272249  0.92731929  1  0  -0.140346  0  3.709522  0  0  -0.160439  0  3.962614  0  0  -0.166264  0  3.982129  0  0  -0.092593  -0.156695  0  3.949525  0
C  C44  1  0.04440660  0.17536213  0.66264078  1  0  0.201317  0  3.74793  0  0  0.190305  0  3.997589  0  0  0.198588  0  4.018326  0  0  0.102893  0.184878  0  3.983541  0
C  C45  1  0.95560069  0.32464284  0.16264950  1  0  0.201349  0  3.747797  0  0  0.190431  0  3.997326  0  0  0.198714  0  4.01806  0  0  0.102884  0.185  0  3.983285  0
C  C46  1  0.95560202  0.82464079  0.33735671  1  0  0.201286  0  3.747912  0  0  0.190289  0  3.997552  0  0  0.19857  0  4.01829  0  0  0.102888  0.184859  0  3.983504  0
C  C47  1  0.04439866  0.67536383  0.83734931  1  0  0.201387  0  3.747761  0  0  0.190321  0  3.997485  0  0  0.198599  0  4.018229  0  0  0.102831  0.18489  0  3.983438  0
C  C48  1  0.93037577  0.20510448  0.72111029  1  0  -0.147171  0  3.722445  0  0  -0.169731  0  3.984255  0  0  -0.175699  0  4.005007  0  0  -0.091477  -0.165925  0  3.970348  0
C  C49  1  0.06963150  0.29489749  0.22111728  1  0  -0.147159  0  3.722442  0  0  -0.169652  0  3.984171  0  0  -0.175622  0  4.004924  0  0  -0.091445  -0.165842  0  3.970254  0
C  C50  1  0.06962483  0.79488837  0.27888654  1  0  -0.147086  0  3.722563  0  0  -0.169611  0  3.984279  0  0  -0.175583  0  4.005028  0  0  -0.091433  -0.165798  0  3.970363  0
C  C51  1  0.93036543  0.70510541  0.77888154  1  0  -0.147211  0  3.722527  0  0  -0.169683  0  3.984304  0  0  -0.175653  0  4.005054  0  0  -0.091436  -0.165874  0  3.97039  0
C  C52  1  0.81539587  0.27436217  0.68938294  1  0  -0.042917  0  3.728988  0  0  -0.068653  0  3.981419  0  0  -0.066311  0  4.001466  0  0  -0.080615  -0.069916  0  3.967793  0
C  C53  1  0.18461056  0.22563697  0.18938642  1  0  -0.043077  0  3.729056  0  0  -0.068819  0  3.981508  0  0  -0.066475  0  4.001553  0  0  -0.080636  -0.070065  0  3.967862  0
C  C54  1  0.18460389  0.72562816  0.31061653  1  0  -0.042948  0  3.729087  0  0  -0.068673  0  3.981536  0  0  -0.066335  0  4.00159  0  0  -0.080593  -0.069929  0  3.967907  0
C  C55  1  0.81538595  0.77436467  0.81061305  1  0  -0.043082  0  3.729231  0  0  -0.068826  0  3.981642  0  0  -0.066481  0  4.001687  0  0  -0.080665  -0.070066  0  3.967978  0
C  C56  1  0.68922434  0.38734062  0.56457022  1  0  0.670813  0  3.878397  0  0  0.619014  0  4.161602  0  0  0.655542  0  4.153378  0  0  0.222077  0.594205  0  4.166499  0
C  C57  1  0.31077515  0.11266098  0.06457451  1  0  0.670751  0  3.878477  0  0  0.618975  0  4.161682  0  0  0.655491  0  4.153476  0  0  0.222025  0.594174  0  4.166559  0
C  C58  1  0.31077401  0.61265600  0.43542991  1  0  0.670928  0  3.878153  0  0  0.619092  0  4.161473  0  0  0.655608  0  4.153268  0  0  0.222106  0.594304  0  4.166335  0
C  C59  1  0.68921852  0.88733562  0.93542894  1  0  0.67078  0  3.878144  0  0  0.618941  0  4.161429  0  0  0.655457  0  4.153227  0  0  0.221952  0.594137  0  4.16632  0
C  C60  1  0.21803108  0.11417149  0.77981379  1  0  0.181758  0  3.646802  0  0  0.119039  0  3.914264  0  0  0.133652  0  3.927125  0  0  0.150818  0.109663  0  3.90522  0
C  C61  1  0.78197040  0.38583122  0.27981885  1  0  0.181573  0  3.646855  0  0  0.118854  0  3.914319  0  0  0.133471  0  3.927185  0  0  0.15074  0.109483  0  3.905271  0
C  C62  1  0.78196969  0.88582890  0.22018569  1  0  0.181773  0  3.646779  0  0  0.119051  0  3.914246  0  0  0.133663  0  3.927104  0  0  0.150813  0.10968  0  3.905196  0
C  C63  1  0.21802920  0.61416917  0.72017997  1  0  0.181697  0  3.646921  0  0  0.118977  0  3.914378  0  0  0.133598  0  3.927244  0  0  0.150801  0.109608  0  3.905325  0
C  C64  1  0.27035425  0.05026430  0.64309386  1  0  -0.046948  0  3.616737  0  0  -0.085055  0  3.870088  0  0  -0.083834  0  3.888127  0  0  0.006819  -0.085827  0  3.858014  0
C  C65  1  0.72965755  0.44974001  0.14309647  1  0  -0.046993  0  3.616719  0  0  -0.085122  0  3.870042  0  0  -0.083901  0  3.888081  0  0  0.006788  -0.085898  0  3.85798  0
C  C66  1  0.72965269  0.94973360  0.35690694  1  0  -0.047051  0  3.616749  0  0  -0.085163  0  3.870074  0  0  -0.083943  0  3.888116  0  0  0.006821  -0.085933  0  3.857999  0
C  C67  1  0.27033896  0.55026163  0.85690499  1  0  -0.047165  0  3.616651  0  0  -0.085306  0  3.870013  0  0  -0.084085  0  3.888052  0  0  0.006716  -0.08608  0  3.85795  0
C  C68  1  0.37990013  0.01843747  0.70046093  1  0  0.020371  0  3.70303  0  0  -0.011877  0  3.965253  0  0  -0.010239  0  3.98484  0  0  0.004082  -0.012984  0  3.952076  0
C  C69  1  0.62010466  0.48156385  0.20046072  1  0  0.020354  0  3.703011  0  0  -0.011913  0  3.965257  0  0  -0.01027  0  3.98484  0  0  0.0041  -0.013011  0  3.95208  0
C  C70  1  0.62010256  0.98156167  0.29954119  1  0  0.020404  0  3.703058  0  0  -0.011855  0  3.965287  0  0  -0.010212  0  3.984865  0  0  0.004048  -0.012959  0  3.952121  0
C  C71  1  0.37989495  0.51843654  0.79953876  1  0  0.020421  0  3.702904  0  0  -0.011837  0  3.965151  0  0  -0.010195  0  3.98474  0  0  0.0041  -0.01294  0  3.951976  0
N  N72  1  0.34558268  0.05882197  0.78548701  1  0  -0.374547  0  3.294464  0  0  -0.29325  0  3.589558  0  0  -0.313313  0  3.60189  0  0  -0.358183  -0.279635  0  3.58089  0
N  N73  1  0.65441831  0.44117931  0.28548841  1  0  -0.374406  0  3.294513  0  0  -0.293091  0  3.589577  0  0  -0.313162  0  3.601921  0  0  -0.358141  -0.279481  0  3.580908  0
N  N74  1  0.65441692  0.94117842  0.21451445  1  0  -0.374538  0  3.294443  0  0  -0.29324  0  3.589518  0  0  -0.313301  0  3.60185  0  0  -0.358156  -0.279633  0  3.580854  0
N  N75  1  0.34558129  0.55882107  0.71451172  1  0  -0.374445  0  3.294574  0  0  -0.293134  0  3.589642  0  0  -0.31321  0  3.601989  0  0  -0.35814  -0.279523  0  3.580973  0
N  N76  1  0.16812369  0.11188995  0.69418217  1  0  -0.085612  0  3.575827  0  0  0.003836  0  3.786474  0  0  -0.011635  0  3.811655  0  0  -0.217809  0.014068  0  3.769252  0
N  N77  1  0.83188402  0.38811659  0.19418850  1  0  -0.085583  0  3.575876  0  0  0.00383  0  3.786515  0  0  -0.011643  0  3.811698  0  0  -0.217776  0.014061  0  3.769294  0
N  N78  1  0.83188100  0.88811171  0.30581664  1  0  -0.085614  0  3.575885  0  0  0.003821  0  3.786556  0  0  -0.01165  0  3.811739  0  0  -0.21781  0.014053  0  3.769325  0
N  N79  1  0.16811367  0.61188505  0.80581031  1  0  -0.085593  0  3.575843  0  0  0.003899  0  3.786482  0  0  -0.011574  0  3.811668  0  0  -0.217704  0.014129  0  3.769259  0
Cl  Cl80  1  0.32485320  0.15951420  0.40849235  1  0  -0.574175  0  0.949516  0  0  -0.507849  0  1.218615  0  0  -0.525958  0  1.19618  0  0  -0.294311  -0.494871  0  1.234001  0
Cl  Cl81  1  0.67514934  0.34046833  0.90849374  1  0  -0.574218  0  0.94943  0  0  -0.507893  0  1.218492  0  0  -0.526  0  1.196056  0  0  -0.294355  -0.49491  0  1.233885  0
Cl  Cl82  1  0.67515700  0.84047239  0.59150713  1  0  -0.574187  0  0.949464  0  0  -0.507891  0  1.218581  0  0  -0.525997  0  1.196144  0  0  -0.29434  -0.494914  0  1.233974  0
Cl  Cl83  1  0.32484058  0.65953454  0.09150706  1  0  -0.574214  0  0.949471  0  0  -0.507894  0  1.218567  0  0  -0.526002  0  1.196135  0  0  -0.294333  -0.494911  0  1.233957  0
O  O84  1  0.69614940  0.42296844  0.48221562  1  0  -0.647077  0  2.135073  0  0  -0.57508  0  2.419594  0  0  -0.60338  0  2.403419  0  0  -0.319379  -0.555391  0  2.42992  0
O  O85  1  0.30384641  0.07703323  0.98221939  1  0  -0.647096  0  2.134895  0  0  -0.575079  0  2.419367  0  0  -0.60338  0  2.40321  0  0  -0.319328  -0.555414  0  2.429746  0
O  O86  1  0.30385254  0.57703195  0.51778584  1  0  -0.647162  0  2.135024  0  0  -0.575128  0  2.419558  0  0  -0.603433  0  2.403403  0  0  -0.319359  -0.555449  0  2.429879  0
O  O87  1  0.69615077  0.92296338  0.01778405  1  0  -0.647048  0  2.134894  0  0  -0.575068  0  2.419448  0  0  -0.603372  0  2.403297  0  0  -0.319324  -0.555378  0  2.429763  0
O  O88  1  0.58720761  0.41352160  0.61950952  1  0  -0.620019  0  2.094781  0  0  -0.54625  0  2.369531  0  0  -0.574292  0  2.353856  0  0  -0.315154  -0.526813  0  2.379594  0
O  O89  1  0.41279433  0.08648087  0.11950996  1  0  -0.619995  0  2.094874  0  0  -0.546248  0  2.369631  0  0  -0.574282  0  2.353949  0  0  -0.315174  -0.526814  0  2.379689  0
O  O90  1  0.41278348  0.58646369  0.38049062  1  0  -0.620055  0  2.094641  0  0  -0.546293  0  2.369474  0  0  -0.574321  0  2.35378  0  0  -0.315212  -0.526867  0  2.379531  0
O  O91  1  0.58719108  0.91351194  0.88049414  1  0  -0.620032  0  2.094723  0  0  -0.546228  0  2.369492  0  0  -0.574249  0  2.353783  0  0  -0.31508  -0.526794  0  2.37955  0
