# generated using pymatgen
data_Rb2H12C16Cl4O7
_symmetry_space_group_name_H-M   'P 1'
_cell_length_a   4.30577045
_cell_length_b   13.24866740
_cell_length_c   18.89345125
_cell_angle_alpha   103.37842458
_cell_angle_beta   96.55549729
_cell_angle_gamma   89.95354058
_symmetry_Int_Tables_number   1
_chemical_formula_structural   Rb2H12C16Cl4O7
_chemical_formula_sum   'Rb4 H24 C32 Cl8 O14'
_cell_volume   1041.32136055
_cell_formula_units_Z   2
loop_
 _symmetry_equiv_pos_site_id
 _symmetry_equiv_pos_as_xyz
  1  'x, y, z'
loop_
 _atom_site_type_symbol
 _atom_site_label
 _atom_site_symmetry_multiplicity
 _atom_site_fract_x
 _atom_site_fract_y
 _atom_site_fract_z
 _atom_site_occupancy
 _atom_site_hle17_bader_spin_density
 _atom_site_hle17_ddec_charge
 _atom_site_hle17_ddec_spin_density
 _atom_site_hle17_ddec_sum_bond_order
 _atom_site_hle17_magmom
 _atom_site_hse06_10hf_bader_spin_density
 _atom_site_hse06_10hf_ddec_charge
 _atom_site_hse06_10hf_ddec_spin_density
 _atom_site_hse06_10hf_ddec_sum_bond_order
 _atom_site_hse06_10hf_magmom
 _atom_site_hse06_bader_spin_density
 _atom_site_hse06_ddec_charge
 _atom_site_hse06_ddec_spin_density
 _atom_site_hse06_ddec_sum_bond_order
 _atom_site_hse06_magmom
 _atom_site_pbe_bader_spin_density
 _atom_site_pbe_cm5_charge
 _atom_site_pbe_ddec_charge
 _atom_site_pbe_ddec_spin_density
 _atom_site_pbe_ddec_sum_bond_order
 _atom_site_pbe_magmom
Rb  Rb0  1  0.70679035  0.37044717  0.93089477  1  0  0.925473  0  0.556006  0  0  0.867538  0  0.785651  0  0  0.884163  0  0.760098  0  0  0.795698  0.855261  0  0.803705  0
Rb  Rb1  1  0.77625684  0.12952448  0.06907323  1  0  0.92513  0  0.555883  0  0  0.867518  0  0.784886  0  0  0.883975  0  0.75964  0  0  0.79538  0.855266  0  0.802865  0
Rb  Rb2  1  0.29321315  0.62955575  0.06910551  1  0  0.925471  0  0.556025  0  0  0.867527  0  0.785677  0  0  0.884154  0  0.760122  0  0  0.795709  0.855254  0  0.80373  0
Rb  Rb3  1  0.22374179  0.87047612  0.93092760  1  0  0.925126  0  0.555888  0  0  0.867526  0  0.784864  0  0  0.883981  0  0.759619  0  0  0.795377  0.855282  0  0.802844  0
H  H4  1  0.41543316  0.58289194  0.68661468  1  0  0.106574  0  0.969617  0  0  0.114145  0  1.035361  0  0  0.117368  0  1.033788  0  0  0.100417  0.111816  0  1.036614  0
H  H5  1  0.72872886  0.91721779  0.31366465  1  0  0.10618  0  0.970463  0  0  0.114361  0  1.035706  0  0  0.117577  0  1.03418  0  0  0.100563  0.112041  0  1.036934  0
H  H6  1  0.58456774  0.41710788  0.31338663  1  0  0.106595  0  0.969585  0  0  0.114146  0  1.035371  0  0  0.117373  0  1.033797  0  0  0.100434  0.111815  0  1.036622  0
H  H7  1  0.27126258  0.08278047  0.68633403  1  0  0.106238  0  0.970371  0  0  0.114393  0  1.035643  0  0  0.117622  0  1.034102  0  0  0.100563  0.112072  0  1.036872  0
H  H8  1  0.19330854  0.29314019  0.03772927  1  0  0.4044  0  0.914524  0  0  0.374283  0  0.979435  0  0  0.385765  0  0.962501  0  0  0.278306  0.366197  0  0.991331  0
H  H9  1  0.15528519  0.20670557  0.96207673  1  0  0.403854  0  0.915194  0  0  0.373747  0  0.980148  0  0  0.385221  0  0.96323  0  0  0.278282  0.365671  0  0.992028  0
H  H10  1  0.80668770  0.70685962  0.96226979  1  0  0.404393  0  0.91454  0  0  0.374263  0  0.97947  0  0  0.385747  0  0.962533  0  0  0.278293  0.366178  0  0.991365  0
H  H11  1  0.84471566  0.79329347  0.03792285  1  0  0.403852  0  0.9152  0  0  0.373741  0  0.980164  0  0  0.385214  0  0.963246  0  0  0.278277  0.365665  0  0.992043  0
H  H12  1  0.98830356  0.25678354  0.61255577  1  0  0.121155  0  0.94622  0  0  0.129285  0  1.010748  0  0  0.132643  0  1.008606  0  0  0.099478  0.126878  0  1.012326  0
H  H13  1  0.37632227  0.24291652  0.38737524  1  0  0.121471  0  0.946415  0  0  0.130018  0  1.010433  0  0  0.133383  0  1.008234  0  0  0.099309  0.1276  0  1.012043  0
H  H14  1  0.01169507  0.74321706  0.38744507  1  0  0.121132  0  0.946231  0  0  0.129288  0  1.010747  0  0  0.132647  0  1.008603  0  0  0.09947  0.126882  0  1.012325  0
H  H15  1  0.62368534  0.75707941  0.61262455  1  0  0.12144  0  0.946417  0  0  0.129989  0  1.010444  0  0  0.133354  0  1.008245  0  0  0.099291  0.127574  0  1.012057  0
H  H16  1  0.59969869  0.53709427  0.56536110  1  0  0.097595  0  0.980062  0  0  0.102878  0  1.053406  0  0  0.106173  0  1.050765  0  0  0.089498  0.100484  0  1.055361  0
H  H17  1  0.03520491  0.96293244  0.43481379  1  0  0.098507  0  0.980332  0  0  0.10383  0  1.053583  0  0  0.107127  0  1.050916  0  0  0.089672  0.101433  0  1.05555  0
H  H18  1  0.40029987  0.46290555  0.43464015  1  0  0.097598  0  0.980129  0  0  0.102899  0  1.053439  0  0  0.106194  0  1.0508  0  0  0.089514  0.100505  0  1.055393  0
H  H19  1  0.96479108  0.03706427  0.56518477  1  0  0.098479  0  0.980325  0  0  0.103788  0  1.053606  0  0  0.107085  0  1.050943  0  0  0.089675  0.101391  0  1.055572  0
H  H20  1  0.12565201  0.56097412  0.76300990  1  0  0.074259  0  0.967504  0  0  0.082952  0  1.039833  0  0  0.083089  0  1.040629  0  0  0.099457  0.082874  0  1.039404  0
H  H21  1  0.36291927  0.93907465  0.23701823  1  0  0.075081  0  0.967901  0  0  0.08376  0  1.040214  0  0  0.083849  0  1.041018  0  0  0.100044  0.083706  0  1.03977  0
H  H22  1  0.87435130  0.43902647  0.23698948  1  0  0.07424  0  0.967512  0  0  0.082944  0  1.039834  0  0  0.08308  0  1.04063  0  0  0.099461  0.082865  0  1.039405  0
H  H23  1  0.63707704  0.06092594  0.76297990  1  0  0.075037  0  0.967959  0  0  0.083713  0  1.04027  0  0  0.083799  0  1.041076  0  0  0.100016  0.083657  0  1.039826  0
H  H24  1  0.47708601  0.62522605  0.81281963  1  0  0.088365  0  0.938744  0  0  0.09686  0  1.007763  0  0  0.098934  0  1.005657  0  0  0.110187  0.095364  0  1.009418  0
H  H25  1  0.66496699  0.87470220  0.18734963  1  0  0.088339  0  0.938762  0  0  0.096432  0  1.008262  0  0  0.098544  0  1.006122  0  0  0.110047  0.094895  0  1.009942  0
H  H26  1  0.52291737  0.37477532  0.18717934  1  0  0.088381  0  0.938696  0  0  0.096883  0  1.007709  0  0  0.098957  0  1.005603  0  0  0.110203  0.095388  0  1.009359  0
H  H27  1  0.33503158  0.12529762  0.81265002  1  0  0.088321  0  0.938836  0  0  0.096417  0  1.008322  0  0  0.098529  0  1.006182  0  0  0.110042  0.09488  0  1.01  0
C  C28  1  0.58592190  0.44483409  0.71965963  1  0  0.216269  0  3.787158  0  0  0.199102  0  4.049605  0  0  0.209734  0  4.06561  0  0  0.079312  0.191744  0  4.038828  0
C  C29  1  0.86647784  0.05505417  0.28045055  1  0  0.212206  0  3.789213  0  0  0.195326  0  4.051445  0  0  0.205809  0  4.067548  0  0  0.077908  0.188103  0  4.040584  0
C  C30  1  0.41408140  0.55516651  0.28034133  1  0  0.216214  0  3.787156  0  0  0.199054  0  4.049611  0  0  0.209682  0  4.065621  0  0  0.079297  0.191697  0  4.038833  0
C  C31  1  0.13352289  0.94494331  0.71954826  1  0  0.212165  0  3.789227  0  0  0.195252  0  4.051475  0  0  0.205733  0  4.06758  0  0  0.07783  0.18803  0  4.040612  0
C  C32  1  0.75070847  0.35301140  0.69705222  1  0  0.050173  0  3.755678  0  0  0.060193  0  4.024168  0  0  0.060333  0  4.043506  0  0  0.002368  0.059839  0  4.011317  0
C  C33  1  0.05386749  0.14679818  0.30300344  1  0  0.051345  0  3.753209  0  0  0.061285  0  4.021744  0  0  0.061389  0  4.041188  0  0  0.002303  0.060959  0  4.008805  0
C  C34  1  0.24929723  0.64698998  0.30294946  1  0  0.050314  0  3.75555  0  0  0.060322  0  4.024078  0  0  0.060465  0  4.043416  0  0  0.002434  0.059969  0  4.011226  0
C  C35  1  0.94613796  0.85320008  0.69699668  1  0  0.05139  0  3.753289  0  0  0.061373  0  4.021791  0  0  0.061477  0  4.041233  0  0  0.002344  0.061048  0  4.008852  0
C  C36  1  0.85969821  0.32761013  0.62864831  1  0  -0.177951  0  3.769232  0  0  -0.209706  0  4.021749  0  0  -0.211053  0  4.041566  0  0  -0.107352  -0.208615  0  4.008436  0
C  C37  1  0.23169242  0.17215002  0.37135280  1  0  -0.179387  0  3.768053  0  0  -0.212105  0  4.020685  0  0  -0.213418  0  4.040494  0  0  -0.107561  -0.21103  0  4.007372  0
C  C38  1  0.14030276  0.67239047  0.37135259  1  0  -0.178024  0  3.769279  0  0  -0.209828  0  4.021843  0  0  -0.211176  0  4.041659  0  0  -0.107425  -0.208739  0  4.008532  0
C  C39  1  0.76831519  0.82784591  0.62864646  1  0  -0.179364  0  3.768139  0  0  -0.212093  0  4.020762  0  0  -0.213403  0  4.04057  0  0  -0.107522  -0.211023  0  4.007455  0
C  C40  1  0.80217931  0.39388839  0.58124548  1  0  0.127884  0  3.826682  0  0  0.138239  0  4.098236  0  0  0.13978  0  4.120164  0  0  -0.001847  0.136906  0  4.083525  0
C  C41  1  0.22188315  0.10592879  0.41879812  1  0  0.129027  0  3.826211  0  0  0.140702  0  4.096053  0  0  0.142257  0  4.117941  0  0  -0.001464  0.139353  0  4.081375  0
C  C42  1  0.19781925  0.60611143  0.41875523  1  0  0.127921  0  3.826757  0  0  0.138293  0  4.098301  0  0  0.139835  0  4.120227  0  0  -0.001805  0.136959  0  4.083593  0
C  C43  1  0.77811973  0.89406637  0.58120089  1  0  0.129002  0  3.826261  0  0  0.140659  0  4.09612  0  0  0.14221  0  4.118015  0  0  -0.001493  0.139311  0  4.081443  0
C  C44  1  0.64392060  0.48553142  0.60239374  1  0  -0.114604  0  3.787263  0  0  -0.1426  0  4.04667  0  0  -0.142607  0  4.065779  0  0  -0.106456  -0.142408  0  4.033742  0
C  C45  1  0.04228217  0.01440556  0.39772604  1  0  -0.118321  0  3.787835  0  0  -0.146853  0  4.047365  0  0  -0.146907  0  4.066559  0  0  -0.107547  -0.146618  0  4.034372  0
C  C46  1  0.35607802  0.51446917  0.39760762  1  0  -0.114598  0  3.787323  0  0  -0.142593  0  4.04672  0  0  -0.1426  0  4.065829  0  0  -0.10646  -0.142401  0  4.03379  0
C  C47  1  0.95771849  0.98559116  0.60227316  1  0  -0.118287  0  3.787787  0  0  -0.146806  0  4.047317  0  0  -0.146859  0  4.066518  0  0  -0.107558  -0.14657  0  4.034321  0
C  C48  1  0.53826529  0.51080886  0.67120534  1  0  -0.172  0  3.758766  0  0  -0.190748  0  4.01722  0  0  -0.195808  0  4.037317  0  0  -0.109307  -0.187376  0  4.003777  0
C  C49  1  0.86729720  0.98917477  0.32896797  1  0  -0.168592  0  3.758458  0  0  -0.188075  0  4.016721  0  0  -0.193139  0  4.036851  0  0  -0.108805  -0.184718  0  4.00326  0
C  C50  1  0.46173568  0.48919173  0.32879556  1  0  -0.172  0  3.758803  0  0  -0.190743  0  4.017243  0  0  -0.195806  0  4.037344  0  0  -0.109326  -0.187368  0  4.003794  0
C  C51  1  0.13269891  0.01082350  0.67103083  1  0  -0.168623  0  3.758371  0  0  -0.188083  0  4.016629  0  0  -0.193157  0  4.03675  0  0  -0.108764  -0.184723  0  4.003162  0
C  C52  1  0.31600610  0.55836141  0.80656285  1  0  -0.073819  0  3.609625  0  0  -0.131264  0  3.872004  0  0  -0.127067  0  3.871816  0  0  -0.072682  -0.134381  0  3.872361  0
C  C53  1  0.50992508  0.94158880  0.19350683  1  0  -0.073304  0  3.609039  0  0  -0.130715  0  3.872163  0  0  -0.126534  0  3.871815  0  0  -0.072549  -0.133733  0  3.872537  0
C  C54  1  0.68399727  0.44163996  0.19343718  1  0  -0.073717  0  3.609579  0  0  -0.131188  0  3.871969  0  0  -0.12699  0  3.871781  0  0  -0.07269  -0.134306  0  3.872324  0
C  C55  1  0.49007357  0.05841179  0.80649189  1  0  -0.073274  0  3.6091  0  0  -0.130686  0  3.872199  0  0  -0.126505  0  3.87185  0  0  -0.072527  -0.133705  0  3.872571  0
C  C56  1  0.16988198  0.57001935  0.87785365  1  0  0.706483  0  3.899306  0  0  0.659886  0  4.202424  0  0  0.692993  0  4.192599  0  0  0.195096  0.637388  0  4.208391  0
C  C57  1  0.29289538  0.92997382  0.12215551  1  0  0.705465  0  3.899667  0  0  0.658359  0  4.203562  0  0  0.691411  0  4.193788  0  0  0.194398  0.635874  0  4.209504  0
C  C58  1  0.83011451  0.42998357  0.12214592  1  0  0.706314  0  3.899462  0  0  0.659741  0  4.202549  0  0  0.692849  0  4.192725  0  0  0.19502  0.637241  0  4.208516  0
C  C59  1  0.70710800  0.07002755  0.87784293  1  0  0.70536  0  3.899754  0  0  0.658271  0  4.203614  0  0  0.691323  0  4.19384  0  0  0.194373  0.635788  0  4.209552  0
Cl  Cl60  1  0.81781045  0.26897958  0.75470867  1  0  -0.086561  0  1.423197  0  0  -0.07468  0  1.675078  0  0  -0.075101  0  1.667265  0  0  0.018129  -0.074409  0  1.680684  0
Cl  Cl61  1  0.06295754  0.23076484  0.24531533  1  0  -0.086567  0  1.42217  0  0  -0.074769  0  1.673947  0  0  -0.075171  0  1.666173  0  0  0.018118  -0.074497  0  1.679501  0
Cl  Cl62  1  0.18219525  0.73102179  0.24529301  1  0  -0.086593  0  1.423156  0  0  -0.074707  0  1.675048  0  0  -0.075128  0  1.667233  0  0  0.018123  -0.074437  0  1.680655  0
Cl  Cl63  1  0.93704348  0.76923653  0.75468622  1  0  -0.086583  0  1.422226  0  0  -0.074807  0  1.673988  0  0  -0.075209  0  1.666214  0  0  0.018099  -0.074533  0  1.679544  0
Cl  Cl64  1  0.92406321  0.36015493  0.49479061  1  0  -0.094242  0  1.419882  0  0  -0.074775  0  1.671473  0  0  -0.079415  0  1.668714  0  0  0.008674  -0.071317  0  1.673456  0
Cl  Cl65  1  0.43020302  0.13971736  0.50523179  1  0  -0.094068  0  1.421531  0  0  -0.07488  0  1.672798  0  0  -0.07952  0  1.670078  0  0  0.008841  -0.071443  0  1.674793  0
Cl  Cl66  1  0.07593062  0.63984411  0.50520932  1  0  -0.094269  0  1.419913  0  0  -0.074804  0  1.671506  0  0  -0.079446  0  1.66875  0  0  0.008654  -0.071345  0  1.673491  0
Cl  Cl67  1  0.56979295  0.86027935  0.49476836  1  0  -0.094028  0  1.421486  0  0  -0.074845  0  1.672783  0  0  -0.079485  0  1.670066  0  0  0.00886  -0.071405  0  1.674775  0
O  O68  1  0.31236892  0.24992419  0.99986785  1  0  -0.942097  0  1.79094  0  0  -0.893741  0  1.960354  0  0  -0.913814  0  1.929138  0  0  -0.740933  -0.879422  0  1.982048  0
O  O69  1  0.68762724  0.75007485  0.00013267  1  0  -0.942091  0  1.790944  0  0  -0.893727  0  1.960392  0  0  -0.913799  0  1.929171  0  0  -0.740932  -0.879412  0  1.982091  0
O  O70  1  0.48344836  0.46379593  0.78710830  1  0  -0.271966  0  2.375905  0  0  -0.2051  0  2.615971  0  0  -0.222636  0  2.619736  0  0  -0.191454  -0.192688  0  2.613048  0
O  O71  1  0.69664444  0.03608542  0.21299103  1  0  -0.270312  0  2.377529  0  0  -0.203115  0  2.617117  0  0  -0.220388  0  2.620756  0  0  -0.190527  -0.190957  0  2.614313  0
O  O72  1  0.51655266  0.53620544  0.21289325  1  0  -0.272029  0  2.375891  0  0  -0.205154  0  2.615946  0  0  -0.222688  0  2.619711  0  0  -0.191448  -0.192739  0  2.613018  0
O  O73  1  0.30335647  0.96391439  0.78700869  1  0  -0.270293  0  2.377468  0  0  -0.203078  0  2.617045  0  0  -0.220349  0  2.620681  0  0  -0.190506  -0.19092  0  2.614243  0
O  O74  1  0.20965173  0.50355729  0.91599345  1  0  -0.753257  0  1.977475  0  0  -0.705003  0  2.227245  0  0  -0.728557  0  2.21551  0  0  -0.525884  -0.688412  0  2.234803  0
O  O75  1  0.29492128  0.99637835  0.08399072  1  0  -0.752236  0  1.977246  0  0  -0.703924  0  2.227252  0  0  -0.727395  0  2.215525  0  0  -0.525693  -0.687353  0  2.234795  0
O  O76  1  0.79035428  0.49644796  0.08400833  1  0  -0.753141  0  1.977481  0  0  -0.704893  0  2.227221  0  0  -0.728449  0  2.215488  0  0  -0.525797  -0.688309  0  2.234782  0
O  O77  1  0.70507988  0.00362457  0.91600950  1  0  -0.752162  0  1.977267  0  0  -0.70385  0  2.227274  0  0  -0.727323  0  2.215548  0  0  -0.525652  -0.687282  0  2.234817  0
O  O78  1  0.01319829  0.65245956  0.89195409  1  0  -0.70285  0  1.96267  0  0  -0.644368  0  2.194644  0  0  -0.67153  0  2.184936  0  0  -0.39096  -0.625185  0  2.200734  0
O  O79  1  0.12189986  0.84766433  0.10804880  1  0  -0.703106  0  1.964281  0  0  -0.644262  0  2.196308  0  0  -0.671441  0  2.186636  0  0  -0.390455  -0.625073  0  2.202381  0
O  O80  1  0.98679820  0.34754336  0.10804495  1  0  -0.702825  0  1.962705  0  0  -0.644364  0  2.194711  0  0  -0.671525  0  2.185005  0  0  -0.390996  -0.625182  0  2.200798  0
O  O81  1  0.87810575  0.15233548  0.89194839  1  0  -0.703075  0  1.964349  0  0  -0.644255  0  2.196369  0  0  -0.671431  0  2.186692  0  0  -0.390468  -0.625068  0  2.202439  0
