# generated using pymatgen
data_AlH7C17Br3O5
_symmetry_space_group_name_H-M   'P 1'
_cell_length_a   6.65016486
_cell_length_b   22.51875093
_cell_length_c   26.81317325
_cell_angle_alpha   101.99783286
_cell_angle_beta   89.99932159
_cell_angle_gamma   89.99830038
_symmetry_Int_Tables_number   1
_chemical_formula_structural   AlH7C17Br3O5
_chemical_formula_sum   'Al4 H28 C68 Br12 O20'
_cell_volume   3927.65025693
_cell_formula_units_Z   4
loop_
 _symmetry_equiv_pos_site_id
 _symmetry_equiv_pos_as_xyz
  1  'x, y, z'
loop_
 _atom_site_type_symbol
 _atom_site_label
 _atom_site_symmetry_multiplicity
 _atom_site_fract_x
 _atom_site_fract_y
 _atom_site_fract_z
 _atom_site_occupancy
 _atom_site_pbe_bader_charge
 _atom_site_pbe_bader_spin_density
 _atom_site_pbe_cm5_charge
 _atom_site_pbe_ddec_charge
 _atom_site_pbe_ddec_spin_density
 _atom_site_pbe_ddec_sum_bond_order
 _atom_site_pbe_magmom
Al  Al0  1  0.16246460  0.24971260  0.75203166  1  2.502518  0  0.401887  1.644474  0  2.582631  0
Al  Al1  1  0.83752730  0.75028724  0.24796961  1  2.502536  0  0.401886  1.6445  0  2.582788  0
Al  Al2  1  0.66246882  0.25028983  0.74797053  1  2.502524  0  0.401845  1.644419  0  2.582871  0
Al  Al3  1  0.33753211  0.74971330  0.25203153  1  2.502577  0  0.401874  1.644551  0  2.582598  0
H  H4  1  0.74697521  0.63229306  0.33766576  1  0.090428  0  0.11168  0.118958  0  0.994824  0
H  H5  1  0.25303022  0.36771292  0.66233329  1  0.09039  0  0.111677  0.118877  0  0.994879  0
H  H6  1  0.24694131  0.86771358  0.16233322  1  0.090396  0  0.111675  0.118923  0  0.994945  0
H  H7  1  0.75302954  0.13228875  0.83765971  1  0.090324  0  0.111622  0.118844  0  0.995  0
H  H8  1  0.70956701  0.57086985  0.40433332  1  0.051899  0  0.095298  0.100041  0  1.018881  0
H  H9  1  0.29043090  0.42913461  0.59566495  1  0.0518  0  0.095316  0.100041  0  1.0189  0
H  H10  1  0.20953633  0.92913424  0.09566086  1  0.051614  0  0.095271  0.099955  0  1.018977  0
H  H11  1  0.79045707  0.07087049  0.90433095  1  0.051653  0  0.095305  0.099966  0  1.019046  0
H  H12  1  0.34111404  0.59512040  0.43939107  1  0.069538  0  0.08652  0.084385  0  1.065398  0
H  H13  1  0.65889140  0.40487899  0.56061019  1  0.069356  0  0.086569  0.084446  0  1.065369  0
H  H14  1  0.84109557  0.90487778  0.06060585  1  0.069647  0  0.08656  0.084424  0  1.065362  0
H  H15  1  0.15891889  0.09512161  0.93939351  1  0.069114  0  0.086564  0.084425  0  1.065336  0
H  H16  1  0.37716601  0.65465191  0.37109074  1  0.093827  0  0.109038  0.113721  0  0.997219  0
H  H17  1  0.62284544  0.34534980  0.62890903  1  0.093655  0  0.109091  0.113806  0  0.997212  0
H  H18  1  0.87715008  0.84535106  0.12890720  1  0.093496  0  0.109081  0.113811  0  0.997397  0
H  H19  1  0.12284784  0.15464548  0.87109137  1  0.093619  0  0.109088  0.113792  0  0.99734  0
H  H20  1  0.25837711  0.48555779  0.43241183  1  0.074276  0  0.106574  0.121907  0  0.995174  0
H  H21  1  0.74162833  0.51444400  0.56758642  1  0.074354  0  0.106604  0.121933  0  0.995139  0
H  H22  1  0.75835942  0.01443845  0.06758811  1  0.074338  0  0.106617  0.12199  0  0.995098  0
H  H23  1  0.24165354  0.98556432  0.93240673  1  0.07452  0  0.106621  0.12191  0  0.995082  0
H  H24  1  0.22211775  0.57503770  0.97355924  1  0.138874  0  0.11413  0.136641  0  0.964424  0
H  H25  1  0.77787566  0.42496071  0.02644163  1  0.138751  0  0.114163  0.136711  0  0.964396  0
H  H26  1  0.72213201  0.92495801  0.52643614  1  0.138724  0  0.11414  0.136641  0  0.964452  0
H  H27  1  0.27787644  0.07504085  0.47357044  1  0.138605  0  0.114102  0.136638  0  0.964533  0
H  H28  1  0.41499392  0.32614128  0.77968939  1  0.64859  0  0.35722  0.436206  0  0.846546  0
H  H29  1  0.58501001  0.67386025  0.22031151  1  0.648628  0  0.357196  0.436192  0  0.846575  0
H  H30  1  0.91500668  0.17386297  0.72031161  1  0.648671  0  0.357095  0.435959  0  0.846791  0
H  H31  1  0.08498222  0.82613864  0.27968777  1  0.648578  0  0.357202  0.436219  0  0.846527  0
C  C32  1  0.40811509  0.17421129  0.67115189  1  1.68864  0  0.278971  0.716866  0  4.160732  0
C  C33  1  0.59189035  0.82578606  0.32885202  1  1.688973  0  0.27893  0.716809  0  4.160851  0
C  C34  1  0.90809337  0.32579099  0.82885179  1  1.688937  0  0.278911  0.716829  0  4.160962  0
C  C35  1  0.09190154  0.67421321  0.17114914  1  1.689005  0  0.278943  0.716902  0  4.160673  0
C  C36  1  0.41819850  0.18239871  0.80940604  1  1.555574  0  0.265378  0.638638  0  4.110171  0
C  C37  1  0.58180393  0.81760923  0.19059759  1  1.555675  0  0.265445  0.638788  0  4.110476  0
C  C38  1  0.91819442  0.31760800  0.69059802  1  1.555723  0  0.265483  0.638848  0  4.110328  0
C  C39  1  0.08180651  0.68239263  0.30940098  1  1.555807  0  0.265402  0.638576  0  4.110448  0
C  C40  1  0.87585462  0.62368910  0.36025936  1  -0.068976  0  -0.079149  -0.078409  0  3.96552  0
C  C41  1  0.12415834  0.37631216  0.63973850  1  -0.06822  0  -0.079105  -0.078241  0  3.965524  0
C  C42  1  0.37581793  0.87631397  0.13973706  1  -0.068306  0  -0.07906  -0.078395  0  3.965331  0
C  C43  1  0.62416195  0.12368319  0.86025657  1  -0.06864  0  -0.079063  -0.07839  0  3.965672  0
C  C44  1  0.85558219  0.58989107  0.39781940  1  0.011271  0  -0.094845  -0.138221  0  3.999005  0
C  C45  1  0.14442926  0.41011144  0.60218379  1  0.010887  0  -0.094914  -0.138188  0  3.999177  0
C  C46  1  0.35555903  0.91011079  0.10217863  1  0.011124  0  -0.09483  -0.137983  0  3.998725  0
C  C47  1  0.64443889  0.08988637  0.89781501  1  0.010947  0  -0.094756  -0.137836  0  3.999228  0
C  C48  1  0.02295307  0.57881236  0.42660756  1  -0.001269  0  -0.007485  0.080985  0  3.993465  0
C  C49  1  0.97704484  0.42119050  0.57339526  1  -0.001192  0  -0.007515  0.080825  0  3.993518  0
C  C50  1  0.52295050  0.92119198  0.07338980  1  -0.000537  0  -0.007554  0.080817  0  3.993181  0
C  C51  1  0.47706396  0.07881818  0.92660625  1  -0.001379  0  -0.007615  0.080823  0  3.993769  0
C  C52  1  0.21097157  0.60251596  0.41665093  1  -0.084533  0  -0.094092  -0.132823  0  3.968765  0
C  C53  1  0.78903838  0.39748690  0.58334809  1  -0.083755  0  -0.094104  -0.13277  0  3.968588  0
C  C54  1  0.71094674  0.89748509  0.08334550  1  -0.084668  0  -0.0941  -0.132688  0  3.968448  0
C  C55  1  0.28904666  0.10251030  0.91664621  1  -0.083234  0  -0.094074  -0.132688  0  3.968899  0
C  C56  1  0.23176582  0.63602542  0.37876953  1  -0.015074  0  -0.079381  -0.078674  0  3.963395  0
C  C57  1  0.76825015  0.36397709  0.62123177  1  -0.015451  0  -0.079397  -0.078694  0  3.963303  0
C  C58  1  0.73174996  0.86397354  0.12123020  1  -0.015306  0  -0.079359  -0.078823  0  3.963296  0
C  C59  1  0.26824344  0.13602148  0.87876760  1  -0.01549  0  -0.079393  -0.07879  0  3.963628  0
C  C60  1  0.06424831  0.64673948  0.35023551  1  0.014512  0  -0.014861  -0.046018  0  3.975391  0
C  C61  1  0.93575262  0.35326240  0.64976312  1  0.014102  0  -0.014931  -0.046281  0  3.97543  0
C  C62  1  0.56424119  0.85326559  0.14976470  1  0.01421  0  -0.015047  -0.04624  0  3.975283  0
C  C63  1  0.43576124  0.14673398  0.85023352  1  0.014804  0  -0.015013  -0.046251  0  3.975389  0
C  C64  1  0.14585105  0.49270587  0.46259347  1  0.017614  0  -0.093104  -0.172076  0  3.977607  0
C  C65  1  0.85415289  0.50729414  0.53740476  1  0.017282  0  -0.093119  -0.172065  0  3.977788  0
C  C66  1  0.64584745  0.00729511  0.03740515  1  0.018057  0  -0.093169  -0.172167  0  3.977786  0
C  C67  1  0.35417002  0.99271159  0.96259124  1  0.017324  0  -0.093183  -0.17203  0  3.97768  0
C  C68  1  0.13968838  0.45357340  0.49647615  1  -0.097577  0  -0.01581  0.065988  0  3.943148  0
C  C69  1  0.86030352  0.54642662  0.50352208  1  -0.097692  0  -0.015803  0.065897  0  3.943248  0
C  C70  1  0.63970817  0.04642364  0.00352055  1  -0.097355  0  -0.015717  0.066077  0  3.943152  0
C  C71  1  0.36031532  0.95357584  0.99647158  1  -0.097863  0  -0.0158  0.066006  0  3.943161  0
C  C72  1  0.99342994  0.45979413  0.53514741  1  0.024524  0  -0.006991  0.039452  0  3.980645  0
C  C73  1  0.00657850  0.54021007  0.46485542  1  0.024594  0  -0.006948  0.039526  0  3.980727  0
C  C74  1  0.49344647  0.04020904  0.96485016  1  0.024315  0  -0.007043  0.039258  0  3.980728  0
C  C75  1  0.50655897  0.95979623  0.03514203  1  0.024115  0  -0.006879  0.039467  0  3.980712  0
C  C76  1  0.90462214  0.52610862  0.96544887  1  -0.000796  0  -0.004842  0.064259  0  3.630501  0
C  C77  1  0.09536676  0.47388516  0.03455310  1  -0.00057  0  -0.004883  0.064323  0  3.630405  0
C  C78  1  0.40464563  0.97388687  0.53455478  1  -0.000986  0  -0.004855  0.064305  0  3.630275  0
C  C79  1  0.59537334  0.02610317  0.46544639  1  -0.000535  0  -0.004837  0.064264  0  3.630575  0
C  C80  1  0.12340423  0.54163141  0.98515579  1  -0.028968  0  -0.071787  -0.128629  0  3.626667  0
C  C81  1  0.87659820  0.45836629  0.01484964  1  -0.028048  0  -0.071863  -0.128771  0  3.626578  0
C  C82  1  0.62340230  0.95836390  0.51484729  1  -0.02871  0  -0.071898  -0.128728  0  3.626698  0
C  C83  1  0.37659863  0.04163202  0.48515622  1  -0.028796  0  -0.071753  -0.128592  0  3.626676  0
C  C84  1  0.09597534  0.62914374  0.12428528  1  0.135352  0  -0.029594  -0.171885  0  3.926594  0
C  C85  1  0.90400454  0.37085119  0.87571593  1  0.134868  0  -0.029659  -0.172019  0  3.926471  0
C  C86  1  0.59596973  0.87084791  0.37571388  1  0.134703  0  -0.029547  -0.171947  0  3.926777  0
C  C87  1  0.40404022  0.12914213  0.62428919  1  0.135397  0  -0.029595  -0.17201  0  3.926539  0
C  C88  1  0.83048162  0.52741734  0.02129299  1  0.020594  0  -0.008009  0.05567  0  3.636218  0
C  C89  1  0.16953283  0.47258775  0.97871176  1  0.020627  0  -0.008092  0.055549  0  3.636282  0
C  C90  1  0.33045783  0.97259021  0.47871701  1  0.020654  0  -0.008072  0.055379  0  3.63643  0
C  C91  1  0.66952204  0.02741577  0.52129155  1  0.02063  0  -0.008058  0.055567  0  3.636148  0
C  C92  1  0.05100041  0.54455792  0.04181820  1  0.139485  0  0.002521  0.084359  0  3.806685  0
C  C93  1  0.94899299  0.45544263  0.95818231  1  0.138852  0  0.002424  0.084333  0  3.806585  0
C  C94  1  0.55100704  0.95544275  0.45818165  1  0.139456  0  0.00249  0.084469  0  3.806771  0
C  C95  1  0.44901494  0.04456011  0.54182117  1  0.139934  0  0.00249  0.084494  0  3.806417  0
C  C96  1  0.09022936  0.59008906  0.08540541  1  -0.398095  0  -0.035563  -0.027396  0  4.090596  0
C  C97  1  0.90977006  0.40991309  0.91460007  1  -0.397818  0  -0.035401  -0.027195  0  4.090409  0
C  C98  1  0.59021374  0.90990996  0.41459652  1  -0.397467  0  -0.035535  -0.027372  0  4.090661  0
C  C99  1  0.40977515  0.09008783  0.58540549  1  -0.398256  0  -0.035567  -0.027354  0  4.090524  0
Br  Br100  1  0.32957726  0.38845260  0.48510404  1  -0.078406  0  0.031554  -0.066929  0  1.405054  0
Br  Br101  1  0.67041164  0.61154813  0.51489533  1  -0.078417  0  0.031528  -0.066921  0  1.40503  0
Br  Br102  1  0.82959634  0.11154397  0.01489632  1  -0.078722  0  0.0315  -0.066979  0  1.40494  0
Br  Br103  1  0.17042263  0.88845470  0.98509809  1  -0.078282  0  0.031547  -0.06691  0  1.404792  0
Br  Br104  1  0.77206086  0.56322033  0.91713694  1  -0.043835  0  0.007538  -0.073114  0  1.321402  0
Br  Br105  1  0.22794458  0.43678084  0.08286434  1  -0.043904  0  0.007558  -0.07312  0  1.321502  0
Br  Br106  1  0.27205409  0.93678776  0.58286974  1  -0.043946  0  0.007499  -0.073155  0  1.321325  0
Br  Br107  1  0.72793781  0.06320931  0.41713302  1  -0.043694  0  0.007561  -0.073084  0  1.321458  0
Br  Br108  1  0.39954186  0.43145185  0.94668072  1  -0.034231  0  0.038969  -0.045489  0  1.488024  0
Br  Br109  1  0.60046208  0.56854807  0.05332473  1  -0.034339  0  0.038955  -0.045474  0  1.487909  0
Br  Br110  1  0.89952267  0.06854330  0.55332444  1  -0.034273  0  0.038999  -0.045436  0  1.488067  0
Br  Br111  1  0.10047074  0.93146009  0.44668447  1  -0.034071  0  0.039012  -0.045392  0  1.488229  0
O  O112  1  0.58308747  0.19537473  0.78999331  1  -1.258792  0  -0.238573  -0.601512  0  2.37732  0
O  O113  1  0.41691796  0.80462573  0.21000302  1  -1.258684  0  -0.238537  -0.601565  0  2.377531  0
O  O114  1  0.08308146  0.30462586  0.71000353  1  -1.258618  0  -0.238558  -0.601584  0  2.377545  0
O  O115  1  0.91691646  0.69537594  0.28999471  1  -1.258798  0  -0.238621  -0.601591  0  2.37755  0
O  O116  1  0.23988943  0.19066573  0.69202633  1  -1.24216  0  -0.224439  -0.58007  0  2.291924  0
O  O117  1  0.76010999  0.80933188  0.30797681  1  -1.242123  0  -0.224384  -0.579992  0  2.291924  0
O  O118  1  0.73986422  0.30933242  0.80797392  1  -1.242299  0  -0.224422  -0.580093  0  2.29195  0
O  O119  1  0.26012919  0.69066501  0.19202466  1  -1.242268  0  -0.224463  -0.580176  0  2.291937  0
O  O120  1  0.24290472  0.19666144  0.79646429  1  -1.243265  0  -0.238893  -0.596216  0  2.326431  0
O  O121  1  0.75708117  0.80334000  0.20353814  1  -1.243242  0  -0.239007  -0.596296  0  2.326425  0
O  O122  1  0.74291043  0.30333401  0.70353592  1  -1.243267  0  -0.239032  -0.596371  0  2.32645  0
O  O123  1  0.25709952  0.69666520  0.29646267  1  -1.243337  0  -0.238912  -0.596217  0  2.326484  0
O  O124  1  0.08120235  0.30717054  0.81247900  1  -1.233231  0  -0.222163  -0.573035  0  2.284443  0
O  O125  1  0.91880459  0.69283517  0.18752271  1  -1.233297  0  -0.222226  -0.57309  0  2.284367  0
O  O126  1  0.58121630  0.19283069  0.68752432  1  -1.233399  0  -0.222232  -0.57303  0  2.284309  0
O  O127  1  0.41877861  0.80716977  0.31247391  1  -1.233497  0  -0.222291  -0.573119  0  2.284329  0
O  O128  1  0.41199489  0.28713390  0.75611062  1  -1.448556  0  -0.447457  -0.99183  0  2.195275  0
O  O129  1  0.58799250  0.71286888  0.24388802  1  -1.44859  0  -0.447445  -0.991827  0  2.195308  0
O  O130  1  0.91201488  0.21286959  0.74389077  1  -1.448716  0  -0.447381  -0.99152  0  2.195385  0
O  O131  1  0.08798905  0.78713052  0.25610974  1  -1.448567  0  -0.447469  -0.991873  0  2.195208  0
