# generated using pymatgen
data_ErAg5H16(C2O)16
_symmetry_space_group_name_H-M   'P 1'
_cell_length_a   7.84209291
_cell_length_b   14.83663948
_cell_length_c   14.98916857
_cell_angle_alpha   64.57208568
_cell_angle_beta   81.46683059
_cell_angle_gamma   81.60423407
_symmetry_Int_Tables_number   1
_chemical_formula_structural   ErAg5H16(C2O)16
_chemical_formula_sum   'Er2 Ag10 H32 C64 O32'
_cell_volume   1550.98455610
_cell_formula_units_Z   2
loop_
 _symmetry_equiv_pos_site_id
 _symmetry_equiv_pos_as_xyz
  1  'x, y, z'
loop_
 _atom_site_type_symbol
 _atom_site_label
 _atom_site_symmetry_multiplicity
 _atom_site_fract_x
 _atom_site_fract_y
 _atom_site_fract_z
 _atom_site_occupancy
 _atom_site_hle17_bader_spin_density
 _atom_site_hle17_ddec_charge
 _atom_site_hle17_ddec_spin_density
 _atom_site_hle17_ddec_sum_bond_order
 _atom_site_hle17_magmom
 _atom_site_hse06_10hf_bader_charge
 _atom_site_hse06_10hf_bader_spin_density
 _atom_site_hse06_10hf_ddec_charge
 _atom_site_hse06_10hf_ddec_spin_density
 _atom_site_hse06_10hf_ddec_sum_bond_order
 _atom_site_hse06_10hf_magmom
 _atom_site_hse06_bader_charge
 _atom_site_hse06_bader_spin_density
 _atom_site_hse06_ddec_charge
 _atom_site_hse06_ddec_spin_density
 _atom_site_hse06_ddec_sum_bond_order
 _atom_site_hse06_magmom
 _atom_site_pbe_bader_spin_density
 _atom_site_pbe_cm5_charge
 _atom_site_pbe_ddec_charge
 _atom_site_pbe_ddec_spin_density
 _atom_site_pbe_ddec_sum_bond_order
 _atom_site_pbe_magmom
Er  Er0  1  0.35159702  0.25112112  0.25212371  1  0  2.322991  0  1.664948  0  2.216154  0  2.199915  0  2.113488  0  2.258884  0  2.318559  0  1.936454  0  0  1.499281  2.166165  0  2.141334  0
Er  Er1  1  0.64840339  0.74888103  0.74787998  1  0  2.323003  0  1.664958  0  2.216121  0  2.20001  0  2.113337  0  2.258999  0  2.318552  0  1.936467  0  0  1.499233  2.166257  0  2.141179  0
Ag  Ag2  1  0.12757968  0.09287891  0.49663456  1  0  0.687704  0  1.305879  0  0.703411  0  0.582698  0  1.72138  0  0.728882  0  0.612892  0  1.6717  0  0  0.466764  0.560859  0  1.757693  0
Ag  Ag3  1  0.87242248  0.90712848  0.50336407  1  0  0.687753  0  1.305836  0  0.703377  0  0.582758  0  1.721361  0  0.728828  0  0.612957  0  1.671671  0  0  0.466804  0.560918  0  1.757673  0
Ag  Ag4  1  0.17857007  0.40548731  0.00333157  1  0  0.68359  0  1.308314  0  0.699698  0  0.576808  0  1.72626  0  0.725196  0  0.607535  0  1.676186  0  0  0.46331  0.554719  0  1.762668  0
Ag  Ag5  1  0.82142300  0.59451254  0.99666700  1  0  0.683562  0  1.308336  0  0.699621  0  0.576771  0  1.72629  0  0.725185  0  0.607496  0  1.676214  0  0  0.463282  0.554678  0  1.762695  0
Ag  Ag6  1  0.79946469  0.32935142  0.01915095  1  0  0.686609  0  1.197507  0  0.695749  0  0.573037  0  1.610056  0  0.724335  0  0.609609  0  1.553519  0  0  0.455402  0.546719  0  1.649817  0
Ag  Ag7  1  0.20053974  0.67064994  0.98084609  1  0  0.686597  0  1.197553  0  0.695759  0  0.573028  0  1.610109  0  0.724369  0  0.609603  0  1.553566  0  0  0.455387  0.546708  0  1.649869  0
Ag  Ag8  1  0.29185580  0.82555555  0.51699958  1  0  0.685226  0  1.207118  0  0.699333  0  0.57536  0  1.618673  0  0.726926  0  0.610824  0  1.563075  0  0  0.455481  0.549895  0  1.657774  0
Ag  Ag9  1  0.70815146  0.17444430  0.48299590  1  0  0.685248  0  1.207094  0  0.699308  0  0.575383  0  1.618658  0  0.726935  0  0.610847  0  1.563059  0  0  0.455504  0.549919  0  1.657762  0
Ag  Ag10  1  0.85322818  0.25220889  0.25166854  1  0  0.749038  0  1.251355  0  0.713544  0  0.632919  0  1.677684  0  0.738017  0  0.664763  0  1.625597  0  0  0.478189  0.610326  0  1.717304  0
Ag  Ag11  1  0.14677440  0.74778796  0.74832925  1  0  0.749082  0  1.251422  0  0.713527  0  0.632978  0  1.677711  0  0.737951  0  0.664813  0  1.625628  0  0  0.478207  0.610384  0  1.717328  0
H  H12  1  0.18213942  0.09089844  0.98564734  1  0  0.093733  0  0.953699  0  0.089169  0  0.106838  0  1.01112  0  0.095329  0  0.109431  0  1.010516  0  0  0.104051  0.104997  0  1.011642  0
H  H13  1  0.81785974  0.90909547  0.01436065  1  0  0.093819  0  0.953589  0  0.088992  0  0.106839  0  1.0111  0  0.095157  0  0.109433  0  1.010496  0  0  0.10407  0.105001  0  1.011616  0
H  H14  1  0.13604296  0.91209113  0.03766512  1  0  0.104522  0  0.974201  0  0.119964  0  0.111488  0  1.039509  0  0.126338  0  0.11531  0  1.036814  0  0  0.103114  0.108689  0  1.041552  0
H  H15  1  0.86395221  0.08790354  0.96234485  1  0  0.104444  0  0.974296  0  0.120072  0  0.111491  0  1.039505  0  0.126422  0  0.115317  0  1.036825  0  0  0.103057  0.108687  0  1.041557  0
H  H16  1  0.07446687  0.80225802  0.21806733  1  0  0.086779  0  0.954095  0  0.085702  0  0.100186  0  1.010302  0  0.089001  0  0.10249  0  1.010241  0  0  0.10132  0.098544  0  1.010424  0
H  H17  1  0.92552546  0.19773818  0.78194688  1  0  0.086746  0  0.954255  0  0.085557  0  0.100153  0  1.010461  0  0.089053  0  0.102461  0  1.010392  0  0  0.10131  0.098506  0  1.01058  0
H  H18  1  0.07632772  0.87009356  0.34310031  1  0  0.096916  0  0.980255  0  0.101504  0  0.102645  0  1.052355  0  0.106595  0  0.106895  0  1.048228  0  0  0.098274  0.099522  0  1.055444  0
H  H19  1  0.92367348  0.12991164  0.65690935  1  0  0.096965  0  0.980187  0  0.101465  0  0.102692  0  1.052289  0  0.106681  0  0.106934  0  1.048153  0  0  0.098307  0.099568  0  1.055382  0
H  H20  1  0.88799089  0.40258941  0.51273285  1  0  0.099381  0  0.943876  0  0.089753  0  0.111554  0  1.001353  0  0.09257  0  0.114222  0  1.000663  0  0  0.106055  0.109636  0  1.001922  0
H  H21  1  0.11200355  0.59741794  0.48726305  1  0  0.099328  0  0.943959  0  0.089377  0  0.111503  0  1.001433  0  0.092601  0  0.114167  0  1.000748  0  0  0.106023  0.109584  0  1.002003  0
H  H22  1  0.77345824  0.58186731  0.45919086  1  0  0.09414  0  0.943698  0  0.073072  0  0.105552  0  1.001874  0  0.075605  0  0.108317  0  1.000679  0  0  0.10477  0.103514  0  1.002881  0
H  H23  1  0.22652861  0.41813925  0.54079996  1  0  0.094082  0  0.943647  0  0.073019  0  0.105492  0  1.001857  0  0.076042  0  0.108245  0  1.000659  0  0  0.104724  0.103451  0  1.002864  0
H  H24  1  0.80613195  0.69834198  0.27960487  1  0  0.082105  0  0.985694  0  0.087113  0  0.093806  0  1.047333  0  0.090301  0  0.095982  0  1.047139  0  0  0.098131  0.092257  0  1.047518  0
H  H25  1  0.19385669  0.30166156  0.72038378  1  0  0.082059  0  0.985664  0  0.087174  0  0.093827  0  1.047247  0  0.090319  0  0.096003  0  1.047054  0  0  0.09815  0.092275  0  1.047426  0
H  H26  1  0.93678261  0.63324544  0.15558051  1  0  0.097309  0  0.976655  0  0.128564  0  0.104136  0  1.047074  0  0.134392  0  0.10837  0  1.042938  0  0  0.099102  0.10103  0  1.050142  0
H  H27  1  0.06321938  0.36675515  0.84441438  1  0  0.097442  0  0.976559  0  0.128453  0  0.104271  0  1.04697  0  0.134518  0  0.108508  0  1.042832  0  0  0.099152  0.101164  0  1.050035  0
H  H28  1  0.42450293  0.51127169  0.41626836  1  0  0.097819  0  0.951721  0  0.119988  0  0.108075  0  1.01422  0  0.123796  0  0.111403  0  1.011731  0  0  0.105569  0.10566  0  1.016071  0
H  H29  1  0.57549614  0.48872293  0.58373333  1  0  0.097918  0  0.951684  0  0.119942  0  0.108165  0  1.014172  0  0.123817  0  0.11149  0  1.011686  0  0  0.105631  0.105756  0  1.016016  0
H  H30  1  0.33490866  0.69172124  0.31552590  1  0  0.0909  0  0.951146  0  0.050824  0  0.104017  0  1.008003  0  0.05333  0  0.106736  0  1.007147  0  0  0.103089  0.102037  0  1.008791  0
H  H31  1  0.66509519  0.30827565  0.68447712  1  0  0.090814  0  0.951296  0  0.050764  0  0.104  0  1.008068  0  0.053733  0  0.106718  0  1.007216  0  0  0.103093  0.10202  0  1.008855  0
H  H32  1  0.36818328  0.75867033  0.12986809  1  0  0.095451  0  0.954642  0  0.104672  0  0.106575  0  1.014006  0  0.108907  0  0.109313  0  1.012866  0  0  0.103645  0.104526  0  1.01494  0
H  H33  1  0.63182174  0.24132733  0.87013718  1  0  0.095462  0  0.954593  0  0.10471  0  0.106591  0  1.013976  0  0.108843  0  0.109337  0  1.01283  0  0  0.103638  0.104589  0  1.014861  0
H  H34  1  0.48130477  0.64531708  0.04819881  1  0  0.088964  0  0.993545  0  0.118265  0  0.091625  0  1.076784  0  0.121031  0  0.097051  0  1.069592  0  0  0.092315  0.08773  0  1.081847  0
H  H35  1  0.51869589  0.35468357  0.95180417  1  0  0.089014  0  0.993376  0  0.118213  0  0.091633  0  1.076683  0  0.120987  0  0.097069  0  1.069467  0  0  0.092299  0.087731  0  1.081758  0
H  H36  1  0.63682990  0.00107820  0.08456705  1  0  0.095776  0  0.960351  0  0.066392  0  0.106044  0  1.022859  0  0.068852  0  0.108802  0  1.021396  0  0  0.105666  0.104063  0  1.023899  0
H  H37  1  0.36317828  0.99892392  0.91543005  1  0  0.095755  0  0.960316  0  0.066311  0  0.106006  0  1.022856  0  0.069271  0  0.108765  0  1.021392  0  0  0.105667  0.104028  0  1.023893  0
H  H38  1  0.58909949  0.82015810  0.18262193  1  0  0.087081  0  0.962897  0  0.060986  0  0.099183  0  1.021729  0  0.063209  0  0.101883  0  1.021028  0  0  0.100332  0.097238  0  1.022347  0
H  H39  1  0.41090483  0.17984399  0.81737147  1  0  0.087076  0  0.962957  0  0.061102  0  0.099199  0  1.021769  0  0.063194  0  0.1019  0  1.021068  0  0  0.100347  0.097255  0  1.022391  0
H  H40  1  0.57002527  0.74791234  0.36865357  1  0  0.098526  0  0.951303  0  0.109442  0  0.109304  0  1.011593  0  0.114525  0  0.112354  0  1.009778  0  0  0.105219  0.107111  0  1.012919  0
H  H41  1  0.42996960  0.25208447  0.63133950  1  0  0.098532  0  0.951356  0  0.109461  0  0.109403  0  1.011537  0  0.114595  0  0.112439  0  1.009743  0  0  0.105226  0.107209  0  1.012862  0
H  H42  1  0.58838374  0.85681352  0.45321480  1  0  0.089408  0  0.997635  0  0.063263  0  0.091834  0  1.081218  0  0.067038  0  0.097209  0  1.074082  0  0  0.092607  0.087885  0  1.086392  0
H  H43  1  0.41161381  0.14318258  0.54678371  1  0  0.08938  0  0.997695  0  0.063472  0  0.091805  0  1.081263  0  0.066972  0  0.097206  0  1.074096  0  0  0.092601  0.08786  0  1.086431  0
C  C44  1  0.20405248  0.18731326  0.09342013  1  0  0.703458  0  3.854481  0  1.650961  0  0.651364  0  4.144382  0  1.709017  0  0.68849  0  4.135168  0  0  0.219575  0.626019  0  4.151318  0
C  C45  1  0.79596532  0.81268513  0.90657984  1  0  0.703177  0  3.854711  0  1.650704  0  0.651102  0  4.144671  0  1.709288  0  0.688205  0  4.135496  0  0  0.219454  0.62576  0  4.151599  0
C  C46  1  0.16496412  0.08012458  0.13376335  1  0  -0.044911  0  3.681334  0  -0.005031  0  -0.03079  0  3.913362  0  -0.010151  0  -0.034329  0  3.93317  0  0  -0.003944  -0.02836  0  3.899694  0
C  C47  1  0.83504089  0.91987308  0.86624192  1  0  -0.044861  0  3.681463  0  -0.004618  0  -0.03091  0  3.9136  0  -0.010307  0  -0.034451  0  3.933423  0  0  -0.00405  -0.028476  0  3.899928  0
C  C48  1  0.16202833  0.04106426  0.06408025  1  0  -0.07644  0  3.727578  0  0.010363  0  -0.099355  0  3.974563  0  0.011977  0  -0.101632  0  3.995136  0  0  -0.083829  -0.097832  0  3.960625  0
C  C49  1  0.83797588  0.95893040  0.93592570  1  0  -0.076577  0  3.727651  0  0.010332  0  -0.099396  0  3.974709  0  0.012053  0  -0.101672  0  3.995288  0  0  -0.083901  -0.097877  0  3.960769  0
C  C50  1  0.13344455  0.94131729  0.09339372  1  0  -0.058609  0  3.738368  0  -0.129209  0  -0.073597  0  3.990961  0  -0.139027  0  -0.073991  0  4.010107  0  0  -0.083582  -0.073131  0  3.977946  0
C  C51  1  0.86655834  0.05867742  0.90662032  1  0  -0.058525  0  3.738154  0  -0.129177  0  -0.073536  0  3.990673  0  -0.139027  0  -0.073947  0  4.009827  0  0  -0.083416  -0.073071  0  3.97766  0
C  C52  1  0.10125196  0.87977323  0.19418930  1  0  -0.066227  0  3.762379  0  -0.040236  0  -0.077395  0  4.008119  0  -0.041163  0  -0.080659  0  4.030676  0  0  -0.087896  -0.075164  0  3.992675  0
C  C53  1  0.89875034  0.12022520  0.80581985  1  0  -0.066072  0  3.762224  0  -0.04075  0  -0.077257  0  4.007988  0  -0.041122  0  -0.080523  0  4.030548  0  0  -0.087874  -0.075016  0  3.992528  0
C  C54  1  0.10287754  0.91758222  0.26438863  1  0  -0.064568  0  3.72553  0  -0.03017  0  -0.087562  0  3.975039  0  -0.027839  0  -0.088166  0  3.996258  0  0  -0.082463  -0.086934  0  3.96055  0
C  C55  1  0.89713378  0.08241622  0.73562048  1  0  -0.06477  0  3.725637  0  -0.029733  0  -0.087831  0  3.975191  0  -0.028045  0  -0.088424  0  3.996399  0  0  -0.082589  -0.087199  0  3.960692  0
C  C56  1  0.13626669  0.01725320  0.23594825  1  0  -0.080881  0  3.696749  0  -0.068431  0  -0.066991  0  3.931846  0  -0.074612  0  -0.074831  0  3.954862  0  0  -0.01381  -0.061739  0  3.916134  0
C  C57  1  0.86374053  0.98274672  0.76405721  1  0  -0.08079  0  3.696796  0  -0.068285  0  -0.066743  0  3.931723  0  -0.074511  0  -0.074571  0  3.954734  0  0  -0.013722  -0.061496  0  3.916013  0
C  C58  1  0.13285703  0.05168641  0.31636827  1  0  0.686302  0  3.84618  0  1.574773  0  0.630811  0  4.135128  0  1.629198  0  0.66744  0  4.129012  0  0  0.214959  0.605362  0  4.140782  0
C  C59  1  0.86714562  0.94831796  0.68362962  1  0  0.686262  0  3.846533  0  1.574447  0  0.630814  0  4.135338  0  1.629244  0  0.667438  0  4.129218  0  0  0.214962  0.605358  0  4.141001  0
C  C60  1  0.06684683  0.31206754  0.40741459  1  0  0.696913  0  3.86414  0  1.636719  0  0.644609  0  4.154979  0  1.694671  0  0.682003  0  4.145628  0  0  0.218223  0.619093  0  4.162071  0
C  C61  1  0.93315392  0.68794060  0.59258516  1  0  0.697089  0  3.863859  0  1.636468  0  0.644764  0  4.154757  0  1.694174  0  0.682158  0  4.145404  0  0  0.21825  0.619254  0  4.161854  0
C  C62  1  0.98441081  0.41778971  0.36590284  1  0  -0.056189  0  3.676576  0  -0.01481  0  -0.041042  0  3.908641  0  -0.017373  0  -0.045745  0  3.928867  0  0  -0.00536  -0.037875  0  3.894698  0
C  C63  1  0.01558154  0.58221464  0.63409451  1  0  -0.056013  0  3.676237  0  -0.01488  0  -0.040958  0  3.908326  0  -0.018053  0  -0.045663  0  3.928557  0  0  -0.005281  -0.037813  0  3.89442  0
C  C64  1  0.90001035  0.45418391  0.43458998  1  0  -0.061236  0  3.720158  0  0.010258  0  -0.086491  0  3.970396  0  0.014276  0  -0.087754  0  3.991049  0  0  -0.079281  -0.085599  0  3.9564  0
C  C65  1  0.09997931  0.54582116  0.56540327  1  0  -0.06141  0  3.719959  0  0.010622  0  -0.086638  0  3.970218  0  0.015009  0  -0.087898  0  3.990865  0  0  -0.079325  -0.08574  0  3.956228  0
C  C66  1  0.83630450  0.55453728  0.40436870  1  0  -0.052186  0  3.747551  0  -0.119363  0  -0.067274  0  4.001755  0  -0.129474  0  -0.068175  0  4.021777  0  0  -0.080053  -0.066532  0  3.988125  0
C  C67  1  0.16368705  0.44546406  0.59562734  1  0  -0.051944  0  3.74733  0  -0.119256  0  -0.067052  0  4.00158  0  -0.130236  0  -0.067931  0  4.02158  0  0  -0.079935  -0.066307  0  3.987941  0
C  C68  1  0.85405359  0.61967142  0.30400621  1  0  -0.066819  0  3.769986  0  -0.057304  0  -0.079567  0  4.01525  0  -0.07156  0  -0.082215  0  4.037572  0  0  -0.088328  -0.0777  0  3.999972  0
C  C69  1  0.14593634  0.38033212  0.69598100  1  0  -0.066765  0  3.770001  0  -0.057599  0  -0.079577  0  4.01528  0  -0.071205  0  -0.082226  0  4.037599  0  0  -0.088367  -0.077701  0  3.999988  0
C  C70  1  0.93006652  0.58354985  0.23440109  1  0  -0.061585  0  3.724751  0  -0.017564  0  -0.084425  0  3.972153  0  -0.001982  0  -0.085496  0  3.99344  0  0  -0.081582  -0.083514  0  3.957585  0
C  C71  1  0.06993793  0.41645147  0.76559063  1  0  -0.061818  0  3.724655  0  -0.016889  0  -0.084717  0  3.972046  0  -0.002276  0  -0.08579  0  3.993337  0  0  -0.081658  -0.083803  0  3.957476  0
C  C72  1  0.99564222  0.48287258  0.26350924  1  0  -0.078425  0  3.696068  0  -0.031633  0  -0.065211  0  3.931656  0  -0.035462  0  -0.072528  0  3.954601  0  0  -0.012809  -0.060251  0  3.916003  0
C  C73  1  0.00435671  0.51713101  0.73648460  1  0  -0.078469  0  3.695931  0  -0.0316  0  -0.065073  0  3.931354  0  -0.035389  0  -0.072395  0  3.954303  0  0  -0.012814  -0.06011  0  3.915709  0
C  C74  1  0.06077695  0.44903115  0.18301020  1  0  0.686831  0  3.845019  0  1.574108  0  0.630659  0  4.133387  0  1.639363  0  0.667491  0  4.127203  0  0  0.215636  0.604976  0  4.139215  0
C  C75  1  0.93922809  0.55096645  0.81698708  1  0  0.686942  0  3.845008  0  1.573795  0  0.630707  0  4.133375  0  1.639362  0  0.667543  0  4.127181  0  0  0.215673  0.60502  0  4.139206  0
C  C76  1  0.54374508  0.36779217  0.35259236  1  0  0.673057  0  3.881083  0  1.590262  0  0.619754  0  4.173204  0  1.650194  0  0.655063  0  4.168848  0  0  0.208678  0.595517  0  4.177135  0
C  C77  1  0.45624741  0.63220322  0.64741218  1  0  0.672854  0  3.881209  0  1.589466  0  0.61961  0  4.17328  0  1.650573  0  0.654921  0  4.168921  0  0  0.208642  0.595372  0  4.177216  0
C  C78  1  0.48643979  0.47508809  0.29060828  1  0  -0.078674  0  3.704418  0  -0.02594  0  -0.064709  0  3.939627  0  -0.030643  0  -0.072512  0  3.962354  0  0  -0.012348  -0.059766  0  3.924767  0
C  C79  1  0.51355247  0.52490878  0.70939297  1  0  -0.078736  0  3.704586  0  -0.025212  0  -0.064825  0  3.939807  0  -0.030761  0  -0.072634  0  3.962532  0  0  -0.012427  -0.059876  0  3.924947  0
C  C80  1  0.42924675  0.54097494  0.33576122  1  0  -0.046846  0  3.714477  0  -0.060449  0  -0.071366  0  3.963488  0  -0.062315  0  -0.070173  0  3.983414  0  0  -0.076818  -0.071938  0  3.949833  0
C  C81  1  0.57075453  0.45902193  0.66424000  1  0  -0.046872  0  3.714402  0  -0.060324  0  -0.071378  0  3.963436  0  -0.062279  0  -0.070184  0  3.983363  0  0  -0.076816  -0.071958  0  3.949778  0
C  C82  1  0.38227644  0.64190367  0.27909424  1  0  -0.082274  0  3.767913  0  0.049789  0  -0.095552  0  4.020075  0  0.054905  0  -0.09943  0  4.042293  0  0  -0.091166  -0.092974  0  4.004916  0
C  C83  1  0.61773128  0.35809323  0.72090914  1  0  -0.082243  0  3.767923  0  0.049797  0  -0.095571  0  4.020101  0  0.054479  0  -0.099449  0  4.04232  0  0  -0.091203  -0.092996  0  4.004958  0
C  C84  1  0.40058250  0.67945630  0.17553112  1  0  -0.047209  0  3.753055  0  -0.100511  0  -0.061025  0  3.999555  0  -0.099774  0  -0.060847  0  4.020236  0  0  -0.083596  -0.060836  0  3.985326  0
C  C85  1  0.59943026  0.32054134  0.82447089  1  0  -0.047197  0  3.752804  0  -0.100659  0  -0.061033  0  3.999354  0  -0.099823  0  -0.060864  0  4.020036  0  0  -0.083539  -0.060878  0  3.985111  0
C  C86  1  0.46105293  0.61523423  0.12938216  1  0  -0.125417  0  3.780208  0  -0.108184  0  -0.142172  0  4.034628  0  -0.111362  0  -0.146052  0  4.053196  0  0  -0.10011  -0.139381  0  4.021919  0
C  C87  1  0.53895007  0.38476792  0.87062000  1  0  -0.125436  0  3.779943  0  -0.108089  0  -0.142153  0  4.034347  0  -0.111271  0  -0.146036  0  4.052916  0  0  -0.100118  -0.139363  0  4.021656  0
C  C88  1  0.49896557  0.51249564  0.18623400  1  0  -0.046278  0  3.69513  0  -0.033595  0  -0.03214  0  3.924998  0  -0.038285  0  -0.034854  0  3.945408  0  0  -0.003563  -0.030453  0  3.911601  0
C  C89  1  0.50103020  0.48750348  0.81376601  1  0  -0.046218  0  3.695058  0  -0.033634  0  -0.032027  0  3.924946  0  -0.038301  0  -0.034728  0  3.945336  0  0  -0.003519  -0.030343  0  3.911553  0
C  C90  1  0.55106780  0.44529907  0.13299624  1  0  0.712456  0  3.854458  0  1.635724  0  0.65903  0  4.142271  0  1.693923  0  0.695421  0  4.135201  0  0  0.22004  0.633787  0  4.148814  0
C  C91  1  0.44893265  0.55470305  0.86700145  1  0  0.712537  0  3.854392  0  1.635643  0  0.65897  0  4.142421  0  1.693961  0  0.695359  0  4.135352  0  0  0.220025  0.633722  0  4.148972  0
C  C92  1  0.66764374  0.13778308  0.15305417  1  0  0.674319  0  3.87956  0  1.573785  0  0.620076  0  4.170654  0  1.632084  0  0.655767  0  4.166153  0  0  0.210553  0.595545  0  4.174832  0
C  C93  1  0.33235859  0.86221530  0.84694765  1  0  0.674294  0  3.879605  0  1.573858  0  0.620027  0  4.170715  0  1.632064  0  0.655718  0  4.166212  0  0  0.210528  0.595497  0  4.17489  0
C  C94  1  0.62764811  0.03149239  0.21253786  1  0  -0.076735  0  3.710693  0  0.011552  0  -0.06403  0  3.947494  0  0.01325  0  -0.071829  0  3.969753  0  0  -0.011049  -0.059178  0  3.93314  0
C  C95  1  0.37235245  0.96850898  0.78746015  1  0  -0.076765  0  3.710454  0  0.01141  0  -0.063963  0  3.947187  0  0.013238  0  -0.071766  0  3.969456  0  0  -0.011041  -0.059111  0  3.932833  0
C  C96  1  0.62206040  0.96862513  0.16531881  1  0  -0.045922  0  3.716631  0  -0.056599  0  -0.070624  0  3.96586  0  -0.053451  0  -0.069314  0  3.985817  0  0  -0.076936  -0.071318  0  3.952272  0
C  C97  1  0.37794121  0.03137773  0.83467781  1  0  -0.045954  0  3.716293  0  -0.056246  0  -0.070661  0  3.965536  0  -0.053705  0  -0.06935  0  3.985492  0  0  -0.076979  -0.071358  0  3.951949  0
C  C98  1  0.59691604  0.86778081  0.22035506  1  0  -0.083633  0  3.770029  0  -0.073725  0  -0.096263  0  4.021247  0  -0.078157  0  -0.100187  0  4.043247  0  0  -0.092523  -0.093677  0  4.006352  0
C  C99  1  0.40308300  0.13222203  0.77963976  1  0  -0.08349  0  3.769867  0  -0.073761  0  -0.096155  0  4.021109  0  -0.078107  0  -0.100081  0  4.043107  0  0  -0.092468  -0.093572  0  4.006213  0
C  C100  1  0.58523999  0.82726954  0.32405121  1  0  -0.048999  0  3.748922  0  0.02412  0  -0.062966  0  3.995178  0  0.032645  0  -0.062796  0  4.01558  0  0  -0.083666  -0.062857  0  3.981184  0
C  C101  1  0.41475414  0.17273181  0.67594596  1  0  -0.049072  0  3.748946  0  0.024161  0  -0.063113  0  3.995215  0  0.032235  0  -0.062941  0  4.015625  0  0  -0.083662  -0.063003  0  3.981219  0
C  C102  1  0.59161384  0.88893137  0.37209872  1  0  -0.126195  0  3.779438  0  -0.075354  0  -0.141617  0  4.03263  0  -0.084509  0  -0.145565  0  4.050999  0  0  -0.100006  -0.138812  0  4.020179  0
C  C103  1  0.40837279  0.11106847  0.62789901  1  0  -0.126203  0  3.779425  0  -0.075112  0  -0.141573  0  4.032634  0  -0.084195  0  -0.145532  0  4.050982  0  0  -0.100075  -0.138772  0  4.020179  0
C  C104  1  0.60568051  0.99185411  0.31699266  1  0  -0.044414  0  3.694338  0  -0.0081  0  -0.03058  0  3.924869  0  -0.015351  0  -0.033107  0  3.945007  0  0  -0.004232  -0.029028  0  3.911712  0
C  C105  1  0.39432276  0.00814651  0.68300546  1  0  -0.044406  0  3.694198  0  -0.008837  0  -0.030686  0  3.924901  0  -0.015393  0  -0.03322  0  3.945053  0  0  -0.004227  -0.029137  0  3.911742  0
C  C106  1  0.59275762  0.05777496  0.37133928  1  0  0.710552  0  3.856772  0  1.643171  0  0.65712  0  4.143668  0  1.70329  0  0.693395  0  4.136882  0  0  0.218525  0.631967  0  4.149976  0
C  C107  1  0.40724120  0.94222116  0.62866245  1  0  0.710694  0  3.856163  0  1.643126  0  0.657182  0  4.143265  0  1.70233  0  0.693452  0  4.136477  0  0  0.218503  0.632037  0  4.14957  0
O  O108  1  0.11920227  0.25160621  0.02323264  1  0  -0.646277  0  2.085898  0  -1.175263  0  -0.571956  0  2.358964  0  -1.216455  0  -0.60342  0  2.343426  0  0  -0.318027  -0.549365  0  2.368557  0
O  O109  1  0.88081320  0.74839067  0.97676682  1  0  -0.646053  0  2.086118  0  -1.175223  0  -0.571731  0  2.359176  0  -1.216693  0  -0.603185  0  2.343646  0  0  -0.317898  -0.549141  0  2.368767  0
O  O110  1  0.32485649  0.20971034  0.12651972  1  0  -0.761236  0  2.129535  0  -1.2294  0  -0.704896  0  2.39259  0  -1.268282  0  -0.743941  0  2.379521  0  0  -0.413512  -0.68463  0  2.39916  0
O  O111  1  0.67515804  0.79028431  0.87348411  1  0  -0.761186  0  2.129495  0  -1.229248  0  -0.704812  0  2.392498  0  -1.268373  0  -0.743834  0  2.379448  0  0  -0.413487  -0.68455  0  2.399064  0
O  O112  1  0.14324836  0.98678087  0.40472930  1  0  -0.643703  0  2.196537  0  -1.18153  0  -0.564477  0  2.482376  0  -1.223378  0  -0.595787  0  2.468046  0  0  -0.315655  -0.542042  0  2.491248  0
O  O113  1  0.85675451  0.01322203  0.59527454  1  0  -0.643612  0  2.196839  0  -1.181619  0  -0.564393  0  2.482588  0  -1.223405  0  -0.595704  0  2.468262  0  0  -0.315569  -0.541979  0  2.491515  0
O  O114  1  0.11656020  0.14669699  0.29540854  1  0  -0.800377  0  2.222788  0  -1.220275  0  -0.727079  0  2.51296  0  -1.257257  0  -0.765062  0  2.496444  0  0  -0.395281  -0.706569  0  2.524212  0
O  O115  1  0.88343365  0.85330592  0.70459733  1  0  -0.800503  0  2.222792  0  -1.220143  0  -0.727267  0  2.51296  0  -1.257155  0  -0.765235  0  2.49644  0  0  -0.395377  -0.706758  0  2.524218  0
O  O116  1  0.98214401  0.24500426  0.47757263  1  0  -0.649183  0  2.114462  0  -1.178591  0  -0.573088  0  2.391911  0  -1.219776  0  -0.604518  0  2.375263  0  0  -0.318891  -0.550434  0  2.402005  0
O  O117  1  0.01785275  0.75500464  0.52242777  1  0  -0.649223  0  2.11436  0  -1.178618  0  -0.573153  0  2.391888  0  -1.219891  0  -0.604587  0  2.375248  0  0  -0.318897  -0.5505  0  2.401981  0
O  O118  1  0.22194393  0.29353019  0.37544753  1  0  -0.757857  0  2.121941  0  -1.230182  0  -0.702664  0  2.385893  0  -1.269639  0  -0.741355  0  2.372272  0  0  -0.414395  -0.682783  0  2.392869  0
O  O119  1  0.77805147  0.70647119  0.62455354  1  0  -0.757986  0  2.121802  0  -1.229941  0  -0.702799  0  2.385762  0  -1.269241  0  -0.741478  0  2.372146  0  0  -0.414459  -0.6829  0  2.392687  0
O  O120  1  0.08631330  0.51352160  0.09451342  1  0  -0.645525  0  2.211289  0  -1.182746  0  -0.562959  0  2.497293  0  -1.22784  0  -0.595105  0  2.483096  0  0  -0.315249  -0.540039  0  2.506247  0
O  O121  1  0.91369549  0.48647676  0.90548391  1  0  -0.645588  0  2.211334  0  -1.182699  0  -0.563003  0  2.497353  0  -1.227809  0  -0.595152  0  2.483155  0  0  -0.31531  -0.540083  0  2.506308  0
O  O122  1  0.08404776  0.35404168  0.20378735  1  0  -0.798356  0  2.241601  0  -1.206465  0  -0.723254  0  2.532907  0  -1.250792  0  -0.761672  0  2.516686  0  0  -0.394613  -0.702349  0  2.544029  0
O  O123  1  0.91597015  0.64595597  0.79621426  1  0  -0.79848  0  2.241689  0  -1.206345  0  -0.723341  0  2.53294  0  -1.250681  0  -0.76175  0  2.516711  0  0  -0.394596  -0.702437  0  2.544065  0
O  O124  1  0.56768604  0.33984242  0.44204557  1  0  -0.585494  0  1.956653  0  -1.16375  0  -0.521748  0  2.198037  0  -1.207632  0  -0.551611  0  2.189913  0  0  -0.304072  -0.50036  0  2.202532  0
O  O125  1  0.43229050  0.66015593  0.55795625  1  0  -0.585387  0  1.956676  0  -1.163724  0  -0.521622  0  2.197951  0  -1.207657  0  -0.551488  0  2.18983  0  0  -0.304039  -0.500237  0  2.20245  0
O  O126  1  0.57237772  0.30782014  0.30800093  1  0  -0.804442  0  2.232525  0  -1.213334  0  -0.725845  0  2.508582  0  -1.256034  0  -0.765235  0  2.495402  0  0  -0.394288  -0.703934  0  2.516909  0
O  O127  1  0.42762287  0.69217299  0.69200262  1  0  -0.804424  0  2.232609  0  -1.213312  0  -0.725781  0  2.50848  0  -1.256236  0  -0.765153  0  2.495297  0  0  -0.394279  -0.703871  0  2.516809  0
O  O128  1  0.70463913  0.44491216  0.09145042  1  0  -0.629161  0  2.172144  0  -1.16432  0  -0.549262  0  2.460816  0  -1.206978  0  -0.581464  0  2.444864  0  0  -0.315025  -0.526131  0  2.470639  0
O  O129  1  0.29535371  0.55508918  0.90854619  1  0  -0.629241  0  2.172086  0  -1.164254  0  -0.549297  0  2.460841  0  -1.207007  0  -0.581509  0  2.444911  0  0  -0.315078  -0.526157  0  2.47065  0
O  O130  1  0.43597010  0.39564230  0.12811566  1  0  -0.754024  0  2.121245  0  -1.225251  0  -0.704369  0  2.3984  0  -1.263462  0  -0.741492  0  2.383602  0  0  -0.414041  -0.685365  0  2.406837  0
O  O131  1  0.56402719  0.60435532  0.87188555  1  0  -0.753972  0  2.121158  0  -1.225159  0  -0.704375  0  2.398561  0  -1.263452  0  -0.741465  0  2.383734  0  0  -0.413979  -0.685363  0  2.406985  0
O  O132  1  0.72357324  0.05821249  0.41187680  1  0  -0.624126  0  2.173684  0  -1.159003  0  -0.545054  0  2.460608  0  -1.199147  0  -0.576987  0  2.444998  0  0  -0.312454  -0.522197  0  2.470315  0
O  O133  1  0.27642358  0.94178812  0.58812116  1  0  -0.624135  0  2.173284  0  -1.159077  0  -0.545009  0  2.46024  0  -1.198702  0  -0.576941  0  2.444632  0  0  -0.312429  -0.522147  0  2.469929  0
O  O134  1  0.44723537  0.10703665  0.37732713  1  0  -0.75939  0  2.124123  0  -1.229236  0  -0.708583  0  2.402167  0  -1.269516  0  -0.745935  0  2.387344  0  0  -0.411895  -0.689334  0  2.410567  0
O  O135  1  0.55275879  0.89295646  0.62267425  1  0  -0.759475  0  2.124101  0  -1.229135  0  -0.708651  0  2.402198  0  -1.268996  0  -0.745981  0  2.38737  0  0  -0.411859  -0.689397  0  2.410575  0
O  O136  1  0.63650717  0.19701821  0.19819702  1  0  -0.798223  0  2.255786  0  -1.204157  0  -0.718935  0  2.532428  0  -1.248005  0  -0.758372  0  2.519218  0  0  -0.395151  -0.696913  0  2.540489  0
O  O137  1  0.36348731  0.80298090  0.80180243  1  0  -0.798254  0  2.255862  0  -1.204175  0  -0.718978  0  2.53251  0  -1.248013  0  -0.758404  0  2.519302  0  0  -0.395159  -0.696957  0  2.540569  0
O  O138  1  0.73474398  0.16556454  0.06485853  1  0  -0.579828  0  1.992449  0  -1.162353  0  -0.51015  0  2.237471  0  -1.205185  0  -0.540924  0  2.228891  0  0  -0.296374  -0.488129  0  2.242217  0
O  O139  1  0.26525553  0.83443532  0.93513954  1  0  -0.579787  0  1.992573  0  -1.16238  0  -0.510099  0  2.237593  0  -1.205159  0  -0.540867  0  2.229008  0  0  -0.296331  -0.488082  0  2.242342  0
