# generated using pymatgen
data_Mn3H10C10O13
_symmetry_space_group_name_H-M   'P 1'
_cell_length_a   9.99195487
_cell_length_b   11.50100959
_cell_length_c   14.96314647
_cell_angle_alpha   91.18128749
_cell_angle_beta   90.00003982
_cell_angle_gamma   89.99993065
_symmetry_Int_Tables_number   1
_chemical_formula_structural   Mn3H10C10O13
_chemical_formula_sum   'Mn12 H40 C40 O52'
_cell_volume   1719.16296147
_cell_formula_units_Z   4
loop_
 _symmetry_equiv_pos_site_id
 _symmetry_equiv_pos_as_xyz
  1  'x, y, z'
loop_
 _atom_site_type_symbol
 _atom_site_label
 _atom_site_symmetry_multiplicity
 _atom_site_fract_x
 _atom_site_fract_y
 _atom_site_fract_z
 _atom_site_occupancy
 _atom_site_pbe_bader_charge
 _atom_site_pbe_bader_spin_density
 _atom_site_pbe_cm5_charge
 _atom_site_pbe_ddec_charge
 _atom_site_pbe_ddec_spin_density
 _atom_site_pbe_ddec_sum_bond_order
 _atom_site_pbe_magmom
Mn  Mn0  1  0.08559414  0.24362178  0.86799387  1  1.522691  4.581223  0.607389  1.010149  4.687278  2.308524  4.512
Mn  Mn1  1  0.41440507  0.74362207  0.36799368  1  1.522712  4.581215  0.607385  1.010147  4.687274  2.308574  4.512
Mn  Mn2  1  0.91440519  0.75637726  0.13200380  1  1.522655  4.581236  0.607374  1.010132  4.68726  2.308573  4.512
Mn  Mn3  1  0.58559227  0.25637697  0.63200332  1  1.522686  4.581224  0.607374  1.010114  4.687258  2.308599  4.512
Mn  Mn4  1  0.90373324  0.26442528  0.68407119  1  1.520723  4.562874  0.60008  1.001185  4.671353  2.329123  4.497
Mn  Mn5  1  0.59626527  0.76442590  0.18407220  1  1.520669  4.562889  0.600102  1.001173  4.671357  2.329111  4.497
Mn  Mn6  1  0.09626710  0.73557637  0.31592919  1  1.520688  4.56289  0.600094  1.001211  4.671356  2.329063  4.497
Mn  Mn7  1  0.40373507  0.23557662  0.81592887  1  1.520663  4.562887  0.600085  1.001152  4.671358  2.329135  4.497
Mn  Mn8  1  0.99999916  0.49999938  0.99999979  1  1.537586  4.578984  0.595505  1.01249  4.708689  2.293444  4.512
Mn  Mn9  1  0.49999952  0.00000005  0.50000062  1  1.537584  4.578985  0.59552  1.012514  4.70869  2.293399  4.512
Mn  Mn10  1  1.00000000  0.00000087  0.00000068  1  1.536427  4.576598  0.601213  1.015431  4.707123  2.301515  4.51
Mn  Mn11  1  0.50000017  0.49999908  0.50000083  1  1.536393  4.576597  0.601201  1.015457  4.707112  2.301527  4.51
H  H12  1  0.26571501  0.12363254  0.63025024  1  0.129305  0.005278  0.12055  0.029942  0.002101  1.016014  0.002
H  H13  1  0.23428612  0.62363389  0.13025066  1  0.129322  0.005278  0.120554  0.029956  0.0021  1.016005  0.002
H  H14  1  0.73428532  0.87636736  0.36975011  1  0.1293  0.005278  0.120544  0.029925  0.002101  1.016031  0.002
H  H15  1  0.76571422  0.37636776  0.86974973  1  0.129317  0.005278  0.120548  0.029964  0.002101  1.016001  0.002
H  H16  1  0.97233026  0.53626220  0.72495214  1  0.104622  0.005915  0.118837  0.030763  0.003135  0.984211  0.003
H  H17  1  0.52766961  0.03626222  0.22495197  1  0.104619  0.005915  0.118837  0.03077  0.003135  0.984204  0.003
H  H18  1  0.02766908  0.46373857  0.27504823  1  0.104615  0.005914  0.118857  0.030805  0.003135  0.98424  0.003
H  H19  1  0.47232873  0.96373856  0.77504773  1  0.104624  0.005914  0.118829  0.030754  0.003135  0.984232  0.003
H  H20  1  0.40430245  0.44950776  0.95440386  1  0.094706  0.006193  0.121659  0.031668  0.003323  0.983838  0.003
H  H21  1  0.09569757  0.94950838  0.45440353  1  0.094703  0.006193  0.121658  0.031653  0.003323  0.983854  0.003
H  H22  1  0.59569789  0.55049127  0.04559715  1  0.094738  0.006192  0.121652  0.03166  0.003323  0.983804  0.003
H  H23  1  0.90430177  0.05049065  0.54559748  1  0.094738  0.006192  0.121655  0.031649  0.003323  0.983812  0.003
H  H24  1  0.79454460  0.02244515  0.76179677  1  0.098683  0.006661  0.118262  0.026296  0.003314  0.973834  0.003
H  H25  1  0.70545532  0.52244566  0.26179649  1  0.098682  0.006661  0.118262  0.026286  0.003314  0.973868  0.003
H  H26  1  0.20545473  0.97755475  0.23820359  1  0.098679  0.006661  0.118265  0.026294  0.003313  0.973846  0.003
H  H27  1  0.29454502  0.47755425  0.73820253  1  0.098692  0.006661  0.118284  0.026327  0.003313  0.973823  0.003
H  H28  1  0.82444810  0.31295988  0.07269821  1  0.140663  0.005699  0.122386  0.030999  0.003068  0.987253  0.002
H  H29  1  0.67555222  0.81296017  0.57269891  1  0.140661  0.005699  0.122415  0.031012  0.003069  0.987251  0.002
H  H30  1  0.17555424  0.68704002  0.92730081  1  0.140643  0.005699  0.122403  0.031005  0.003069  0.987246  0.002
H  H31  1  0.32444912  0.18703973  0.42730011  1  0.140587  0.005699  0.122405  0.03102  0.003069  0.987255  0.002
H  H32  1  0.30418002  0.99997100  0.00301481  1  0.095248  0.006237  0.124105  0.033733  0.003239  0.978287  0.002
H  H33  1  0.19582045  0.49997146  0.50301439  1  0.095254  0.006237  0.124119  0.033718  0.003239  0.978296  0.002
H  H34  1  0.69581931  0.00002891  0.99698488  1  0.095247  0.006237  0.124102  0.033721  0.003239  0.978284  0.002
H  H35  1  0.80417988  0.50002931  0.49698531  1  0.095256  0.006237  0.124095  0.033723  0.003239  0.978228  0.002
H  H36  1  0.56100321  0.21431225  0.04280621  1  0.133086  0.000318  0.11867  0.105556  -0.000208  1.029435  0.0
H  H37  1  0.93899622  0.71431226  0.54280636  1  0.133094  0.000318  0.118673  0.105568  -0.000208  1.029415  0.0
H  H38  1  0.43899713  0.78568766  0.95719347  1  0.133093  0.000318  0.118666  0.105565  -0.000208  1.029414  0.0
H  H39  1  0.06100312  0.28568851  0.45719401  1  0.133072  0.000318  0.118681  0.10556  -0.000208  1.029431  0.0
H  H40  1  0.62966047  0.30401483  0.21036340  1  0.058093  0.000339  0.101356  0.116791  0.000153  1.043164  0.0
H  H41  1  0.87034001  0.80401491  0.71036419  1  0.058087  0.000339  0.101358  0.116794  0.000153  1.043145  0.0
H  H42  1  0.37033987  0.69598508  0.78963696  1  0.058098  0.000339  0.10136  0.11679  0.000153  1.04316  0.0
H  H43  1  0.12966033  0.19598499  0.28963684  1  0.058088  0.000339  0.10136  0.116801  0.000153  1.043154  0.0
H  H44  1  0.38967940  0.36303434  0.28773648  1  0.072969  0.000127  0.105681  0.134727  -0.000494  1.022934  0.0
H  H45  1  0.11032056  0.86303383  0.78773647  1  0.072969  0.000127  0.10568  0.134726  -0.000494  1.022936  0.0
H  H46  1  0.61032094  0.63696556  0.71226321  1  0.072973  0.000127  0.105717  0.134791  -0.000494  1.022867  0.0
H  H47  1  0.88967977  0.13696520  0.21226387  1  0.072968  0.000127  0.105678  0.13476  -0.000494  1.022908  0.0
H  H48  1  0.20041811  0.30414061  0.15847317  1  0.159027  0.000165  0.120167  0.110707  -0.000367  1.02291  0.0
H  H49  1  0.29958280  0.80413991  0.65847324  1  0.159015  0.000165  0.120169  0.110708  -0.000367  1.02292  0.0
H  H50  1  0.79958223  0.69586016  0.84152720  1  0.159022  0.000165  0.120164  0.110687  -0.000367  1.022938  0.0
H  H51  1  0.70041854  0.19585913  0.34152777  1  0.159024  0.000165  0.120161  0.110696  -0.000367  1.022935  0.0
C  C52  1  0.18442160  0.16353897  0.67034401  1  1.536071  0.023149  0.175318  0.524779  0.021032  4.129924  0.019
C  C53  1  0.31557851  0.66353936  0.17034379  1  1.536062  0.02315  0.17528  0.524685  0.021034  4.129994  0.019
C  C54  1  0.81557773  0.83646093  0.32965634  1  1.536059  0.023148  0.175307  0.524768  0.021032  4.129908  0.019
C  C55  1  0.68442082  0.33646055  0.82965590  1  1.536081  0.02315  0.175284  0.524678  0.021034  4.129922  0.019
C  C56  1  0.99188505  0.48926872  0.78754562  1  1.562964  0.023357  0.175589  0.516347  0.021861  4.151758  0.02
C  C57  1  0.50811525  0.98926943  0.28754593  1  1.562956  0.023356  0.175561  0.51632  0.02186  4.151824  0.02
C  C58  1  0.00811528  0.51073118  0.21245540  1  1.562929  0.023355  0.175599  0.516277  0.02186  4.151906  0.02
C  C59  1  0.49188409  0.01073048  0.71245443  1  1.562947  0.023356  0.175617  0.516357  0.02186  4.151883  0.02
C  C60  1  0.29638664  0.42911982  0.94828447  1  1.566883  0.021812  0.177184  0.519489  0.020513  4.158539  0.019
C  C61  1  0.20361340  0.92912120  0.44828421  1  1.566888  0.021813  0.177223  0.519566  0.020512  4.158589  0.019
C  C62  1  0.70361370  0.57088008  0.05171588  1  1.56688  0.021813  0.177179  0.5195  0.020513  4.158509  0.019
C  C63  1  0.79638594  0.07087871  0.55171548  1  1.566875  0.021812  0.177216  0.519578  0.020512  4.158553  0.019
C  C64  1  0.86918966  0.04914436  0.81305556  1  1.560323  0.019882  0.176472  0.524778  0.01822  4.154668  0.017
C  C65  1  0.63081028  0.54914494  0.31305458  1  1.560342  0.019883  0.176533  0.524906  0.01822  4.154558  0.017
C  C66  1  0.13080967  0.95085555  0.18694547  1  1.560358  0.019882  0.176585  0.524908  0.018219  4.154455  0.017
C  C67  1  0.36918906  0.45085409  0.68694576  1  1.560319  0.019883  0.176481  0.524845  0.018221  4.154565  0.017
C  C68  1  0.88942339  0.25740931  0.03007043  1  1.495083  0.02382  0.180594  0.53073  0.021612  4.130759  0.02
C  C69  1  0.61057596  0.75740967  0.53006977  1  1.495111  0.02382  0.180604  0.530722  0.021613  4.130706  0.02
C  C70  1  0.11057795  0.74259234  0.96992995  1  1.495137  0.023819  0.180579  0.530665  0.021611  4.130736  0.02
C  C71  1  0.38942437  0.24259024  0.46992858  1  1.49515  0.023821  0.180575  0.530683  0.021614  4.130732  0.02
C  C72  1  0.28793109  0.06652575  0.95205676  1  1.573307  0.023316  0.178748  0.526711  0.021769  4.149655  0.02
C  C73  1  0.21206845  0.56652538  0.45205580  1  1.573311  0.023316  0.178748  0.526731  0.021769  4.149676  0.02
C  C74  1  0.71206924  0.93347415  0.04794360  1  1.573315  0.023318  0.178758  0.526723  0.021771  4.149655  0.02
C  C75  1  0.78793088  0.43347365  0.54794388  1  1.573327  0.023318  0.178788  0.526754  0.021771  4.149636  0.02
C  C76  1  0.50208381  0.24852415  0.09815024  1  0.29696  0.000788  -0.022217  0.005695  0.000437  3.91488  0.0
C  C77  1  0.99791563  0.74852498  0.59815110  1  0.297016  0.000788  -0.022261  0.005628  0.000437  3.914807  0.0
C  C78  1  0.49791653  0.75147488  0.90185010  1  0.296963  0.000788  -0.022253  0.005635  0.000437  3.914869  0.0
C  C79  1  0.00208471  0.25147580  0.40184994  1  0.296941  0.000788  -0.022203  0.005726  0.000436  3.914949  0.0
C  C80  1  0.53090401  0.29397605  0.18098721  1  0.034688  0.000622  -0.132828  -0.199037  0.000381  4.09101  0.0
C  C81  1  0.96909645  0.79397691  0.68098872  1  0.034646  0.000622  -0.132784  -0.198955  0.000381  4.090938  0.0
C  C82  1  0.46909533  0.70602298  0.81901313  1  0.034638  0.000622  -0.132773  -0.198922  0.000381  4.090884  0.0
C  C83  1  0.03090489  0.20602387  0.31901298  1  0.034653  0.000622  -0.132814  -0.199015  0.000381  4.090976  0.0
C  C84  1  0.40498671  0.32479752  0.22160700  1  0.063854  0.000502  -0.131891  -0.191669  8.6e-05  4.057145  0.0
C  C85  1  0.09501324  0.82479789  0.72160699  1  0.063827  0.000502  -0.131903  -0.191693  8.6e-05  4.057222  0.0
C  C86  1  0.59501363  0.67520239  0.77839336  1  0.063911  0.000502  -0.131936  -0.191799  8.6e-05  4.057143  0.0
C  C87  1  0.90498610  0.17520201  0.27839336  1  0.063921  0.000502  -0.13192  -0.191748  8.6e-05  4.057125  0.0
C  C88  1  0.30846404  0.29593138  0.16048166  1  0.276071  0.000448  -0.020407  0.016998  4e-05  3.899081  0.0
C  C89  1  0.19153588  0.79593078  0.66048235  1  0.275982  0.000448  -0.020417  0.016976  4e-05  3.899132  0.0
C  C90  1  0.69153630  0.70406940  0.83951804  1  0.27606  0.000448  -0.020405  0.017056  4e-05  3.899119  0.0
C  C91  1  0.80846345  0.20406912  0.33951867  1  0.276066  0.000448  -0.020368  0.017056  4e-05  3.899087  0.0
O  O92  1  0.20877522  0.18563732  0.75316744  1  -1.232518  0.106927  -0.303602  -0.557447  0.07845  2.48569  0.051
O  O93  1  0.29122595  0.68563774  0.25316787  1  -1.23248  0.10692  -0.303574  -0.55741  0.078452  2.485714  0.051
O  O94  1  0.79122511  0.81436258  0.24683292  1  -1.232503  0.106926  -0.303579  -0.557402  0.078447  2.485652  0.051
O  O95  1  0.70877439  0.31436217  0.74683182  1  -1.232516  0.106924  -0.303569  -0.557402  0.078447  2.485691  0.051
O  O96  1  0.07579118  0.18327080  0.63069297  1  -1.195751  0.076243  -0.303114  -0.506265  0.052034  2.340455  0.035
O  O97  1  0.42420887  0.68327108  0.13069346  1  -1.195755  0.076243  -0.303109  -0.506208  0.052033  2.340495  0.035
O  O98  1  0.92420816  0.81672910  0.36930739  1  -1.195752  0.076243  -0.303111  -0.506269  0.052034  2.340431  0.035
O  O99  1  0.57579146  0.31672796  0.86930688  1  -1.195768  0.076246  -0.303103  -0.506199  0.052034  2.340442  0.035
O  O100  1  0.00562367  0.37823618  0.77968508  1  -1.245714  0.112191  -0.308217  -0.55992  0.081977  2.511767  0.051
O  O101  1  0.49437627  0.87823725  0.27968628  1  -1.245698  0.112194  -0.308185  -0.559904  0.081977  2.511815  0.051
O  O102  1  0.99437567  0.62176286  0.22031460  1  -1.245696  0.112185  -0.308203  -0.55988  0.081969  2.511704  0.051
O  O103  1  0.50562307  0.12176353  0.72031409  1  -1.245691  0.112189  -0.308184  -0.559911  0.081976  2.511801  0.051
O  O104  1  0.99854241  0.54689535  0.85941878  1  -1.199565  0.068635  -0.293658  -0.510648  0.04819  2.370564  0.034
O  O105  1  0.50145758  0.04689453  0.35941858  1  -1.199556  0.068633  -0.293651  -0.510633  0.048188  2.370572  0.034
O  O106  1  0.00145693  0.45310456  0.14058225  1  -1.199521  0.068633  -0.293694  -0.510626  0.048188  2.370626  0.034
O  O107  1  0.49854175  0.95310451  0.64058176  1  -1.199554  0.068635  -0.293704  -0.510652  0.04819  2.370647  0.034
O  O108  1  0.26545078  0.34963323  0.88980482  1  -1.229464  0.11706  -0.305781  -0.558149  0.085935  2.493132  0.053
O  O109  1  0.23455131  0.84963631  0.38980326  1  -1.229474  0.117064  -0.305787  -0.558197  0.08594  2.493198  0.053
O  O110  1  0.73454956  0.65036668  0.11019554  1  -1.229422  0.117047  -0.305793  -0.558177  0.085936  2.49312  0.053
O  O111  1  0.76545003  0.15036621  0.61019580  1  -1.229456  0.117061  -0.30578  -0.558191  0.085938  2.493141  0.053
O  O112  1  0.21515928  0.48418358  0.99676945  1  -1.199941  0.068235  -0.29276  -0.507572  0.04747  2.3877  0.032
O  O113  1  0.28483973  0.98418314  0.49676919  1  -1.199961  0.068238  -0.292808  -0.507633  0.047472  2.387779  0.032
O  O114  1  0.78484106  0.51581632  0.00323090  1  -1.199949  0.068237  -0.292742  -0.507562  0.047471  2.387757  0.032
O  O115  1  0.71515961  0.01581677  0.50323116  1  -1.19996  0.068235  -0.292791  -0.507621  0.04747  2.387815  0.032
O  O116  1  0.92116040  0.15033459  0.80335659  1  -1.232238  0.109628  -0.302795  -0.556332  0.080591  2.497111  0.051
O  O117  1  0.57883939  0.65033523  0.30335692  1  -1.232184  0.10962  -0.302823  -0.556343  0.080593  2.497127  0.051
O  O118  1  0.07883894  0.84966531  0.19664443  1  -1.23224  0.109625  -0.302853  -0.556391  0.080592  2.497134  0.051
O  O119  1  0.42115995  0.34966555  0.69664278  1  -1.232185  0.109616  -0.302772  -0.556243  0.080587  2.497186  0.051
O  O120  1  0.89489473  0.97991199  0.87419642  1  -1.196225  0.064911  -0.293086  -0.500566  0.044959  2.351039  0.031
O  O121  1  0.60510468  0.47991193  0.37419695  1  -1.196229  0.064907  -0.293129  -0.500701  0.044962  2.351002  0.031
O  O122  1  0.10510561  0.02008791  0.12580394  1  -1.196226  0.064909  -0.293153  -0.500658  0.044961  2.350916  0.031
O  O123  1  0.39489466  0.52008711  0.62580339  1  -1.19621  0.06491  -0.293144  -0.500753  0.044964  2.350954  0.031
O  O124  1  0.96968442  0.31157595  0.97778637  1  -1.228759  0.116892  -0.304  -0.551898  0.085202  2.491874  0.05
O  O125  1  0.53031533  0.81157663  0.47778602  1  -1.228783  0.11689  -0.304031  -0.55188  0.0852  2.491826  0.05
O  O126  1  0.03031692  0.68842483  0.02221333  1  -1.228742  0.116894  -0.303972  -0.551841  0.0852  2.491884  0.05
O  O127  1  0.46968401  0.18842327  0.52221300  1  -1.228772  0.116898  -0.30401  -0.551864  0.085203  2.491889  0.05
O  O128  1  0.87930433  0.14939178  0.03560167  1  -1.172446  0.067848  -0.292171  -0.50744  0.047252  2.37397  0.032
O  O129  1  0.62069618  0.64939039  0.53560098  1  -1.172441  0.067846  -0.292193  -0.507463  0.047252  2.373897  0.032
O  O130  1  0.12069901  0.85060987  0.96439872  1  -1.172489  0.067845  -0.292215  -0.507443  0.047251  2.373879  0.032
O  O131  1  0.37930515  0.35060865  0.46439736  1  -1.172438  0.067848  -0.292174  -0.507443  0.047252  2.373901  0.032
O  O132  1  0.16643232  0.10120572  0.94187131  1  -1.220511  0.118109  -0.30081  -0.549447  0.086474  2.48318  0.053
O  O133  1  0.33356817  0.60120609  0.44187176  1  -1.220504  0.118107  -0.30085  -0.549476  0.086473  2.483127  0.053
O  O134  1  0.83356802  0.89879419  0.05812837  1  -1.220518  0.11811  -0.300846  -0.549481  0.086476  2.483208  0.053
O  O135  1  0.66643117  0.39879382  0.55812793  1  -1.220534  0.118112  -0.300848  -0.54948  0.086476  2.483193  0.053
O  O136  1  0.38766729  0.10108919  0.90900874  1  -1.195745  0.07604  -0.300595  -0.507186  0.052101  2.358721  0.036
O  O137  1  0.11233317  0.60108892  0.40900907  1  -1.195756  0.076039  -0.300564  -0.507158  0.0521  2.358779  0.036
O  O138  1  0.61233205  0.89891159  0.09099096  1  -1.195749  0.076041  -0.300578  -0.507167  0.0521  2.358727  0.036
O  O139  1  0.88766717  0.39891099  0.59099128  1  -1.195749  0.076042  -0.300583  -0.507178  0.052102  2.358794  0.036
O  O140  1  0.36607338  0.24904146  0.08455716  1  -1.084176  0.000763  -0.133465  -0.078419  -0.000383  2.671734  0.0
O  O141  1  0.13392753  0.74904093  0.58455649  1  -1.084067  0.000763  -0.133451  -0.078403  -0.000383  2.671663  0.0
O  O142  1  0.63392696  0.75095844  0.91544253  1  -1.084179  0.000763  -0.133472  -0.07845  -0.000383  2.671735  0.0
O  O143  1  0.86607381  0.25095898  0.41544320  1  -1.084171  0.000763  -0.133507  -0.078481  -0.000383  2.671798  0.0
