# generated using pymatgen
data_SmP2H12C6NO11
_symmetry_space_group_name_H-M   'P 1'
_cell_length_a   8.90609771
_cell_length_b   12.62797005
_cell_length_c   14.51870000
_cell_angle_alpha   113.80741421
_cell_angle_beta   90.00000000
_cell_angle_gamma   90.00000000
_symmetry_Int_Tables_number   1
_chemical_formula_structural   SmP2H12C6NO11
_chemical_formula_sum   'Sm4 P8 H48 C24 N4 O44'
_cell_volume   1493.91500736
_cell_formula_units_Z   4
loop_
 _symmetry_equiv_pos_site_id
 _symmetry_equiv_pos_as_xyz
  1  'x, y, z'
loop_
 _atom_site_type_symbol
 _atom_site_label
 _atom_site_symmetry_multiplicity
 _atom_site_fract_x
 _atom_site_fract_y
 _atom_site_fract_z
 _atom_site_occupancy
 _atom_site_hle17_bader_spin_density
 _atom_site_hle17_ddec_charge
 _atom_site_hle17_ddec_spin_density
 _atom_site_hle17_ddec_sum_bond_order
 _atom_site_hle17_magmom
 _atom_site_hse06_10hf_bader_spin_density
 _atom_site_hse06_10hf_ddec_charge
 _atom_site_hse06_10hf_ddec_spin_density
 _atom_site_hse06_10hf_ddec_sum_bond_order
 _atom_site_hse06_10hf_magmom
 _atom_site_hse06_bader_spin_density
 _atom_site_hse06_ddec_charge
 _atom_site_hse06_ddec_spin_density
 _atom_site_hse06_ddec_sum_bond_order
 _atom_site_hse06_magmom
 _atom_site_pbe_bader_charge
 _atom_site_pbe_bader_spin_density
 _atom_site_pbe_cm5_charge
 _atom_site_pbe_ddec_charge
 _atom_site_pbe_ddec_spin_density
 _atom_site_pbe_ddec_sum_bond_order
 _atom_site_pbe_magmom
Sm  Sm0  1  0.75232276  0.91029813  0.83159938  1  0  2.325585  0  1.658181  0  0  2.236552  0  2.010844  0  0  2.275147  0  1.971334  0  2.235467  0  1.518703  2.146178  0  2.155405  0
Sm  Sm1  1  0.25232937  0.08970241  0.66840033  1  0  2.325502  0  1.658299  0  0  2.236471  0  2.010987  0  0  2.275069  0  1.971475  0  2.235451  0  1.518649  2.146092  0  2.155554  0
Sm  Sm2  1  0.24767188  0.08969982  0.16839804  1  0  2.325525  0  1.658276  0  0  2.236488  0  2.010955  0  0  2.275084  0  1.971448  0  2.235434  0  1.518692  2.146109  0  2.155517  0
Sm  Sm3  1  0.74767987  0.91030072  0.33160236  1  0  2.325505  0  1.658257  0  0  2.236465  0  2.010937  0  0  2.275062  0  1.97143  0  2.235376  0  1.518683  2.146085  0  2.155505  0
P  P4  1  0.60246363  0.17898331  0.81364647  1  0  1.505895  0  4.767569  0  0  1.353061  0  5.287202  0  0  1.403656  0  5.244796  0  3.367958  0  0.389407  1.317324  0  5.310203  0
P  P5  1  0.10246575  0.82101550  0.68635125  1  0  1.505682  0  4.767846  0  0  1.352832  0  5.287455  0  0  1.40349  0  5.244924  0  3.367807  0  0.38927  1.317066  0  5.310531  0
P  P6  1  0.39753213  0.82101550  0.18635401  1  0  1.505784  0  4.76762  0  0  1.352949  0  5.287205  0  0  1.403594  0  5.244713  0  3.367678  0  0.389335  1.317181  0  5.310283  0
P  P7  1  0.89753338  0.17898244  0.31364617  1  0  1.505663  0  4.767759  0  0  1.352846  0  5.287349  0  0  1.403501  0  5.244766  0  3.36781  0  0.389328  1.317081  0  5.310422  0
P  P8  1  0.11208837  0.38982038  0.72594317  1  0  1.496391  0  4.821387  0  0  1.346936  0  5.343057  0  0  1.397648  0  5.301106  0  3.376397  0  0.360242  1.311073  0  5.369543  0
P  P9  1  0.61208738  0.61017930  0.77405624  1  0  1.496341  0  4.821416  0  0  1.346918  0  5.343073  0  0  1.397602  0  5.301207  0  3.376525  0  0.360275  1.311054  0  5.369557  0
P  P10  1  0.88791076  0.61018103  0.27405616  1  0  1.496209  0  4.821305  0  0  1.346783  0  5.34294  0  0  1.397496  0  5.300986  0  3.376445  0  0.360213  1.310919  0  5.369425  0
P  P11  1  0.38791176  0.38981778  0.22594363  1  0  1.496221  0  4.821478  0  0  1.346761  0  5.34315  0  0  1.397472  0  5.301206  0  3.376588  0  0.360198  1.310897  0  5.369635  0
H  H12  1  0.23181870  0.41013037  0.86154754  1  0  0.429588  0  0.795516  0  0  0.417955  0  0.838666  0  0  0.426243  0  0.830015  0  0.6321  0  0.353191  0.411958  0  0.845203  0
H  H13  1  0.73181883  0.58987190  0.63845208  1  0  0.429589  0  0.795467  0  0  0.417964  0  0.838611  0  0  0.426253  0  0.829959  0  0.632071  0  0.353204  0.411968  0  0.845146  0
H  H14  1  0.76818156  0.58987449  0.13845162  1  0  0.429663  0  0.795409  0  0  0.418034  0  0.838563  0  0  0.426323  0  0.829908  0  0.632043  0  0.353249  0.412036  0  0.845103  0
H  H15  1  0.26818255  0.41012605  0.36154740  1  0  0.429573  0  0.795532  0  0  0.417947  0  0.838677  0  0  0.426235  0  0.830024  0  0.632063  0  0.353199  0.41195  0  0.845211  0
H  H16  1  0.56343083  0.87672453  0.64095629  1  0  0.442676  0  0.857779  0  0  0.412734  0  0.919396  0  0  0.424319  0  0.902496  0  0.650891  0  0.301974  0.404205  0  0.931688  0
H  H17  1  0.06343070  0.12327601  0.85903997  1  0  0.442738  0  0.857708  0  0  0.412784  0  0.919342  0  0  0.424365  0  0.902449  0  0.650923  0  0.30199  0.404254  0  0.931635  0
H  H18  1  0.43656494  0.12327428  0.35904006  1  0  0.442773  0  0.857649  0  0  0.412829  0  0.919268  0  0  0.424411  0  0.902374  0  0.650936  0  0.30201  0.4043  0  0.931561  0
H  H19  1  0.93656619  0.87672713  0.14095720  1  0  0.442662  0  0.857797  0  0  0.412718  0  0.919421  0  0  0.424302  0  0.902521  0  0.650897  0  0.301971  0.404188  0  0.931714  0
H  H20  1  0.70350901  0.79439482  0.61265267  1  0  0.443385  0  0.803869  0  0  0.427575  0  0.85614  0  0  0.436361  0  0.844284  0  0.611821  0  0.331417  0.421153  0  0.863015  0
H  H21  1  0.20351001  0.20560658  0.88734941  1  0  0.443417  0  0.803834  0  0  0.427613  0  0.856102  0  0  0.436398  0  0.844237  0  0.611785  0  0.3314  0.421189  0  0.86298  0
H  H22  1  0.29648900  0.20560658  0.38734941  1  0  0.443393  0  0.80385  0  0  0.427588  0  0.856123  0  0  0.436373  0  0.844268  0  0.611787  0  0.331398  0.421165  0  0.863001  0
H  H23  1  0.79649025  0.79439482  0.11265198  1  0  0.443334  0  0.803901  0  0  0.427503  0  0.856211  0  0  0.436287  0  0.844376  0  0.611811  0  0.331398  0.421081  0  0.863084  0
H  H24  1  0.91469353  0.22151789  0.76284977  1  0  0.282443  0  0.849567  0  0  0.269283  0  0.904089  0  0  0.275962  0  0.899414  0  0.488747  0  0.332225  0.26446  0  0.907438  0
H  H25  1  0.41469790  0.77847919  0.73714872  1  0  0.28246  0  0.849576  0  0  0.269296  0  0.90409  0  0  0.275975  0  0.899415  0  0.488694  0  0.332216  0.264475  0  0.907436  0
H  H26  1  0.08530448  0.77848092  0.23715070  1  0  0.282379  0  0.849599  0  0  0.269217  0  0.904132  0  0  0.275894  0  0.89946  0  0.488672  0  0.332227  0.264397  0  0.907476  0
H  H27  1  0.58530460  0.22151875  0.26285008  1  0  0.282397  0  0.849569  0  0  0.269241  0  0.904086  0  0  0.275916  0  0.899418  0  0.488774  0  0.332229  0.26442  0  0.907432  0
H  H28  1  0.70235362  0.18974116  0.66153627  1  0  0.158066  0  0.926941  0  0  0.164588  0  0.989775  0  0  0.168113  0  0.987818  0  0.147608  0  0.128524  0.161722  0  0.992011  0
H  H29  1  0.20235799  0.81025852  0.83846382  1  0  0.158055  0  0.926992  0  0  0.164582  0  0.98979  0  0  0.168109  0  0.987842  0  0.147591  0  0.128517  0.161717  0  0.992025  0
H  H30  1  0.29764551  0.81025765  0.33846559  1  0  0.15811  0  0.92691  0  0  0.164619  0  0.989728  0  0  0.168146  0  0.987778  0  0.147593  0  0.128525  0.161754  0  0.991963  0
H  H31  1  0.79764564  0.18974202  0.16153451  1  0  0.15805  0  0.926931  0  0  0.164579  0  0.98976  0  0  0.168095  0  0.987807  0  0.147587  0  0.128509  0.161714  0  0.991995  0
H  H32  1  0.62490332  0.32681308  0.74720838  1  0  0.165551  0  0.92086  0  0  0.176513  0  0.973742  0  0  0.180015  0  0.972082  0  0.165941  0  0.132913  0.173948  0  0.975139  0
H  H33  1  0.12490319  0.67318833  0.75279163  1  0  0.165577  0  0.920856  0  0  0.176524  0  0.973734  0  0  0.18003  0  0.972088  0  0.165962  0  0.132905  0.173961  0  0.975127  0
H  H34  1  0.37509694  0.67318833  0.25279094  1  0  0.165598  0  0.920921  0  0  0.176545  0  0.973793  0  0  0.180052  0  0.972145  0  0.165951  0  0.132911  0.173982  0  0.975186  0
H  H35  1  0.87509707  0.32681221  0.24720945  1  0  0.165556  0  0.920934  0  0  0.17652  0  0.973814  0  0  0.180015  0  0.972164  0  0.16594  0  0.132905  0.173957  0  0.975207  0
H  H36  1  0.84518835  0.44103723  0.74604176  1  0  0.147053  0  0.957713  0  0  0.155017  0  1.02004  0  0  0.158439  0  1.018106  0  0.154671  0  0.125547  0.15246  0  1.02163  0
H  H37  1  0.34518934  0.55896158  0.75395803  1  0  0.147009  0  0.957744  0  0  0.154983  0  1.020076  0  0  0.158404  0  1.018145  0  0.154662  0  0.125532  0.152426  0  1.021665  0
H  H38  1  0.15480742  0.55896071  0.25395703  1  0  0.147009  0  0.957757  0  0  0.154972  0  1.020083  0  0  0.158392  0  1.018154  0  0.154746  0  0.125535  0.152417  0  1.021673  0
H  H39  1  0.65481204  0.44103723  0.24604107  1  0  0.147029  0  0.957733  0  0  0.154995  0  1.020047  0  0  0.158416  0  1.018119  0  0.154674  0  0.125534  0.15244  0  1.021636  0
H  H40  1  0.88639719  0.30873619  0.64150841  1  0  0.149095  0  0.911427  0  0  0.162311  0  0.965426  0  0  0.164488  0  0.96504  0  0.114716  0  0.132877  0.160583  0  0.966121  0
H  H41  1  0.38639706  0.69126176  0.85849107  1  0  0.149118  0  0.911408  0  0  0.162332  0  0.96542  0  0  0.16451  0  0.965033  0  0.114734  0  0.132884  0.160602  0  0.966116  0
H  H42  1  0.11360082  0.69126003  0.35849184  1  0  0.14912  0  0.911404  0  0  0.162316  0  0.965419  0  0  0.164492  0  0.965036  0  0.114738  0  0.132906  0.160589  0  0.966114  0
H  H43  1  0.61360319  0.30873619  0.14150772  1  0  0.14909  0  0.911423  0  0  0.162303  0  0.965416  0  0  0.16448  0  0.965029  0  0.114713  0  0.132878  0.160575  0  0.966111  0
H  H44  1  0.95920686  0.39620723  0.91342184  1  0  0.101914  0  0.944415  0  0  0.11584  0  1.003646  0  0  0.117507  0  1.002717  0  0.105273  0  0.119715  0.114452  0  1.004618  0
H  H45  1  0.45920561  0.60379072  0.58657902  1  0  0.101911  0  0.944435  0  0  0.115856  0  1.003664  0  0  0.117524  0  1.002731  0  0.105298  0  0.119722  0.114471  0  1.004635  0
H  H46  1  0.04079340  0.60379331  0.08658062  1  0  0.101923  0  0.944451  0  0  0.115858  0  1.003678  0  0  0.117525  0  1.002747  0  0.105277  0  0.11972  0.114473  0  1.004647  0
H  H47  1  0.54079353  0.39620636  0.41342085  1  0  0.101909  0  0.944431  0  0  0.115842  0  1.003665  0  0  0.117509  0  1.002736  0  0.105287  0  0.119716  0.114454  0  1.004635  0
H  H48  1  0.77319273  0.44248961  0.89928988  1  0  0.123799  0  0.920264  0  0  0.138294  0  0.974919  0  0  0.140524  0  0.97392  0  0.145684  0  0.123972  0.136592  0  0.975796  0
H  H49  1  0.27319372  0.55751006  0.60071159  1  0  0.123802  0  0.920348  0  0  0.138309  0  0.975009  0  0  0.14054  0  0.974008  0  0.145666  0  0.123999  0.136604  0  0.975891  0
H  H50  1  0.22680528  0.55751093  0.10071189  1  0  0.123775  0  0.920287  0  0  0.138319  0  0.974898  0  0  0.14055  0  0.973897  0  0.145705  0  0.123992  0.136615  0  0.975778  0
H  H51  1  0.72680541  0.44248961  0.39928919  1  0  0.123768  0  0.920292  0  0  0.138321  0  0.974893  0  0  0.14055  0  0.973895  0  0.1457  0  0.123985  0.136615  0  0.975777  0
H  H52  1  0.85049931  0.22640042  0.94075265  1  0  0.076677  0  0.95144  0  0  0.085093  0  1.020371  0  0  0.086674  0  1.019068  0  0.104085  0  0.112896  0.083735  0  1.021599  0
H  H53  1  0.35050255  0.77359666  0.55924653  1  0  0.076712  0  0.951444  0  0  0.085134  0  1.020361  0  0  0.086719  0  1.019053  0  0.104126  0  0.112915  0.083777  0  1.021587  0
H  H54  1  0.14949645  0.77359839  0.05924783  1  0  0.076687  0  0.951457  0  0  0.08514  0  1.020336  0  0  0.086727  0  1.019033  0  0.104087  0  0.112918  0.083782  0  1.021562  0
H  H55  1  0.64949882  0.22640042  0.44075265  1  0  0.076676  0  0.951376  0  0  0.085104  0  1.02032  0  0  0.086684  0  1.019019  0  0.104077  0  0.112913  0.083747  0  1.021547  0
H  H56  1  0.78785684  0.36313997  0.03116938  1  0  0.093621  0  0.927628  0  0  0.107675  0  0.985256  0  0  0.10841  0  0.984883  0  0.103352  0  0.115797  0.107003  0  0.985702  0
H  H57  1  0.28785783  0.63685884  0.46883109  1  0  0.093656  0  0.92757  0  0  0.107716  0  0.98519  0  0  0.108452  0  0.984818  0  0.103358  0  0.115793  0.107043  0  0.985637  0
H  H58  1  0.21214229  0.63685970  0.96883209  1  0  0.093692  0  0.927524  0  0  0.107687  0  0.985218  0  0  0.108427  0  0.984844  0  0.103401  0  0.115792  0.107014  0  0.985665  0
H  H59  1  0.71214242  0.36313997  0.53116870  1  0  0.093601  0  0.927553  0  0  0.107676  0  0.985183  0  0  0.108412  0  0.984805  0  0.103382  0  0.115797  0.107003  0  0.985629  0
C  C60  1  0.69127919  0.25075770  0.74056187  1  0  -0.35731  0  3.456682  0  0  -0.393714  0  3.698992  0  0  -0.399553  0  3.703804  0  -0.359182  0  -0.064187  -0.389977  0  3.697085  0
C  C61  1  0.19128131  0.74924370  0.75943952  1  0  -0.35727  0  3.456737  0  0  -0.393661  0  3.699053  0  0  -0.399543  0  3.703904  0  -0.359258  0  -0.064172  -0.389919  0  3.697146  0
C  C62  1  0.30871995  0.74924197  0.25943960  1  0  -0.357354  0  3.456693  0  0  -0.393715  0  3.698987  0  0  -0.399586  0  3.703819  0  -0.359198  0  -0.064162  -0.389974  0  3.697081  0
C  C63  1  0.80872120  0.25075770  0.24055980  1  0  -0.35717  0  3.456622  0  0  -0.393597  0  3.698981  0  0  -0.399416  0  3.703753  0  -0.359191  0  -0.064122  -0.389857  0  3.697074  0
C  C64  1  0.90951057  0.36028195  0.72159286  1  0  -0.345684  0  3.480795  0  0  -0.384906  0  3.72948  0  0  -0.390019  0  3.735051  0  -0.333059  0  -0.067157  -0.38148  0  3.726466  0
C  C65  1  0.40950932  0.63971773  0.77840585  1  0  -0.345607  0  3.480831  0  0  -0.384897  0  3.729626  0  0  -0.390005  0  3.735195  0  -0.333069  0  -0.067147  -0.381467  0  3.726607  0
C  C66  1  0.09048856  0.63971686  0.27840624  1  0  -0.345645  0  3.480857  0  0  -0.384835  0  3.729513  0  0  -0.389947  0  3.735083  0  -0.333255  0  -0.06715  -0.381413  0  3.726509  0
C  C67  1  0.59048869  0.36028195  0.22159286  1  0  -0.345663  0  3.480825  0  0  -0.38485  0  3.729482  0  0  -0.389964  0  3.735058  0  -0.333177  0  -0.067135  -0.381424  0  3.726468  0
C  C68  1  0.84393527  0.36771697  0.89073195  1  0  -0.067835  0  3.529431  0  0  -0.130444  0  3.788497  0  0  -0.128934  0  3.798024  0  0.190199  0  -0.065227  -0.131385  0  3.782288  0
C  C69  1  0.34393627  0.63228011  0.60926792  1  0  -0.067724  0  3.529414  0  0  -0.130405  0  3.788567  0  0  -0.128896  0  3.798101  0  0.190085  0  -0.06524  -0.131355  0  3.782369  0
C  C70  1  0.15606162  0.63228270  0.10926883  1  0  -0.067838  0  3.529443  0  0  -0.130503  0  3.788554  0  0  -0.128988  0  3.798087  0  0.19016  0  -0.065251  -0.131451  0  3.782352  0
C  C71  1  0.65606399  0.36771611  0.39073165  1  0  -0.067793  0  3.529352  0  0  -0.130446  0  3.788481  0  0  -0.128937  0  3.798014  0  0.190177  0  -0.065205  -0.131386  0  3.782269  0
C  C72  1  0.78396176  0.30380605  0.95151474  1  0  0.092805  0  3.584242  0  0  0.033801  0  3.856119  0  0  0.040986  0  3.860482  0  0.366452  0  -0.058866  0.028911  0  3.85364  0
C  C73  1  0.28396163  0.69619276  0.54848574  1  0  0.09264  0  3.584289  0  0  0.033635  0  3.856206  0  0  0.040815  0  3.86058  0  0.366449  0  -0.058907  0.028748  0  3.853723  0
C  C74  1  0.21603850  0.69619363  0.04848811  1  0  0.092705  0  3.584354  0  0  0.033715  0  3.856246  0  0  0.04088  0  3.860636  0  0.366473  0  -0.058883  0.028827  0  3.853763  0
C  C75  1  0.71603975  0.30380605  0.45151336  1  0  0.092829  0  3.584105  0  0  0.033755  0  3.856107  0  0  0.040938  0  3.860478  0  0.366467  0  -0.058901  0.028867  0  3.853625  0
C  C76  1  0.98083474  0.94939909  0.01504179  1  0  0.568424  0  3.921986  0  0  0.521703  0  4.228375  0  0  0.551844  0  4.217752  0  1.592084  0  0.219393  0.501599  0  4.229066  0
C  C77  1  0.48084247  0.05059972  0.48494698  1  0  0.568031  0  3.922513  0  0  0.52146  0  4.228639  0  0  0.551601  0  4.218021  0  1.591848  0  0.219273  0.501358  0  4.229327  0
C  C78  1  0.01916777  0.05060232  0.98494927  1  0  0.568112  0  3.922282  0  0  0.521417  0  4.228624  0  0  0.551558  0  4.218002  0  1.613292  0  0.219246  0.501314  0  4.229314  0
C  C79  1  0.51917800  0.94939736  0.51504394  1  0  0.568358  0  3.922145  0  0  0.521657  0  4.228391  0  0  0.551799  0  4.21777  0  1.613391  0  0.219353  0.501554  0  4.229085  0
C  C80  1  0.55845671  0.03888371  0.03892069  1  0  0.564854  0  3.928834  0  0  0.524644  0  4.22881  0  0  0.555236  0  4.217624  0  1.59482  0  0.222888  0.504528  0  4.228654  0
C  C81  1  0.05845995  0.96112029  0.46108436  1  0  0.564882  0  3.929012  0  0  0.524706  0  4.228927  0  0  0.55529  0  4.217741  0  1.594447  0  0.222763  0.50459  0  4.228774  0
C  C82  1  0.44154018  0.96111510  0.96108047  1  0  0.564709  0  3.92917  0  0  0.524542  0  4.229091  0  0  0.555119  0  4.217928  0  1.611434  0  0.222773  0.504425  0  4.228936  0
C  C83  1  0.94154031  0.03888458  0.53892307  1  0  0.564401  0  3.928918  0  0  0.52422  0  4.228897  0  0  0.554813  0  4.217709  0  1.611441  0  0.222691  0.504106  0  4.228732  0
N  N84  1  0.84703652  0.29379256  0.77897772  1  0  0.002382  0  3.364182  0  0  0.083032  0  3.57235  0  0  0.072969  0  3.591764  0  -0.966734  0  -0.331826  0.089693  0  3.559847  0
N  N85  1  0.34703751  0.70620711  0.72102237  1  0  0.0023  0  3.364328  0  0  0.082999  0  3.572485  0  0  0.072944  0  3.591901  0  -0.966562  0  -0.331801  0.089659  0  3.55998  0
N  N86  1  0.15296149  0.70620884  0.22102505  1  0  0.002532  0  3.364124  0  0  0.083146  0  3.57235  0  0  0.073091  0  3.591769  0  -0.966668  0  -0.331815  0.089809  0  3.559845  0
N  N87  1  0.65296162  0.29379083  0.27897573  1  0  0.002451  0  3.364076  0  0  0.083087  0  3.57231  0  0  0.073014  0  3.591727  0  -0.966748  0  -0.331853  0.089749  0  3.559806  0
O  O88  1  0.43535229  0.17255145  0.79521051  1  0  -0.93026  0  1.948536  0  0  -0.870653  0  2.21819  0  0  -0.894185  0  2.193936  0  -1.452718  0  -0.448233  -0.84408  0  2.236751  0
O  O89  1  0.93535241  0.82745255  0.70478972  1  0  -0.930277  0  1.948477  0  0  -0.870658  0  2.21812  0  0  -0.894196  0  2.193844  0  -1.452671  0  -0.448252  -0.844089  0  2.236706  0
O  O90  1  0.56464909  0.82745515  0.20479408  1  0  -0.930283  0  1.948432  0  0  -0.870669  0  2.218063  0  0  -0.894207  0  2.193794  0  -1.452504  0  -0.44824  -0.844098  0  2.23665  0
O  O91  1  0.06464672  0.17254712  0.29520624  1  0  -0.930248  0  1.948509  0  0  -0.870623  0  2.218128  0  0  -0.894166  0  2.193856  0  -1.452665  0  -0.448256  -0.844054  0  2.236715  0
O  O92  1  0.68829808  0.06899427  0.79461694  1  0  -0.940847  0  1.976653  0  0  -0.883488  0  2.256746  0  0  -0.907305  0  2.234926  0  -1.46961  0  -0.457142  -0.856529  0  2.273839  0
O  O93  1  0.18830582  0.93100368  0.70538047  1  0  -0.940706  0  1.976654  0  0  -0.883347  0  2.256764  0  0  -0.907173  0  2.234927  0  -1.469455  0  -0.457012  -0.856383  0  2.273861  0
O  O94  1  0.31168645  0.93100627  0.20538414  1  0  -0.940785  0  1.976645  0  0  -0.883423  0  2.256736  0  0  -0.907247  0  2.234898  0  -1.469455  0  -0.457046  -0.856456  0  2.273831  0
O  O95  1  0.81169219  0.06899427  0.29461557  1  0  -0.940694  0  1.976665  0  0  -0.883341  0  2.256769  0  0  -0.90717  0  2.234935  0  -1.469459  0  -0.457036  -0.856375  0  2.273866  0
O  O96  1  0.62732525  0.27149961  0.92778117  1  0  -0.485541  0  2.128814  0  0  -0.409292  0  2.372684  0  0  -0.42788  0  2.361682  0  -1.288331  0  -0.218184  -0.396827  0  2.380776  0
O  O97  1  0.12732737  0.72850093  0.57221991  1  0  -0.485439  0  2.129098  0  0  -0.40916  0  2.372945  0  0  -0.427764  0  2.361943  0  -1.288347  0  -0.218126  -0.396689  0  2.381042  0
O  O98  1  0.37267276  0.72850180  0.07222091  1  0  -0.485466  0  2.128981  0  0  -0.409201  0  2.372826  0  0  -0.427799  0  2.36183  0  -1.2883  0  -0.218135  -0.39673  0  2.380924  0
O  O99  1  0.87267401  0.27149874  0.42777949  1  0  -0.48555  0  2.12894  0  0  -0.40927  0  2.372813  0  0  -0.427872  0  2.361802  0  -1.288318  0  -0.218171  -0.396801  0  2.380912  0
O  O100  1  0.19794191  0.27673182  0.68811309  1  0  -0.963325  0  2.023891  0  0  -0.903378  0  2.301104  0  0  -0.927055  0  2.277221  0  -1.47343  0  -0.482906  -0.876698  0  2.319742  0
O  O101  1  0.69794204  0.72326699  0.81188670  1  0  -0.963375  0  2.023964  0  0  -0.90343  0  2.301169  0  0  -0.927102  0  2.277293  0  -1.473575  0  -0.482944  -0.876751  0  2.319809  0
O  O102  1  0.80205947  0.72327045  0.31188723  1  0  -0.963303  0  2.023933  0  0  -0.903354  0  2.301132  0  0  -0.92703  0  2.277242  0  -1.47345  0  -0.48291  -0.876672  0  2.319773  0
O  O103  1  0.30206159  0.27673009  0.18811592  1  0  -0.963279  0  2.023971  0  0  -0.903326  0  2.301173  0  0  -0.927002  0  2.277288  0  -1.473545  0  -0.482907  -0.876645  0  2.319813  0
O  O104  1  0.15512293  0.45562944  0.84589940  1  0  -0.728029  0  1.948043  0  0  -0.665497  0  2.157742  0  0  -0.684812  0  2.136985  0  -1.372067  0  -0.387676  -0.651981  0  2.172274  0
O  O105  1  0.65512755  0.54436764  0.65410047  1  0  -0.727964  0  1.947958  0  0  -0.665477  0  2.157686  0  0  -0.684788  0  2.136932  0  -1.372013  0  -0.387677  -0.651964  0  2.172221  0
O  O106  1  0.84486946  0.54436937  0.15410039  1  0  -0.728022  0  1.947944  0  0  -0.665536  0  2.157665  0  0  -0.684851  0  2.136902  0  -1.371982  0  -0.387707  -0.652026  0  2.17221  0
O  O107  1  0.34487720  0.45562857  0.34590117  1  0  -0.727952  0  1.948002  0  0  -0.665471  0  2.157741  0  0  -0.684784  0  2.136981  0  -1.371999  0  -0.387671  -0.651954  0  2.172274  0
O  O108  1  0.12853441  0.47172943  0.67593714  1  0  -0.809754  0  1.820362  0  0  -0.751387  0  2.050075  0  0  -0.776533  0  2.031984  0  -1.452599  0  -0.380329  -0.733714  0  2.06256  0
O  O109  1  0.62853341  0.52826765  0.82406204  1  0  -0.809746  0  1.820304  0  0  -0.751379  0  2.050005  0  0  -0.776522  0  2.031925  0  -1.452603  0  -0.380348  -0.733707  0  2.06249  0
O  O110  1  0.87145687  0.52826938  0.32406333  1  0  -0.809672  0  1.820196  0  0  -0.751355  0  2.049929  0  0  -0.776502  0  2.031838  0  -1.452539  0  -0.380336  -0.733681  0  2.062413  0
O  O111  1  0.37146347  0.47172856  0.17593822  1  0  -0.809685  0  1.820329  0  0  -0.751318  0  2.050042  0  0  -0.776466  0  2.031953  0  -1.452572  0  -0.380303  -0.733645  0  2.062526  0
O  O112  1  0.03265628  0.95816186  0.09994594  1  0  -0.683882  0  2.118846  0  0  -0.632338  0  2.355612  0  0  -0.657  0  2.34535  0  -1.190339  0  -0.355764  -0.608239  0  2.363237  0
O  O113  1  0.53265977  0.04183781  0.40005071  1  0  -0.683691  0  2.119436  0  0  -0.632183  0  2.356092  0  0  -0.656843  0  2.345833  0  -1.189913  0  -0.355677  -0.608088  0  2.363719  0
O  O114  1  0.96733500  0.04184214  0.90004672  1  0  -0.683739  0  2.119099  0  0  -0.632137  0  2.355761  0  0  -0.656797  0  2.345502  0  -1.189346  0  -0.355629  -0.608039  0  2.363388  0
O  O115  1  0.46734722  0.95816099  0.59994976  1  0  -0.683817  0  2.118696  0  0  -0.632268  0  2.355402  0  0  -0.656933  0  2.345139  0  -1.190269  0  -0.355732  -0.608172  0  2.36303  0
O  O116  1  0.90297572  0.86733597  0.95572912  1  0  -0.632241  0  2.007406  0  0  -0.596004  0  2.238939  0  0  -0.616869  0  2.228899  0  -1.172892  0  -0.356269  -0.574551  0  2.246799  0
O  O117  1  0.40297671  0.13266370  0.54426340  1  0  -0.632138  0  2.007252  0  0  -0.595946  0  2.238695  0  0  -0.616814  0  2.228659  0  -1.172822  0  -0.356242  -0.574491  0  2.246553  0
O  O118  1  0.09703015  0.13266024  0.04425805  1  0  -0.632158  0  2.00738  0  0  -0.595934  0  2.238906  0  0  -0.616797  0  2.228867  0  -1.172897  0  -0.356266  -0.57448  0  2.246766  0
O  O119  1  0.59703365  0.86734030  0.45573821  1  0  -0.632226  0  2.007773  0  0  -0.59601  0  2.239294  0  0  -0.616873  0  2.229253  0  -1.172409  0  -0.356264  -0.574557  0  2.247156  0
O  O120  1  0.51430157  0.08914673  0.12948758  1  0  -0.66995  0  2.058414  0  0  -0.629635  0  2.301232  0  0  -0.652274  0  2.291303  0  -1.199475  0  -0.369334  -0.606435  0  2.308353  0
O  O121  1  0.01431267  0.91085554  0.37052238  1  0  -0.66994  0  2.058691  0  0  -0.629634  0  2.301488  0  0  -0.652272  0  2.291558  0  -1.199508  0  -0.369253  -0.606435  0  2.308614  0
O  O122  1  0.48569420  0.91085381  0.87051144  1  0  -0.669951  0  2.058441  0  0  -0.629676  0  2.301271  0  0  -0.652309  0  2.291346  0  -1.199437  0  -0.369348  -0.606477  0  2.308395  0
O  O123  1  0.98569657  0.08914847  0.62949783  1  0  -0.669687  0  2.058045  0  0  -0.629415  0  2.3009  0  0  -0.65206  0  2.290979  0  -1.199476  0  -0.369167  -0.606214  0  2.308015  0
O  O124  1  0.68741217  0.04615515  0.00588370  1  0  -0.662602  0  2.056284  0  0  -0.62327  0  2.296882  0  0  -0.646742  0  2.288389  0  -1.183972  0  -0.357697  -0.600162  0  2.303397  0
O  O125  1  0.18742103  0.95385145  0.49412364  1  0  -0.662624  0  2.056341  0  0  -0.623293  0  2.296937  0  0  -0.646765  0  2.288439  0  -1.183391  0  -0.357674  -0.600183  0  2.303454  0
O  O126  1  0.31258696  0.95384366  0.99411609  1  0  -0.662483  0  2.056531  0  0  -0.623144  0  2.297094  0  0  -0.646616  0  2.288618  0  -1.183877  0  -0.357604  -0.600035  0  2.303607  0
O  O127  1  0.81259270  0.04615601  0.50588814  1  0  -0.662388  0  2.056533  0  0  -0.623051  0  2.297113  0  0  -0.646521  0  2.288615  0  -1.183938  0  -0.357639  -0.599945  0  2.303625  0
O  O128  1  0.62348856  0.82282968  0.66257968  1  0  -0.892936  0  1.820343  0  0  -0.858611  0  2.011952  0  0  -0.875388  0  1.980643  0  -1.253366  0  -0.620918  -0.839513  0  2.03635  0
O  O129  1  0.12349292  0.17717259  0.83741788  1  0  -0.893022  0  1.82027  0  0  -0.858704  0  2.0119  0  0  -0.875477  0  1.980587  0  -1.253384  0  -0.620906  -0.839606  0  2.036303  0
O  O130  1  0.37650496  0.17717259  0.33741857  1  0  -0.892992  0  1.820218  0  0  -0.858679  0  2.01183  0  0  -0.875453  0  1.980528  0  -1.253401  0  -0.620901  -0.839581  0  2.036235  0
O  O131  1  0.87651071  0.82283141  0.16258029  1  0  -0.892837  0  1.820358  0  0  -0.858484  0  2.012031  0  0  -0.87526  0  1.980744  0  -1.253339  0  -0.62088  -0.839383  0  2.036427  0
