# generated using pymatgen
data_Zn3H10C12(NO3)4
_symmetry_space_group_name_H-M   'P 1'
_cell_length_a   5.16136077
_cell_length_b   9.96723925
_cell_length_c   17.51856573
_cell_angle_alpha   89.99973166
_cell_angle_beta   89.99999608
_cell_angle_gamma   95.16023694
_symmetry_Int_Tables_number   1
_chemical_formula_structural   Zn3H10C12(NO3)4
_chemical_formula_sum   'Zn6 H20 C24 N8 O24'
_cell_volume   897.58151349
_cell_formula_units_Z   2
loop_
 _symmetry_equiv_pos_site_id
 _symmetry_equiv_pos_as_xyz
  1  'x, y, z'
loop_
 _atom_site_type_symbol
 _atom_site_label
 _atom_site_symmetry_multiplicity
 _atom_site_fract_x
 _atom_site_fract_y
 _atom_site_fract_z
 _atom_site_occupancy
 _atom_site_pbe_bader_spin_density
 _atom_site_pbe_cm5_charge
 _atom_site_pbe_ddec_charge
 _atom_site_pbe_ddec_spin_density
 _atom_site_pbe_ddec_sum_bond_order
 _atom_site_pbe_magmom
Zn  Zn0  1  0.76038947  0.59452523  0.76862888  1  0  0.700991  0.923909  0  2.300083  0
Zn  Zn1  1  0.73962102  0.90547564  0.26863091  1  0  0.701019  0.923974  0  2.300072  0
Zn  Zn2  1  0.23961504  0.40547576  0.23136942  1  0  0.701029  0.923957  0  2.300062  0
Zn  Zn3  1  0.26038332  0.09452435  0.73137195  1  0  0.700998  0.923919  0  2.300182  0
Zn  Zn4  1  0.00000194  1.00000000  0.00000057  1  0  0.705803  0.818135  0  2.281511  0
Zn  Zn5  1  0.50000006  0.49999899  0.49999915  1  0  0.705795  0.818129  0  2.281458  0
H  H6  1  0.28495296  0.62813489  0.83973056  1  0  0.295322  0.398948  0  0.937851  0
H  H7  1  0.21505629  0.87187177  0.33973154  1  0  0.295293  0.39887  0  0.93797  0
H  H8  1  0.71504751  0.37186510  0.16027002  1  0  0.295307  0.39891  0  0.937905  0
H  H9  1  0.78494418  0.12812822  0.66026961  1  0  0.295265  0.39884  0  0.938019  0
H  H10  1  0.44126550  0.51942846  0.88471498  1  0  0.336745  0.422969  0  0.845686  0
H  H11  1  0.05874334  0.98057583  0.38471510  1  0  0.336728  0.422965  0  0.845665  0
H  H12  1  0.55874131  0.48057455  0.11528503  1  0  0.336759  0.423006  0  0.845648  0
H  H13  1  0.94126946  0.01942819  0.61528719  1  0  0.33677  0.423018  0  0.84564  0
H  H14  1  0.12611468  0.20235516  0.89006517  1  0  0.296175  0.340054  0  0.985671  0
H  H15  1  0.37388490  0.29765171  0.39006463  1  0  0.296187  0.340103  0  0.985626  0
H  H16  1  0.87389248  0.79764986  0.10993598  1  0  0.29617  0.340073  0  0.985619  0
H  H17  1  0.62611222  0.70235130  0.60993367  1  0  0.296221  0.340114  0  0.985574  0
H  H18  1  0.58680316  0.20553083  0.98030256  1  0  0.11164  0.111084  0  1.004702  0
H  H19  1  0.91319958  0.29446994  0.48030145  1  0  0.111626  0.111072  0  1.004734  0
H  H20  1  0.41320347  0.79447118  0.01969745  1  0  0.111643  0.111102  0  1.004688  0
H  H21  1  0.08680265  0.70552905  0.51969741  1  0  0.111631  0.111086  0  1.004732  0
H  H22  1  0.54490050  0.28249465  0.88968089  1  0  0.102318  0.086853  0  1.01449  0
H  H23  1  0.95509830  0.21750585  0.38968055  1  0  0.102333  0.086879  0  1.014472  0
H  H24  1  0.45510137  0.71750232  0.11031912  1  0  0.102315  0.086871  0  1.014446  0
H  H25  1  0.04490639  0.78249616  0.61031946  1  0  0.102326  0.086899  0  1.01448  0
C  C26  1  0.59410335  0.91289109  0.80034567  1  0  0.073205  -0.007552  0  3.998683  0
C  C27  1  0.90589372  0.58711054  0.30034512  1  0  0.073276  -0.007492  0  3.998699  0
C  C28  1  0.40590116  0.08710991  0.19965434  1  0  0.073225  -0.00756  0  3.998759  0
C  C29  1  0.09410058  0.41288744  0.69965204  1  0  0.073284  -0.007459  0  3.998827  0
C  C30  1  0.51284072  0.84801970  0.72690767  1  0  0.217907  0.584844  0  4.193296  0
C  C31  1  0.98716367  0.65197950  0.22690694  1  0  0.217789  0.584673  0  4.193337  0
C  C32  1  0.48715922  0.15197727  0.27309349  1  0  0.21792  0.584876  0  4.193322  0
C  C33  1  0.01284402  0.34801747  0.77309022  1  0  0.21784  0.584723  0  4.193296  0
C  C34  1  0.77215818  0.89389679  0.85930542  1  0  0.069801  -0.018412  0  3.974885  0
C  C35  1  0.72784552  0.60610939  0.35930426  1  0  0.069794  -0.018416  0  3.974861  0
C  C36  1  0.22784652  0.10610522  0.14069630  1  0  0.069814  -0.018447  0  3.97484  0
C  C37  1  0.27214667  0.39388758  0.64069175  1  0  0.069772  -0.018469  0  3.974878  0
C  C38  1  0.98829452  0.80891445  0.87389348  1  0  0.216078  0.572164  0  4.199793  0
C  C39  1  0.51169629  0.69108456  0.37389610  1  0  0.216026  0.572112  0  4.199818  0
C  C40  1  0.01170207  0.19108554  0.12610653  1  0  0.216066  0.572184  0  4.199743  0
C  C41  1  0.48829589  0.30891241  0.62610162  1  0  0.21609  0.572308  0  4.19962  0
C  C42  1  0.56652153  0.07136406  0.88582697  1  0  0.217698  0.342685  0  3.95881  0
C  C43  1  0.93347340  0.42863647  0.38582493  1  0  0.21767  0.342621  0  3.958637  0
C  C44  1  0.43347858  0.92863391  0.11417475  1  0  0.217745  0.34274  0  3.958705  0
C  C45  1  0.06652143  0.57136453  0.61417394  1  0  0.217718  0.342642  0  3.958889  0
C  C46  1  0.48627910  0.19375746  0.92532376  1  0  -0.074731  -0.037173  0  3.910862  0
C  C47  1  0.01372131  0.30624308  0.42532322  1  0  -0.074701  -0.037158  0  3.910904  0
C  C48  1  0.51372330  0.80624253  0.07467739  1  0  -0.074742  -0.037223  0  3.910813  0
C  C49  1  0.98627933  0.69375792  0.57467622  1  0  -0.074729  -0.037234  0  3.910958  0
N  N50  1  0.74629117  0.99393769  0.91242208  1  0  -0.353061  -0.35175  0  3.518275  0
N  N51  1  0.75370612  0.50606503  0.41242005  1  0  -0.35302  -0.351728  0  3.518263  0
N  N52  1  0.25370929  0.00606230  0.08757964  1  0  -0.35306  -0.351746  0  3.518166  0
N  N53  1  0.24628466  0.49393497  0.58757768  1  0  -0.353074  -0.351742  0  3.518384  0
N  N54  1  0.47104473  0.02542112  0.81821819  1  0  -0.361295  -0.390855  0  3.532699  0
N  N55  1  0.02894982  0.47457929  0.31821605  1  0  -0.361422  -0.390938  0  3.532759  0
N  N56  1  0.52895979  0.97457987  0.18178239  1  0  -0.361357  -0.390931  0  3.53273  0
N  N57  1  0.97104624  0.52541768  0.68178168  1  0  -0.361368  -0.390921  0  3.532861  0
O  O58  1  0.13841872  0.84135977  0.92893906  1  0  -0.296228  -0.507526  0  2.30266  0
O  O59  1  0.36158443  0.65864517  0.42893718  1  0  -0.29619  -0.507452  0  2.302814  0
O  O60  1  0.86158404  0.15864224  0.07106323  1  0  -0.296231  -0.507491  0  2.302765  0
O  O61  1  0.63841181  0.34135281  0.57106168  1  0  -0.296256  -0.507559  0  2.302783  0
O  O62  1  0.59301950  0.73513870  0.70634221  1  0  -0.311488  -0.546749  0  2.383608  0
O  O63  1  0.90698597  0.76486671  0.20634403  1  0  -0.31144  -0.546703  0  2.383495  0
O  O64  1  0.40697516  0.26486129  0.29365780  1  0  -0.311527  -0.546806  0  2.383535  0
O  O65  1  0.09301643  0.23513328  0.79365426  1  0  -0.311403  -0.546632  0  2.383587  0
O  O66  1  0.36014229  0.90899984  0.68512734  1  0  -0.312454  -0.535589  0  2.256923  0
O  O67  1  0.13983667  0.59100005  0.18512280  1  0  -0.312399  -0.535461  0  2.257052  0
O  O68  1  0.63984232  0.09099814  0.31487495  1  0  -0.312446  -0.535551  0  2.257056  0
O  O69  1  0.86016010  0.40900095  0.81487607  1  0  -0.312484  -0.535577  0  2.256773  0
O  O70  1  0.02591158  0.70807691  0.82996368  1  0  -0.316647  -0.562338  0  2.410677  0
O  O71  1  0.47407971  0.79192682  0.32996200  1  0  -0.316609  -0.562338  0  2.410655  0
O  O72  1  0.97408308  0.29192308  0.17003747  1  0  -0.316629  -0.562348  0  2.410657  0
O  O73  1  0.52591494  0.20807317  0.67003800  1  0  -0.316596  -0.562378  0  2.410607  0
O  O74  1  0.43390930  0.56858445  0.83711456  1  0  -0.564029  -0.759771  0  2.159072  0
O  O75  1  0.06610294  0.93141720  0.33711538  1  0  -0.564026  -0.759749  0  2.159165  0
O  O76  1  0.56609504  0.43141554  0.16288545  1  0  -0.564051  -0.759803  0  2.159077  0
O  O77  1  0.93389541  0.06858178  0.66288805  1  0  -0.564034  -0.759765  0  2.159175  0
O  O78  1  0.21066053  0.18503429  0.93982269  1  0  -0.400852  -0.474882  0  2.37375  0
O  O79  1  0.28933828  0.31496815  0.43982096  1  0  -0.400852  -0.474897  0  2.373815  0
O  O80  1  0.78934205  0.81496671  0.06017903  1  0  -0.400829  -0.474869  0  2.373718  0
O  O81  1  0.71065885  0.68503487  0.56017676  1  0  -0.400864  -0.474867  0  2.373705  0
