# generated using pymatgen
data_ZnH13C18N2O5F
_symmetry_space_group_name_H-M   'P 1'
_cell_length_a   8.98249497
_cell_length_b   10.98840566
_cell_length_c   10.98292016
_cell_angle_alpha   103.59328773
_cell_angle_beta   111.03443059
_cell_angle_gamma   108.72050343
_symmetry_Int_Tables_number   1
_chemical_formula_structural   ZnH13C18N2O5F
_chemical_formula_sum   'Zn2 H26 C36 N4 O10 F2'
_cell_volume   879.86681093
_cell_formula_units_Z   2
loop_
 _symmetry_equiv_pos_site_id
 _symmetry_equiv_pos_as_xyz
  1  'x, y, z'
loop_
 _atom_site_type_symbol
 _atom_site_label
 _atom_site_symmetry_multiplicity
 _atom_site_fract_x
 _atom_site_fract_y
 _atom_site_fract_z
 _atom_site_occupancy
 _atom_site_hle17_bader_spin_density
 _atom_site_hle17_ddec_charge
 _atom_site_hle17_ddec_spin_density
 _atom_site_hle17_ddec_sum_bond_order
 _atom_site_hle17_magmom
 _atom_site_hse06_10hf_bader_spin_density
 _atom_site_hse06_10hf_ddec_charge
 _atom_site_hse06_10hf_ddec_spin_density
 _atom_site_hse06_10hf_ddec_sum_bond_order
 _atom_site_hse06_10hf_magmom
 _atom_site_hse06_bader_spin_density
 _atom_site_hse06_ddec_charge
 _atom_site_hse06_ddec_spin_density
 _atom_site_hse06_ddec_sum_bond_order
 _atom_site_hse06_magmom
 _atom_site_pbe_bader_spin_density
 _atom_site_pbe_cm5_charge
 _atom_site_pbe_ddec_charge
 _atom_site_pbe_ddec_spin_density
 _atom_site_pbe_ddec_sum_bond_order
 _atom_site_pbe_magmom
Zn  Zn0  1  0.17576478  0.36082518  0.98547526  1  0  1.029443  0  1.801637  0  0  0.847778  0  2.252506  0  0  0.896288  0  2.19873  0  0  0.684914  0.813971  0  2.289269  0
Zn  Zn1  1  0.82424206  0.63917932  0.01452412  1  0  1.029476  0  1.80162  0  0  0.847782  0  2.252489  0  0  0.896293  0  2.198714  0  0  0.684913  0.813972  0  2.289252  0
H  H2  1  0.63765864  0.42818454  0.33127666  1  0  0.102306  0  0.944772  0  0  0.113176  0  1.003386  0  0  0.117256  0  1.000002  0  0  0.105317  0.110163  0  1.005987  0
H  H3  1  0.36235721  0.57182540  0.66873659  1  0  0.102236  0  0.944759  0  0  0.113207  0  1.003285  0  0  0.117292  0  0.999894  0  0  0.105296  0.110192  0  1.005891  0
H  H4  1  0.65564762  0.27320018  0.46163690  1  0  0.096369  0  0.957889  0  0  0.105249  0  1.018661  0  0  0.108262  0  1.017231  0  0  0.099105  0.103102  0  1.019826  0
H  H5  1  0.34435931  0.72680020  0.53836431  1  0  0.096409  0  0.957841  0  0  0.105236  0  1.018672  0  0  0.108249  0  1.017244  0  0  0.099119  0.103088  0  1.019839  0
H  H6  1  0.86226454  0.16148646  0.46954662  1  0  0.112042  0  0.959807  0  0  0.120263  0  1.022599  0  0  0.123581  0  1.021221  0  0  0.100406  0.117859  0  1.023744  0
H  H7  1  0.13771917  0.83849585  0.53043282  1  0  0.111983  0  0.959803  0  0  0.120219  0  1.022604  0  0  0.123526  0  1.021239  0  0  0.100348  0.117814  0  1.023749  0
H  H8  1  0.82197233  0.34516698  0.86134326  1  0  0.106556  0  0.934489  0  0  0.112948  0  0.998902  0  0  0.115976  0  0.995943  0  0  0.126366  0.110668  0  1.001184  0
H  H9  1  0.17803279  0.65483870  0.13866589  1  0  0.106491  0  0.934607  0  0  0.112929  0  0.998942  0  0  0.115957  0  0.995986  0  0  0.126384  0.11065  0  1.001222  0
H  H10  1  0.52569720  0.20833269  0.65330763  1  0  0.11415  0  0.948301  0  0  0.125831  0  1.00381  0  0  0.129309  0  1.002072  0  0  0.114045  0.123319  0  1.005271  0
H  H11  1  0.47430109  0.79165856  0.34670995  1  0  0.114175  0  0.948212  0  0  0.125863  0  1.003734  0  0  0.129341  0  1.001997  0  0  0.114019  0.123347  0  1.005203  0
H  H12  1  0.70592115  0.90207689  0.52262306  1  0  0.113793  0  0.949789  0  0  0.124347  0  1.005597  0  0  0.128115  0  1.003528  0  0  0.11225  0.121652  0  1.007219  0
H  H13  1  0.29406935  0.09791536  0.47739428  1  0  0.113812  0  0.949759  0  0  0.12437  0  1.005571  0  0  0.128143  0  1.003496  0  0  0.112255  0.121673  0  1.007196  0
H  H14  1  0.99704366  0.05628869  0.73464655  1  0  0.079462  0  0.946553  0  0  0.084477  0  1.013033  0  0  0.087224  0  1.010983  0  0  0.113665  0.082379  0  1.014711  0
H  H15  1  0.00296314  0.94371789  0.26535237  1  0  0.079416  0  0.946553  0  0  0.084445  0  1.013038  0  0  0.087194  0  1.01099  0  0  0.113652  0.082368  0  1.014695  0
H  H16  1  0.13915783  0.11502472  0.05905844  1  0  0.087892  0  0.940067  0  0  0.095415  0  1.003903  0  0  0.098308  0  1.001636  0  0  0.11916  0.093206  0  1.00572  0
H  H17  1  0.86083529  0.88497443  0.94093390  1  0  0.087937  0  0.940079  0  0  0.095465  0  1.003911  0  0  0.09836  0  1.001647  0  0  0.119186  0.093259  0  1.00572  0
H  H18  1  0.26678951  0.94578057  0.06493755  1  0  0.113478  0  0.963745  0  0  0.121054  0  1.027607  0  0  0.124426  0  1.026563  0  0  0.108342  0.118591  0  1.028503  0
H  H19  1  0.73320657  0.05421962  0.93505407  1  0  0.113503  0  0.963623  0  0  0.121015  0  1.027567  0  0  0.124384  0  1.026525  0  0  0.108342  0.118552  0  1.028464  0
H  H20  1  0.61561918  0.17843359  0.92570542  1  0  0.107619  0  0.97298  0  0  0.116814  0  1.036514  0  0  0.119754  0  1.035997  0  0  0.109386  0.114663  0  1.037185  0
H  H21  1  0.38439185  0.82157628  0.07430458  1  0  0.107659  0  0.97277  0  0  0.116839  0  1.036328  0  0  0.11978  0  1.035807  0  0  0.10938  0.114687  0  1.036999  0
H  H22  1  0.46031975  0.32591200  0.91122162  1  0  0.100915  0  0.972339  0  0  0.108451  0  1.036254  0  0  0.111333  0  1.03352  0  0  0.120694  0.106348  0  1.038064  0
H  H23  1  0.53969182  0.67410098  0.08878741  1  0  0.100874  0  0.97229  0  0  0.108413  0  1.036231  0  0  0.111295  0  1.033493  0  0  0.120684  0.106301  0  1.03805  0
H  H24  1  0.52383285  0.53321817  0.19419046  1  0  0.42848  0  0.874365  0  0  0.396635  0  0.940067  0  0  0.407928  0  0.923477  0  0  0.287543  0.388656  0  0.951772  0
H  H25  1  0.47617166  0.46678430  0.80581233  1  0  0.428502  0  0.874339  0  0  0.396652  0  0.940054  0  0  0.407944  0  0.923464  0  0  0.287558  0.388672  0  0.951759  0
H  H26  1  0.36315173  0.52300241  0.24050647  1  0  0.414245  0  0.899687  0  0  0.381655  0  0.965565  0  0  0.394126  0  0.947626  0  0  0.281941  0.372893  0  0.978159  0
H  H27  1  0.63684736  0.47699891  0.75948992  1  0  0.414193  0  0.899757  0  0  0.381622  0  0.96562  0  0  0.394084  0  0.947685  0  0  0.281917  0.37286  0  0.978214  0
C  C28  1  0.80942911  0.49802035  0.18458173  1  0  0.638523  0  3.908171  0  0  0.586005  0  4.204476  0  0  0.619757  0  4.198594  0  0  0.201814  0.56319  0  4.207572  0
C  C29  1  0.19057424  0.50198217  0.81542437  1  0  0.638607  0  3.907796  0  0  0.586149  0  4.204053  0  0  0.6199  0  4.198171  0  0  0.201889  0.563334  0  4.207152  0
C  C30  1  0.83186558  0.40866013  0.26773904  1  0  -0.063324  0  3.7312  0  0  -0.047298  0  3.968761  0  0  -0.053798  0  3.992127  0  0  -0.014206  -0.043079  0  3.953089  0
C  C31  1  0.16813360  0.59133707  0.73225918  1  0  -0.06329  0  3.731107  0  0  -0.047323  0  3.968741  0  0  -0.053824  0  3.992112  0  0  -0.014159  -0.043099  0  3.953068  0
C  C32  1  0.72624025  0.37933910  0.33485724  1  0  -0.071728  0  3.727397  0  0  -0.10489  0  3.990003  0  0  -0.105258  0  4.009289  0  0  -0.088078  -0.104466  0  3.976862  0
C  C33  1  0.27376668  0.62066343  0.66514810  1  0  -0.071665  0  3.727413  0  0  -0.104908  0  3.990043  0  0  -0.105278  0  4.009332  0  0  -0.088101  -0.10448  0  3.976891  0
C  C34  1  0.73500224  0.29094941  0.40681994  1  0  -0.039574  0  3.764021  0  0  -0.056306  0  4.029755  0  0  -0.056718  0  4.048829  0  0  -0.091359  -0.056092  0  4.016717  0
C  C35  1  0.26500050  0.70904776  0.59317569  1  0  -0.039608  0  3.763918  0  0  -0.056298  0  4.029669  0  0  -0.05671  0  4.048744  0  0  -0.091353  -0.05608  0  4.016626  0
C  C36  1  0.85027768  0.22977082  0.41290221  1  0  -0.175523  0  3.769155  0  0  -0.202747  0  4.029202  0  0  -0.205471  0  4.046807  0  0  -0.103208  -0.200649  0  4.017273  0
C  C37  1  0.14971137  0.77021678  0.58708179  1  0  -0.17549  0  3.769054  0  0  -0.202717  0  4.029106  0  0  -0.205425  0  4.046705  0  0  -0.10315  -0.200618  0  4.017174  0
C  C38  1  0.95623883  0.26212916  0.34824856  1  0  0.279477  0  3.771913  0  0  0.263622  0  4.049915  0  0  0.272889  0  4.060636  0  0  0.093328  0.256941  0  4.04285  0
C  C39  1  0.04374310  0.73785209  0.65172920  1  0  0.27958  0  3.771825  0  0  0.263672  0  4.049885  0  0  0.272941  0  4.0606  0  0  0.093255  0.256994  0  4.042819  0
C  C40  1  0.95336045  0.35115032  0.27677358  1  0  -0.146271  0  3.691836  0  0  -0.142392  0  3.934765  0  0  -0.147346  0  3.952579  0  0  -0.013245  -0.139135  0  3.922988  0
C  C41  1  0.04663098  0.64884153  0.72321663  1  0  -0.146299  0  3.691769  0  0  -0.142362  0  3.934688  0  0  -0.147315  0  3.952502  0  0  -0.013258  -0.139113  0  3.922919  0
C  C42  1  0.08954119  0.38947961  0.22462953  1  0  0.699345  0  3.89591  0  0  0.640905  0  4.206441  0  0  0.677794  0  4.193586  0  0  0.21373  0.615627  0  4.214641  0
C  C43  1  0.91044779  0.61051427  0.77535860  1  0  0.699026  0  3.896071  0  0  0.640565  0  4.206656  0  0  0.677452  0  4.193806  0  0  0.213537  0.615291  0  4.214852  0
C  C44  1  0.79087874  0.24690786  0.78267104  1  0  0.146531  0  3.669586  0  0  0.11379  0  3.925323  0  0  0.121742  0  3.941032  0  0  0.055489  0.108453  0  3.915079  0
C  C45  1  0.20913047  0.75310089  0.21733362  1  0  0.146633  0  3.669769  0  0  0.11389  0  3.925495  0  0  0.121837  0  3.941208  0  0  0.055472  0.108551  0  3.91525  0
C  C46  1  0.62362969  0.16796519  0.66489669  1  0  -0.148039  0  3.681924  0  0  -0.1659  0  3.929707  0  0  -0.173366  0  3.949886  0  0  -0.073709  -0.16117  0  3.916452  0
C  C47  1  0.37637555  0.83203641  0.33511705  1  0  -0.148003  0  3.681937  0  0  -0.1659  0  3.929735  0  0  -0.173365  0  3.94991  0  0  -0.073617  -0.161172  0  3.91648  0
C  C48  1  0.58711608  0.04199197  0.56472635  1  0  0.088728  0  3.764281  0  0  0.100637  0  3.994966  0  0  0.103976  0  4.017918  0  0  0.013665  0.09859  0  3.979089  0
C  C49  1  0.41287921  0.95800032  0.43529240  1  0  0.088542  0  3.764593  0  0  0.100454  0  3.995299  0  0  0.103792  0  4.018252  0  0  0.013566  0.098406  0  3.979419  0
C  C50  1  0.72392175  0.99998733  0.59260870  1  0  -0.159832  0  3.708497  0  0  -0.177841  0  3.954433  0  0  -0.185417  0  3.975405  0  0  -0.078598  -0.172806  0  3.940144  0
C  C51  1  0.27607417  0.00000395  0.40741091  1  0  -0.159811  0  3.708469  0  0  -0.177792  0  3.954394  0  0  -0.185373  0  3.975371  0  0  -0.078626  -0.172758  0  3.94011  0
C  C52  1  0.88827413  0.08575842  0.71238052  1  0  0.126087  0  3.727442  0  0  0.095372  0  3.982162  0  0  0.10175  0  4.000771  0  0  0.048509  0.091305  0  3.969556  0
C  C53  1  0.11173215  0.91424722  0.28762532  1  0  0.126165  0  3.727291  0  0  0.095404  0  3.982052  0  0  0.101778  0  4.000666  0  0  0.04853  0.091317  0  3.969438  0
C  C54  1  0.24261954  0.12177147  0.02730834  1  0  0.122273  0  3.704681  0  0  0.090864  0  3.957562  0  0  0.097394  0  3.975405  0  0  0.047373  0.086673  0  3.945355  0
C  C55  1  0.75738014  0.87823091  0.97268937  1  0  0.122159  0  3.704893  0  0  0.090719  0  3.957728  0  0  0.097243  0  3.975567  0  0  0.047298  0.086528  0  3.945524  0
C  C56  1  0.31808845  0.02979535  0.03301922  1  0  -0.140673  0  3.680379  0  0  -0.160768  0  3.930163  0  0  -0.167733  0  3.950867  0  0  -0.07476  -0.155985  0  3.915972  0
C  C57  1  0.68191006  0.97020492  0.96697677  1  0  -0.140678  0  3.680392  0  0  -0.160723  0  3.930194  0  0  -0.167686  0  3.950897  0  0  -0.074813  -0.155941  0  3.916006  0
C  C58  1  0.45598418  0.04641947  0.99628769  1  0  0.100631  0  3.737625  0  0  0.112316  0  3.966124  0  0  0.115971  0  3.988046  0  0  0.01949  0.109932  0  3.951276  0
C  C59  1  0.54402321  0.95358817  0.00371254  1  0  0.100522  0  3.737707  0  0  0.112217  0  3.966189  0  0  0.115872  0  3.98811  0  0  0.019545  0.109832  0  3.951342  0
C  C60  1  0.50759045  0.15600550  0.95287956  1  0  -0.144469  0  3.690782  0  0  -0.163747  0  3.938126  0  0  -0.17151  0  3.960354  0  0  -0.076213  -0.159113  0  3.923696  0
C  C61  1  0.49241993  0.84400536  0.04712683  1  0  -0.144436  0  3.690445  0  0  -0.163711  0  3.937845  0  0  -0.171473  0  3.960073  0  0  -0.076181  -0.159077  0  3.923413  0
C  C62  1  0.42269028  0.24153164  0.94627940  1  0  0.1339  0  3.681809  0  0  0.102078  0  3.931504  0  0  0.108768  0  3.94924  0  0  0.049904  0.097796  0  3.919494  0
C  C63  1  0.57731532  0.75847707  0.05372328  1  0  0.133985  0  3.681581  0  0  0.102121  0  3.931296  0  0  0.10881  0  3.949035  0  0  0.049913  0.097845  0  3.919288  0
N  N64  1  0.92229389  0.20765315  0.80530094  1  0  -0.316257  0  3.272901  0  0  -0.240557  0  3.53756  0  0  -0.25834  0  3.554033  0  0  -0.319045  -0.228556  0  3.526443  0
N  N65  1  0.07771714  0.79235246  0.19470174  1  0  -0.316347  0  3.273048  0  0  -0.240658  0  3.537757  0  0  -0.258439  0  3.554227  0  0  -0.319056  -0.228659  0  3.526651  0
N  N66  1  0.29291413  0.22570687  0.98383982  1  0  -0.331187  0  3.321022  0  0  -0.250466  0  3.594865  0  0  -0.269401  0  3.610599  0  0  -0.326198  -0.237655  0  3.583993  0
N  N67  1  0.70708733  0.77429655  0.01615773  1  0  -0.331195  0  3.321121  0  0  -0.250399  0  3.594888  0  0  -0.269334  0  3.610626  0  0  -0.326145  -0.237588  0  3.584013  0
O  O68  1  0.04755392  0.30710486  0.10106649  1  0  -0.658491  0  2.051091  0  0  -0.598713  0  2.329536  0  0  -0.627406  0  2.314822  0  0  -0.330072  -0.578391  0  2.339039  0
O  O69  1  0.95243860  0.69289109  0.89892040  1  0  -0.658299  0  2.051178  0  0  -0.598485  0  2.329598  0  0  -0.627178  0  2.314892  0  0  -0.329981  -0.578161  0  2.339094  0
O  O70  1  0.23564590  0.49588996  0.31048367  1  0  -0.604464  0  1.93793  0  0  -0.551166  0  2.149866  0  0  -0.57726  0  2.140269  0  0  -0.309429  -0.532746  0  2.155979  0
O  O71  1  0.76433637  0.50410901  0.68949999  1  0  -0.604254  0  1.937974  0  0  -0.550996  0  2.149958  0  0  -0.577086  0  2.14035  0  0  -0.309295  -0.532575  0  2.156072  0
O  O72  1  0.87600627  0.49837905  0.09887097  1  0  -0.618823  0  2.041365  0  0  -0.544763  0  2.294723  0  0  -0.574177  0  2.284996  0  0  -0.308801  -0.524182  0  2.300673  0
O  O73  1  0.12399756  0.50163075  0.90113600  1  0  -0.618881  0  2.041284  0  0  -0.544856  0  2.294619  0  0  -0.574269  0  2.28489  0  0  -0.308877  -0.524277  0  2.300572  0
O  O74  1  0.72420690  0.56817847  0.19820019  1  0  -0.649469  0  1.965618  0  0  -0.59541  0  2.197689  0  0  -0.620209  0  2.18646  0  0  -0.324328  -0.577933  0  2.204613  0
O  O75  1  0.27580778  0.43183152  0.80181637  1  0  -0.649545  0  1.965473  0  0  -0.595506  0  2.19755  0  0  -0.620302  0  2.186314  0  0  -0.324369  -0.578032  0  2.204484  0
O  O76  1  0.40448207  0.53144234  0.16666563  1  0  -0.851433  0  1.915681  0  0  -0.785841  0  2.122861  0  0  -0.808815  0  2.086147  0  0  -0.584148  -0.769653  0  2.14807  0
O  O77  1  0.59552238  0.46856216  0.83333395  1  0  -0.851436  0  1.915727  0  0  -0.785857  0  2.122866  0  0  -0.808821  0  2.08619  0  0  -0.58415  -0.76967  0  2.148081  0
F  F78  1  0.07323556  0.20455139  0.35723698  1  0  -0.222636  0  1.167329  0  0  -0.170794  0  1.325098  0  0  -0.179619  0  1.314937  0  0  -0.111011  -0.164276  0  1.332041  0
F  F79  1  0.92673620  0.79542234  0.64272701  1  0  -0.2227  0  1.167208  0  0  -0.170842  0  1.324988  0  0  -0.179668  0  1.314822  0  0  -0.110954  -0.164325  0  1.331926  0
