# generated using pymatgen
data_ZnH8C10(BrN)2
_symmetry_space_group_name_H-M   'P 1'
_cell_length_a   4.93631264
_cell_length_b   8.52779659
_cell_length_c   14.61480209
_cell_angle_alpha   76.72542380
_cell_angle_beta   80.22930307
_cell_angle_gamma   73.18238351
_symmetry_Int_Tables_number   1
_chemical_formula_structural   ZnH8C10(BrN)2
_chemical_formula_sum   'Zn2 H16 C20 Br4 N4'
_cell_volume   569.64271917
_cell_formula_units_Z   2
loop_
 _symmetry_equiv_pos_site_id
 _symmetry_equiv_pos_as_xyz
  1  'x, y, z'
loop_
 _atom_site_type_symbol
 _atom_site_label
 _atom_site_symmetry_multiplicity
 _atom_site_fract_x
 _atom_site_fract_y
 _atom_site_fract_z
 _atom_site_occupancy
 _atom_site_hle17_bader_spin_density
 _atom_site_hle17_ddec_charge
 _atom_site_hle17_ddec_spin_density
 _atom_site_hle17_ddec_sum_bond_order
 _atom_site_hle17_magmom
 _atom_site_hse06_10hf_bader_spin_density
 _atom_site_hse06_10hf_ddec_charge
 _atom_site_hse06_10hf_ddec_spin_density
 _atom_site_hse06_10hf_ddec_sum_bond_order
 _atom_site_hse06_10hf_magmom
 _atom_site_hse06_bader_spin_density
 _atom_site_hse06_ddec_charge
 _atom_site_hse06_ddec_spin_density
 _atom_site_hse06_ddec_sum_bond_order
 _atom_site_hse06_magmom
 _atom_site_pbe_bader_spin_density
 _atom_site_pbe_cm5_charge
 _atom_site_pbe_ddec_charge
 _atom_site_pbe_ddec_spin_density
 _atom_site_pbe_ddec_sum_bond_order
 _atom_site_pbe_magmom
Zn  Zn0  1  0.43872551  0.24979018  0.74985852  1  0  0.78888  0  2.073917  0  0  0.606299  0  2.557316  0  0  0.650191  0  2.512436  0  0  0.520812  0.576328  0  2.587516  0
Zn  Zn1  1  0.56126442  0.75020942  0.25014173  1  0  0.788895  0  2.073919  0  0  0.606373  0  2.557227  0  0  0.650263  0  2.512345  0  0  0.520835  0.576407  0  2.587426  0
H  H2  1  0.36645547  0.91946070  0.73826586  1  0  0.072283  0  0.966304  0  0  0.07855  0  1.035382  0  0  0.081493  0  1.032035  0  0  0.102973  0.076355  0  1.037881  0
H  H3  1  0.02762379  0.57988000  0.76215523  1  0  0.071382  0  0.96576  0  0  0.076861  0  1.035911  0  0  0.079879  0  1.0325  0  0  0.101653  0.074609  0  1.038462  0
H  H4  1  0.63353389  0.08054014  0.26173428  1  0  0.072272  0  0.966279  0  0  0.078544  0  1.035359  0  0  0.081486  0  1.032013  0  0  0.10297  0.07635  0  1.03786  0
H  H5  1  0.97236895  0.42010970  0.23784366  1  0  0.07125  0  0.965688  0  0  0.076811  0  1.035789  0  0  0.079833  0  1.032368  0  0  0.101587  0.074557  0  1.038343  0
H  H6  1  0.16618333  0.80046490  0.63551787  1  0  0.102617  0  0.988157  0  0  0.112226  0  1.052353  0  0  0.115809  0  1.050237  0  0  0.096012  0.109601  0  1.054095  0
H  H7  1  0.60571050  0.69982522  0.86510924  1  0  0.102892  0  0.989682  0  0  0.112359  0  1.054038  0  0  0.115951  0  1.051944  0  0  0.095935  0.109734  0  1.055763  0
H  H8  1  0.83381998  0.19952854  0.36448078  1  0  0.102622  0  0.988144  0  0  0.112235  0  1.052317  0  0  0.115817  0  1.050201  0  0  0.095988  0.109611  0  1.054061  0
H  H9  1  0.39428290  0.30017593  0.13488311  1  0  0.102941  0  0.989673  0  0  0.112393  0  1.05403  0  0  0.115983  0  1.051944  0  0  0.095948  0.109768  0  1.055757  0
H  H10  1  0.02535803  0.28307736  0.44598318  1  0  0.108234  0  0.964574  0  0  0.115919  0  1.03021  0  0  0.119389  0  1.028522  0  0  0.101466  0.113373  0  1.031683  0
H  H11  1  0.75148650  0.21619953  0.05369052  1  0  0.107608  0  0.964789  0  0  0.115914  0  1.029922  0  0  0.11942  0  1.028177  0  0  0.101568  0.113345  0  1.031447  0
H  H12  1  0.97465872  0.71691993  0.55401249  1  0  0.108162  0  0.964693  0  0  0.115895  0  1.030276  0  0  0.119367  0  1.028586  0  0  0.101481  0.113346  0  1.03175  0
H  H13  1  0.24850866  0.78381225  0.94631589  1  0  0.107605  0  0.964747  0  0  0.115913  0  1.029867  0  0  0.11942  0  1.028123  0  0  0.101555  0.113339  0  1.031403  0
H  H14  1  0.24184544  0.37799082  0.55624859  1  0  0.076023  0  0.970447  0  0  0.080212  0  1.0435  0  0  0.083203  0  1.040299  0  0  0.099654  0.077947  0  1.045897  0
H  H15  1  0.17392199  0.12097578  0.94380843  1  0  0.076355  0  0.969865  0  0  0.080798  0  1.042548  0  0  0.083856  0  1.039328  0  0  0.100514  0.07852  0  1.044936  0
H  H16  1  0.75815547  0.62201000  0.44375234  1  0  0.075965  0  0.97063  0  0  0.080195  0  1.043625  0  0  0.083187  0  1.040425  0  0  0.099644  0.077926  0  1.04603  0
H  H17  1  0.82608602  0.87902722  0.05620017  1  0  0.076332  0  0.969874  0  0  0.080748  0  1.042629  0  0  0.083807  0  1.039407  0  0  0.100497  0.078475  0  1.045016  0
C  C18  1  0.28574148  0.99542400  0.67295409  1  0  0.131605  0  3.730537  0  0  0.100028  0  3.978544  0  0  0.107818  0  3.996184  0  0  0.037876  0.094957  0  3.966641  0
C  C19  1  0.95607418  0.50408681  0.82740533  1  0  0.134806  0  3.725338  0  0  0.103836  0  3.973198  0  0  0.111585  0  3.99084  0  0  0.040819  0.098802  0  3.961304  0
C  C20  1  0.71425750  0.00457317  0.32704475  1  0  0.131616  0  3.730397  0  0  0.100038  0  3.978422  0  0  0.107831  0  3.99606  0  0  0.037856  0.09496  0  3.966536  0
C  C21  1  0.04393279  0.49590923  0.17259047  1  0  0.134932  0  3.725274  0  0  0.103881  0  3.973139  0  0  0.111631  0  3.990784  0  0  0.040902  0.098851  0  3.961243  0
C  C22  1  0.17043610  0.93068243  0.61459876  1  0  -0.146973  0  3.698857  0  0  -0.166285  0  3.9438  0  0  -0.174083  0  3.964652  0  0  -0.083871  -0.161281  0  3.929896  0
C  C23  1  0.71777708  0.56930555  0.88578143  1  0  -0.147684  0  3.701533  0  0  -0.167414  0  3.946452  0  0  -0.175232  0  3.967312  0  0  -0.084999  -0.162409  0  3.932528  0
C  C24  1  0.82957763  0.06931348  0.38540044  1  0  -0.147058  0  3.699073  0  0  -0.166327  0  3.944009  0  0  -0.174124  0  3.96486  0  0  -0.083829  -0.161343  0  3.930086  0
C  C25  1  0.28221347  0.43069915  0.11421561  1  0  -0.147677  0  3.701777  0  0  -0.167392  0  3.946715  0  0  -0.175214  0  3.967575  0  0  -0.084947  -0.162385  0  3.932791  0
C  C26  1  0.06639830  0.03198312  0.53112756  1  0  0.103969  0  3.71875  0  0  0.116184  0  3.946655  0  0  0.12057  0  3.967809  0  0  0.01435  0.113376  0  3.932243  0
C  C27  1  0.62973114  0.46789284  0.96893660  1  0  0.10344  0  3.719059  0  0  0.116314  0  3.945748  0  0  0.120697  0  3.966909  0  0  0.014981  0.113567  0  3.931255  0
C  C28  1  0.93361284  0.96801546  0.46886690  1  0  0.104277  0  3.718729  0  0  0.116362  0  3.946747  0  0  0.120743  0  3.967907  0  0  0.014411  0.113648  0  3.932242  0
C  C29  1  0.37025548  0.53211305  0.03106155  1  0  0.103419  0  3.719056  0  0  0.116324  0  3.945712  0  0  0.12071  0  3.966873  0  0  0.014956  0.113575  0  3.931223  0
C  C30  1  0.09595711  0.19589076  0.50969793  1  0  -0.143023  0  3.679125  0  0  -0.161176  0  3.925949  0  0  -0.168846  0  3.946575  0  0  -0.080868  -0.156283  0  3.912235  0
C  C31  1  0.80021515  0.30356271  0.99019202  1  0  -0.142656  0  3.676795  0  0  -0.161596  0  3.92346  0  0  -0.169284  0  3.944104  0  0  -0.081045  -0.15674  0  3.909775  0
C  C32  1  0.90405269  0.80410270  0.49030043  1  0  -0.143015  0  3.678968  0  0  -0.161193  0  3.92584  0  0  -0.168868  0  3.946475  0  0  -0.080894  -0.156318  0  3.912098  0
C  C33  1  0.19977838  0.69644797  0.00981069  1  0  -0.14261  0  3.676864  0  0  -0.161549  0  3.923499  0  0  -0.16924  0  3.944145  0  0  -0.081016  -0.156686  0  3.909811  0
C  C34  1  0.21466763  0.25186520  0.57149322  1  0  0.137048  0  3.709015  0  0  0.104598  0  3.95773  0  0  0.112571  0  3.975185  0  0  0.040273  0.099436  0  3.945958  0
C  C35  1  0.03703364  0.24726895  0.92851580  1  0  0.137368  0  3.710031  0  0  0.104445  0  3.959179  0  0  0.11236  0  3.976604  0  0  0.03922  0.099298  0  3.94748  0
C  C36  1  0.78533063  0.74813194  0.42850631  1  0  0.137078  0  3.709149  0  0  0.104625  0  3.957864  0  0  0.112595  0  3.975328  0  0  0.040263  0.099465  0  3.94609  0
C  C37  1  0.96297305  0.75273550  0.07148749  1  0  0.137426  0  3.710147  0  0  0.104504  0  3.959264  0  0  0.112417  0  3.976696  0  0  0.039288  0.099354  0  3.94757  0
Br  Br38  1  0.72144606  0.00878318  0.84291086  1  0  -0.520535  0  0.996229  0  0  -0.457848  0  1.305125  0  0  -0.477167  0  1.28302  0  0  -0.25536  -0.443636  0  1.320111  0
Br  Br39  1  0.57247718  0.49119880  0.65662716  1  0  -0.520492  0  0.994427  0  0  -0.457548  0  1.302305  0  0  -0.476829  0  1.280157  0  0  -0.255766  -0.443368  0  1.317304  0
Br  Br40  1  0.27854506  0.99122757  0.15709022  1  0  -0.520517  0  0.996214  0  0  -0.457843  0  1.305127  0  0  -0.477163  0  1.283024  0  0  -0.255346  -0.443627  0  1.320114  0
Br  Br41  1  0.42752567  0.50879082  0.34337391  1  0  -0.520486  0  0.994362  0  0  -0.457556  0  1.302231  0  0  -0.47684  0  1.280083  0  0  -0.255764  -0.443372  0  1.317228  0
N  N42  1  0.30533103  0.15420337  0.65278748  1  0  -0.315168  0  3.331393  0  0  -0.225062  0  3.596816  0  0  -0.245369  0  3.614025  0  0  -0.332624  -0.211514  0  3.585042  0
N  N43  1  0.11274068  0.34491082  0.84737717  1  0  -0.318087  0  3.332363  0  0  -0.227703  0  3.597643  0  0  -0.248065  0  3.614916  0  0  -0.333631  -0.214127  0  3.585843  0
N  N44  1  0.69466621  0.84579119  0.34721434  1  0  -0.315119  0  3.331301  0  0  -0.225072  0  3.596793  0  0  -0.245373  0  3.613986  0  0  -0.332575  -0.211525  0  3.585026  0
N  N45  1  0.88725519  0.65509733  0.15262660  1  0  -0.3182  0  3.332335  0  0  -0.22782  0  3.597669  0  0  -0.248183  0  3.614935  0  0  -0.333752  -0.214261  0  3.585909  0
