# generated using pymatgen
data_Na2MoH9C4NO9
_symmetry_space_group_name_H-M   'P 1'
_cell_length_a   5.40603950
_cell_length_b   10.05717750
_cell_length_c   10.05812569
_cell_angle_alpha   96.28385178
_cell_angle_beta   96.22434739
_cell_angle_gamma   96.22595927
_symmetry_Int_Tables_number   1
_chemical_formula_structural   Na2MoH9C4NO9
_chemical_formula_sum   'Na4 Mo2 H18 C8 N2 O18'
_cell_volume   536.34462283
_cell_formula_units_Z   2
loop_
 _symmetry_equiv_pos_site_id
 _symmetry_equiv_pos_as_xyz
  1  'x, y, z'
loop_
 _atom_site_type_symbol
 _atom_site_label
 _atom_site_symmetry_multiplicity
 _atom_site_fract_x
 _atom_site_fract_y
 _atom_site_fract_z
 _atom_site_occupancy
 _atom_site_hle17_bader_spin_density
 _atom_site_hle17_ddec_charge
 _atom_site_hle17_ddec_spin_density
 _atom_site_hle17_ddec_sum_bond_order
 _atom_site_hle17_magmom
 _atom_site_hse06_10hf_bader_spin_density
 _atom_site_hse06_10hf_ddec_charge
 _atom_site_hse06_10hf_ddec_spin_density
 _atom_site_hse06_10hf_ddec_sum_bond_order
 _atom_site_hse06_10hf_magmom
 _atom_site_hse06_bader_spin_density
 _atom_site_hse06_ddec_charge
 _atom_site_hse06_ddec_spin_density
 _atom_site_hse06_ddec_sum_bond_order
 _atom_site_hse06_magmom
 _atom_site_pbe_bader_spin_density
 _atom_site_pbe_cm5_charge
 _atom_site_pbe_ddec_charge
 _atom_site_pbe_ddec_spin_density
 _atom_site_pbe_ddec_sum_bond_order
 _atom_site_pbe_magmom
Na  Na0  1  0.50000199  0.60427834  0.39571950  1  0  0.904729  0  0.433209  0  0  0.879562  0  0.581547  0  0  0.888674  0  0.560652  0  0  0.687128  0.872284  0  0.597121  0
Na  Na1  1  0.50000132  0.39571356  0.60427526  1  0  0.904679  0  0.433261  0  0  0.879506  0  0.581627  0  0  0.88862  0  0.560729  0  0  0.6871  0.872227  0  0.597202  0
Na  Na2  1  0.99999764  0.71931900  0.28067068  1  0  0.908048  0  0.396729  0  0  0.87388  0  0.546223  0  0  0.883143  0  0.525327  0  0  0.679365  0.86634  0  0.562175  0
Na  Na3  1  0.99996045  0.28067587  0.71931959  1  0  0.908051  0  0.396698  0  0  0.873852  0  0.54624  0  0  0.883132  0  0.525307  0  0  0.679361  0.866313  0  0.562185  0
Mo  Mo4  1  0.92915316  0.34730844  0.34730550  1  0  2.081825  0  4.224306  0  0  2.076142  0  4.763737  0  0  2.170107  0  4.737307  0  0  1.538962  2.008659  0  4.787252  0
Mo  Mo5  1  0.07087098  0.65270168  0.65271428  1  0  2.082039  0  4.224709  0  0  2.076447  0  4.763941  0  0  2.17034  0  4.737637  0  0  1.539165  2.00896  0  4.787461  0
H  H6  1  0.14957082  0.15206596  0.00530756  1  0  0.095925  0  0.921782  0  0  0.109991  0  0.983665  0  0  0.112271  0  0.982096  0  0  0.115599  0.108346  0  0.984846  0
H  H7  1  0.85042373  0.99464275  0.84798028  1  0  0.095848  0  0.922023  0  0  0.109954  0  0.983877  0  0  0.112233  0  0.982314  0  0  0.11559  0.108314  0  0.985047  0
H  H8  1  0.85044476  0.84793907  0.99469726  1  0  0.095908  0  0.921728  0  0  0.109995  0  0.983622  0  0  0.112274  0  0.982051  0  0  0.115606  0.10835  0  0.984801  0
H  H9  1  0.14954028  0.00534816  0.15201104  1  0  0.095682  0  0.922018  0  0  0.109856  0  0.983841  0  0  0.112139  0  0.982271  0  0  0.115519  0.108218  0  0.985012  0
H  H10  1  0.26306083  0.32185425  0.05621645  1  0  0.121064  0  0.926352  0  0  0.136189  0  0.985407  0  0  0.139801  0  0.982076  0  0  0.127857  0.133549  0  0.98799  0
H  H11  1  0.73694068  0.94377853  0.67820423  1  0  0.121318  0  0.92632  0  0  0.136493  0  0.985327  0  0  0.140115  0  0.981991  0  0  0.127968  0.133854  0  0.987916  0
H  H12  1  0.73694268  0.67814674  0.94378425  1  0  0.121109  0  0.926302  0  0  0.136213  0  0.985404  0  0  0.139826  0  0.982074  0  0  0.127873  0.133572  0  0.987988  0
H  H13  1  0.26304193  0.05620433  0.32179431  1  0  0.121277  0  0.926228  0  0  0.136447  0  0.985292  0  0  0.140065  0  0.981965  0  0  0.127989  0.133807  0  0.987881  0
H  H14  1  0.34713028  0.25620810  0.25621658  1  0  0.290124  0  0.887853  0  0  0.280034  0  0.945832  0  0  0.287673  0  0.940394  0  0  0.308595  0.274674  0  0.949651  0
H  H15  1  0.65288864  0.74376263  0.74377986  1  0  0.290227  0  0.887823  0  0  0.280095  0  0.945856  0  0  0.287737  0  0.94041  0  0  0.308589  0.274733  0  0.949692  0
H  H16  1  0.46365931  0.63292369  0.12652293  1  0  0.425783  0  0.877716  0  0  0.394881  0  0.941617  0  0  0.406205  0  0.924833  0  0  0.290907  0.386836  0  0.953541  0
H  H17  1  0.53632177  0.87348531  0.36702726  1  0  0.425638  0  0.878014  0  0  0.394792  0  0.941803  0  0  0.406115  0  0.925021  0  0  0.290871  0.386751  0  0.95372  0
H  H18  1  0.53633191  0.36704811  0.87348291  1  0  0.425729  0  0.877836  0  0  0.394868  0  0.941655  0  0  0.406189  0  0.924874  0  0  0.29088  0.386824  0  0.953575  0
H  H19  1  0.46360965  0.12653382  0.63295913  1  0  0.425646  0  0.877959  0  0  0.394791  0  0.941771  0  0  0.406113  0  0.924992  0  0  0.290858  0.386744  0  0.953695  0
H  H20  1  0.61651825  0.50475385  0.14046997  1  0  0.42096  0  0.871502  0  0  0.393537  0  0.930537  0  0  0.403171  0  0.916082  0  0  0.299486  0.386583  0  0.940953  0
H  H21  1  0.38356803  0.85957218  0.49521852  1  0  0.420941  0  0.871775  0  0  0.393486  0  0.93065  0  0  0.40312  0  0.916194  0  0  0.29948  0.386537  0  0.941057  0
H  H22  1  0.38352385  0.49523708  0.85954190  1  0  0.420921  0  0.871782  0  0  0.393488  0  0.930651  0  0  0.403123  0  0.916194  0  0  0.299448  0.386536  0  0.941061  0
H  H23  1  0.61638105  0.14045098  0.50477133  1  0  0.42091  0  0.871936  0  0  0.393506  0  0.93062  0  0  0.403136  0  0.916172  0  0  0.299553  0.386558  0  0.941027  0
C  C24  1  0.86698791  0.28486392  0.03675669  1  0  0.698577  0  3.840001  0  0  0.652458  0  4.143892  0  0  0.686107  0  4.135542  0  0  0.221453  0.629577  0  4.148633  0
C  C25  1  0.13304052  0.96325662  0.71516476  1  0  0.698999  0  3.839288  0  0  0.652771  0  4.143396  0  0  0.686418  0  4.135052  0  0  0.221461  0.629891  0  4.148136  0
C  C26  1  0.13302119  0.71512902  0.96324747  1  0  0.69865  0  3.839794  0  0  0.652574  0  4.143627  0  0  0.68622  0  4.135275  0  0  0.221498  0.629693  0  4.148362  0
C  C27  1  0.86694346  0.03676449  0.28482296  1  0  0.69877  0  3.839064  0  0  0.652565  0  4.1432  0  0  0.686218  0  4.134852  0  0  0.221318  0.629686  0  4.147944  0
C  C28  1  0.12331557  0.24047153  0.07476503  1  0  -0.137328  0  3.64149  0  0  -0.196006  0  3.905557  0  0  -0.196832  0  3.911385  0  0  -0.067127  -0.195514  0  3.901427  0
C  C29  1  0.87670978  0.92522543  0.75956406  1  0  -0.137789  0  3.642065  0  0  -0.196581  0  3.906227  0  0  -0.197419  0  3.912063  0  0  -0.067328  -0.196088  0  3.902097  0
C  C30  1  0.87669375  0.75953046  0.92523412  1  0  -0.137277  0  3.641293  0  0  -0.196056  0  3.90547  0  0  -0.196881  0  3.911293  0  0  -0.067183  -0.195566  0  3.901337  0
C  C31  1  0.12327887  0.07476749  0.24043291  1  0  -0.137376  0  3.641558  0  0  -0.196249  0  3.905864  0  0  -0.197093  0  3.91171  0  0  -0.067221  -0.195757  0  3.901739  0
N  N32  1  0.16720097  0.21676090  0.21674449  1  0  -0.384828  0  3.269589  0  0  -0.333733  0  3.522136  0  0  -0.352163  0  3.536995  0  0  -0.485974  -0.320455  0  3.511483  0
N  N33  1  0.83281371  0.78323202  0.78325801  1  0  -0.384962  0  3.26999  0  0  -0.333792  0  3.522431  0  0  -0.352218  0  3.537289  0  0  -0.486016  -0.320509  0  3.511778  0
O  O34  1  0.63933346  0.39150796  0.39151398  1  0  -0.888179  0  1.549545  0  0  -0.887413  0  1.835856  0  0  -0.915025  0  1.82284  0  0  -0.673853  -0.8677  0  1.845258  0
O  O35  1  0.36068290  0.60854150  0.60851743  1  0  -0.88798  0  1.549753  0  0  -0.887184  0  1.83595  0  0  -0.914769  0  1.82294  0  0  -0.673713  -0.867476  0  1.845359  0
O  O36  1  0.10021241  0.49282868  0.30790065  1  0  -0.867409  0  1.536203  0  0  -0.867862  0  1.816451  0  0  -0.896313  0  1.807068  0  0  -0.647158  -0.847417  0  1.823482  0
O  O37  1  0.89992005  0.69211924  0.50717873  1  0  -0.8676  0  1.535986  0  0  -0.868038  0  1.816098  0  0  -0.896475  0  1.806728  0  0  -0.64714  -0.847593  0  1.82314  0
O  O38  1  0.89987290  0.50716430  0.69212991  1  0  -0.867674  0  1.536302  0  0  -0.868109  0  1.816454  0  0  -0.896552  0  1.807083  0  0  -0.647243  -0.847652  0  1.823481  0
O  O39  1  0.10015997  0.30790684  0.49281423  1  0  -0.867373  0  1.536211  0  0  -0.867786  0  1.816382  0  0  -0.896233  0  1.806993  0  0  -0.647079  -0.847347  0  1.823421  0
O  O40  1  0.74298372  0.32164855  0.13370799  1  0  -0.658758  0  2.070895  0  0  -0.606966  0  2.310461  0  0  -0.637105  0  2.30418  0  0  -0.32631  -0.585352  0  2.31426  0
O  O41  1  0.25705597  0.86630760  0.67835951  1  0  -0.658789  0  2.070384  0  0  -0.606944  0  2.309986  0  0  -0.637071  0  2.303709  0  0  -0.326331  -0.585333  0  2.313787  0
O  O42  1  0.25703609  0.67834235  0.86629261  1  0  -0.658848  0  2.070723  0  0  -0.607067  0  2.31025  0  0  -0.637205  0  2.303986  0  0  -0.326396  -0.58545  0  2.314043  0
O  O43  1  0.74294963  0.13370244  0.32163729  1  0  -0.658741  0  2.070817  0  0  -0.606924  0  2.310436  0  0  -0.637058  0  2.304155  0  0  -0.326269  -0.585318  0  2.314242  0
O  O44  1  0.79393776  0.28766322  0.91450783  1  0  -0.643117  0  1.955843  0  0  -0.590745  0  2.179825  0  0  -0.613475  0  2.167403  0  0  -0.352685  -0.574814  0  2.188186  0
O  O45  1  0.20606641  0.08552408  0.71238779  1  0  -0.643281  0  1.955756  0  0  -0.590901  0  2.179879  0  0  -0.61363  0  2.16746  0  0  -0.3526  -0.574965  0  2.18824  0
O  O46  1  0.20603696  0.71231762  0.08548605  1  0  -0.643107  0  1.956201  0  0  -0.59072  0  2.180187  0  0  -0.613441  0  2.167764  0  0  -0.352583  -0.574789  0  2.188547  0
O  O47  1  0.79387810  0.91447081  0.28758787  1  0  -0.643296  0  1.954901  0  0  -0.590921  0  2.179006  0  0  -0.613654  0  2.166588  0  0  -0.352585  -0.574983  0  2.187364  0
O  O48  1  0.61752953  0.60090624  0.17010465  1  0  -0.911507  0  1.789993  0  0  -0.869685  0  1.964616  0  0  -0.885007  0  1.930838  0  0  -0.6892  -0.858676  0  1.988749  0
O  O49  1  0.38249099  0.82990642  0.39907417  1  0  -0.911379  0  1.790534  0  0  -0.869545  0  1.964951  0  0  -0.884867  0  1.931174  0  0  -0.689137  -0.858533  0  1.989078  0
O  O50  1  0.38248888  0.39908668  0.82989607  1  0  -0.911441  0  1.79037  0  0  -0.869626  0  1.964831  0  0  -0.88495  0  1.931052  0  0  -0.689116  -0.858619  0  1.988963  0
O  O51  1  0.61747044  0.17009760  0.60091837  1  0  -0.911339  0  1.790675  0  0  -0.869521  0  1.964979  0  0  -0.884847  0  1.931201  0  0  -0.689231  -0.858512  0  1.989112  0
