# generated using pymatgen
data_CdH10C12(SN2)2
_symmetry_space_group_name_H-M   'P 1'
_cell_length_a   7.62967512
_cell_length_b   8.52186235
_cell_length_c   23.70500000
_cell_angle_alpha   84.82847157
_cell_angle_beta   89.50757469
_cell_angle_gamma   63.46074272
_symmetry_Int_Tables_number   1
_chemical_formula_structural   CdH10C12(SN2)2
_chemical_formula_sum   'Cd4 H40 C48 S8 N16'
_cell_volume   1372.38837054
_cell_formula_units_Z   4
loop_
 _symmetry_equiv_pos_site_id
 _symmetry_equiv_pos_as_xyz
  1  'x, y, z'
loop_
 _atom_site_type_symbol
 _atom_site_label
 _atom_site_symmetry_multiplicity
 _atom_site_fract_x
 _atom_site_fract_y
 _atom_site_fract_z
 _atom_site_occupancy
 _atom_site_hle17_bader_spin_density
 _atom_site_hle17_ddec_charge
 _atom_site_hle17_ddec_spin_density
 _atom_site_hle17_ddec_sum_bond_order
 _atom_site_hle17_magmom
 _atom_site_hse06_10hf_bader_spin_density
 _atom_site_hse06_10hf_ddec_charge
 _atom_site_hse06_10hf_ddec_spin_density
 _atom_site_hse06_10hf_ddec_sum_bond_order
 _atom_site_hse06_10hf_magmom
 _atom_site_hse06_bader_spin_density
 _atom_site_hse06_ddec_charge
 _atom_site_hse06_ddec_spin_density
 _atom_site_hse06_ddec_sum_bond_order
 _atom_site_hse06_magmom
 _atom_site_pbe_bader_charge
 _atom_site_pbe_bader_spin_density
 _atom_site_pbe_cm5_charge
 _atom_site_pbe_ddec_charge
 _atom_site_pbe_ddec_spin_density
 _atom_site_pbe_ddec_sum_bond_order
 _atom_site_pbe_magmom
Cd  Cd0  1  0.55892581  0.97054497  0.37468571  1  0  0.941821  0  1.971683  0  0  0.757627  0  2.435673  0  0  0.804439  0  2.39872  0  1.167897  0  0.716194  0.725117  0  2.460343  0
Cd  Cd1  1  0.44107347  0.02945833  0.62531364  1  0  0.941816  0  1.971726  0  0  0.757616  0  2.43573  0  0  0.804426  0  2.398777  0  1.167898  0  0.716209  0.725106  0  2.4604  0
Cd  Cd2  1  0.45047173  0.99171955  0.12447970  1  0  0.941163  0  2.004532  0  0  0.757425  0  2.472875  0  0  0.803783  0  2.43498  0  1.169624  0  0.71908  0.725256  0  2.498162  0
Cd  Cd3  1  0.54953345  0.00827717  0.87552069  1  0  0.941183  0  2.004527  0  0  0.757467  0  2.472847  0  0  0.803823  0  2.434953  0  1.169672  0  0.719072  0.7253  0  2.498133  0
H  H4  1  0.31189327  0.27230971  0.45633184  1  0  0.070491  0  0.970414  0  0  0.078157  0  1.039122  0  0  0.079249  0  1.038746  0  0.10873  0  0.108143  0.077327  0  1.039357  0
H  H5  1  0.68810732  0.72769096  0.54366759  1  0  0.070478  0  0.970433  0  0  0.078149  0  1.039141  0  0  0.079241  0  1.038765  0  0.108704  0  0.108141  0.077317  0  1.039381  0
H  H6  1  0.18254571  0.79007083  0.37692699  1  0  0.098214  0  0.946205  0  0  0.109607  0  1.007513  0  0  0.111613  0  1.006221  0  0.067818  0  0.101406  0.108028  0  1.008659  0
H  H7  1  0.81745160  0.20993115  0.62307240  1  0  0.098222  0  0.946174  0  0  0.109625  0  1.007471  0  0  0.11163  0  1.00618  0  0.067838  0  0.101406  0.108045  0  1.008619  0
H  H8  1  0.36068041  0.64567703  0.29232898  1  0  0.099952  0  0.969195  0  0  0.10829  0  1.033753  0  0  0.110777  0  1.03381  0  0.073648  0  0.1003  0.106496  0  1.033844  0
H  H9  1  0.63931428  0.35432496  0.70766958  1  0  0.099978  0  0.969108  0  0  0.108307  0  1.033669  0  0  0.110795  0  1.033726  0  0.073737  0  0.100303  0.106512  0  1.033762  0
H  H10  1  0.51480321  0.31574606  0.29606226  1  0  0.061239  0  0.984434  0  0  0.067535  0  1.055893  0  0  0.069607  0  1.054345  0  0.102125  0  0.100049  0.066025  0  1.05699  0
H  H11  1  0.48518689  0.68425725  0.70393585  1  0  0.061293  0  0.984392  0  0  0.067573  0  1.055869  0  0  0.069643  0  1.054323  0  0.102055  0  0.100071  0.066062  0  1.056965  0
H  H12  1  0.85438930  0.67067457  0.29530324  1  0  0.062387  0  0.98726  0  0  0.070012  0  1.058019  0  0  0.071625  0  1.05678  0  0.093396  0  0.102291  0.068793  0  1.058929  0
H  H13  1  0.14561194  0.32932741  0.70469741  1  0  0.062293  0  0.987174  0  0  0.069922  0  1.057949  0  0  0.071533  0  1.056711  0  0.093386  0  0.102253  0.068707  0  1.058852  0
H  H14  1  0.03701262  0.34169902  0.29431892  1  0  0.103751  0  0.954412  0  0  0.114441  0  1.013915  0  0  0.116763  0  1.014357  0  0.099257  0  0.104218  0.112755  0  1.013794  0
H  H15  1  0.96298207  0.65830560  0.70568124  1  0  0.103814  0  0.954283  0  0  0.114483  0  1.013813  0  0  0.116804  0  1.014258  0  0.099111  0  0.104233  0.112796  0  1.013692  0
H  H16  1  0.00813410  0.15037930  0.37670382  1  0  0.097717  0  0.947848  0  0  0.107527  0  1.011508  0  0  0.109626  0  1.010128  0  0.09517  0  0.100893  0.105965  0  1.012557  0
H  H17  1  0.99185731  0.84962400  0.62329597  1  0  0.097789  0  0.947778  0  0  0.107552  0  1.011488  0  0  0.10965  0  1.010107  0  0.095122  0  0.100897  0.10599  0  1.012537  0
H  H18  1  0.79082821  0.29322336  0.45536794  1  0  0.099032  0  0.976035  0  0  0.105542  0  1.043572  0  0  0.108113  0  1.043565  0  0.105422  0  0.097468  0.103697  0  1.043702  0
H  H19  1  0.20916779  0.70677863  0.54463231  1  0  0.099026  0  0.97604  0  0  0.105549  0  1.043564  0  0  0.108123  0  1.043558  0  0.105408  0  0.097465  0.103703  0  1.043695  0
H  H20  1  0.61497334  0.62564104  0.44927418  1  0  0.073987  0  0.961318  0  0  0.082424  0  1.02769  0  0  0.084266  0  1.026361  0  0.12478  0  0.109262  0.081062  0  1.028664  0
H  H21  1  0.38502462  0.37436227  0.55072601  1  0  0.073965  0  0.961306  0  0  0.082401  0  1.027681  0  0  0.084244  0  1.026353  0  0.124804  0  0.109253  0.08104  0  1.028654  0
H  H22  1  0.31250606  0.28437295  0.21466863  1  0  0.072199  0  0.955468  0  0  0.080485  0  1.022928  0  0  0.08177  0  1.022133  0  0.092445  0  0.109883  0.07949  0  1.023583  0
H  H23  1  0.68749191  0.71562245  0.78533140  1  0  0.072157  0  0.955423  0  0  0.080462  0  1.022859  0  0  0.081747  0  1.022064  0  0.092452  0  0.109867  0.079468  0  1.023516  0
H  H24  1  0.97983596  0.80630494  0.12994197  1  0  0.098225  0  0.94754  0  0  0.108873  0  1.010239  0  0  0.110787  0  1.008896  0  0.080263  0  0.101869  0.107441  0  1.011243  0
H  H25  1  0.02017184  0.19369178  0.87005757  1  0  0.098242  0  0.947528  0  0  0.108846  0  1.01028  0  0  0.11076  0  1.008936  0  0.080251  0  0.101866  0.107414  0  1.011284  0
H  H26  1  0.03551802  0.66870445  0.03811988  1  0  0.098082  0  0.974485  0  0  0.104363  0  1.042788  0  0  0.107036  0  1.042683  0  0.129767  0  0.098105  0.102409  0  1.043065  0
H  H27  1  0.96449437  0.33129359  0.96187918  1  0  0.098081  0  0.974568  0  0  0.104409  0  1.042796  0  0  0.107085  0  1.042686  0  0.129711  0  0.098113  0.102454  0  1.043075  0
H  H28  1  0.22440530  0.33920967  0.04067346  1  0  0.064362  0  0.964542  0  0  0.071318  0  1.035213  0  0  0.073213  0  1.03353  0  0.087225  0  0.105113  0.069943  0  1.03637  0
H  H29  1  0.77560512  0.66078704  0.95932607  1  0  0.064349  0  0.964548  0  0  0.071293  0  1.035222  0  0  0.073184  0  1.033541  0  0.087305  0  0.105132  0.06992  0  1.036381  0
H  H30  1  0.54101188  0.69339626  0.03700817  1  0  0.067725  0  0.967854  0  0  0.07585  0  1.037174  0  0  0.07726  0  1.036023  0  0.081639  0  0.107386  0.074764  0  1.038031  0
H  H31  1  0.45898675  0.30660309  0.96299215  1  0  0.067748  0  0.967851  0  0  0.075836  0  1.037207  0  0  0.077246  0  1.036057  0  0.08163  0  0.10739  0.07475  0  1.038064  0
H  H32  1  0.67555618  0.36517581  0.03585935  1  0  0.102758  0  0.953664  0  0  0.113235  0  1.013817  0  0  0.115589  0  1.014138  0  0.072275  0  0.104333  0.111557  0  1.013746  0
H  H33  1  0.32444179  0.63482222  0.96414186  1  0  0.102735  0  0.953703  0  0  0.113209  0  1.013858  0  0  0.115563  0  1.014179  0  0.072179  0  0.10432  0.111531  0  1.013785  0
H  H34  1  0.79636483  0.17424748  0.12742055  1  0  0.098355  0  0.947548  0  0  0.108289  0  1.011446  0  0  0.1102  0  1.010134  0  0.101762  0  0.101835  0.106864  0  1.012422  0
H  H35  1  0.20363052  0.82575055  0.87258109  1  0  0.098361  0  0.947583  0  0  0.108304  0  1.011472  0  0  0.110214  0  1.01016  0  0.101794  0  0.101845  0.106879  0  1.012448  0
H  H36  1  0.78528797  0.31651039  0.21637007  1  0  0.098069  0  0.971212  0  0  0.103552  0  1.040404  0  0  0.106236  0  1.040499  0  0.081463  0  0.097923  0.101606  0  1.040529  0
H  H37  1  0.21470869  0.68348764  0.78363114  1  0  0.098067  0  0.971134  0  0  0.103557  0  1.040328  0  0  0.10624  0  1.040425  0  0.081509  0  0.097908  0.101606  0  1.040458  0
H  H38  1  0.64490213  0.64720569  0.21010450  1  0  0.069217  0  0.954079  0  0  0.076483  0  1.02321  0  0  0.078181  0  1.021915  0  0.079025  0  0.107646  0.075219  0  1.024165  0
H  H39  1  0.35509650  0.35279366  0.78989624  1  0  0.069246  0  0.954066  0  0  0.076507  0  1.023201  0  0  0.078205  0  1.021908  0  0.079039  0  0.10767  0.075244  0  1.024157  0
H  H40  1  0.12465967  0.61153651  0.21982365  1  0  0.0989  0  0.964507  0  0  0.107625  0  1.028632  0  0  0.110095  0  1.028865  0  0.071479  0  0.100702  0.105846  0  1.028648  0
H  H41  1  0.87534158  0.38846020  0.78017591  1  0  0.098903  0  0.964458  0  0  0.10759  0  1.02865  0  0  0.110057  0  1.028887  0  0.071496  0  0.100674  0.10582  0  1.02864  0
H  H42  1  0.15225163  0.59944560  0.45986871  1  0  0.096501  0  0.984854  0  0  0.10487  0  1.049624  0  0  0.107713  0  1.04946  0  0.111437  0  0.096026  0.102818  0  1.049916  0
H  H43  1  0.84774633  0.40055507  0.54013115  1  0  0.096499  0  0.984852  0  0  0.104868  0  1.049622  0  0  0.10771  0  1.049458  0  0.11144  0  0.096027  0.102816  0  1.049914  0
C  C44  1  0.71587067  0.00940258  0.51089164  1  0  0.301364  0  4.017287  0  0  0.279471  0  4.324706  0  0  0.302317  0  4.337238  0  0.591355  0  0.14599  0.264049  0  4.31566  0
C  C45  1  0.28412861  0.99059809  0.48910990  1  0  0.301398  0  4.017217  0  0  0.279511  0  4.324634  0  0  0.302358  0  4.337166  0  0.591029  0  0.145947  0.264088  0  4.31559  0
C  C46  1  0.27845905  0.98281774  0.26077403  1  0  0.295532  0  4.028052  0  0  0.27406  0  4.334848  0  0  0.296915  0  4.347422  0  0.547166  0  0.143945  0.258644  0  4.325713  0
C  C47  1  0.72154285  0.01718557  0.73922447  1  0  0.295458  0  4.027715  0  0  0.273992  0  4.334511  0  0  0.296847  0  4.34709  0  0.547208  0  0.143853  0.258577  0  4.325376  0
C  C48  1  0.72960470  0.98031126  0.24014769  1  0  0.295049  0  4.006447  0  0  0.274028  0  4.311685  0  0  0.296311  0  4.324257  0  0.574389  0  0.147437  0.258999  0  4.302588  0
C  C49  1  0.27039458  0.01969204  0.75985292  1  0  0.29513  0  4.006294  0  0  0.274124  0  4.311514  0  0  0.296406  0  4.32409  0  0.574572  0  0.147471  0.259093  0  4.302422  0
C  C50  1  0.27635026  0.99687350  0.99018603  1  0  0.292519  0  4.025714  0  0  0.271713  0  4.330995  0  0  0.294267  0  4.343799  0  0.580674  0  0.144281  0.256508  0  4.321701  0
C  C51  1  0.72365230  0.00312321  0.00981395  1  0  0.29248  0  4.025615  0  0  0.271679  0  4.330886  0  0  0.294232  0  4.343689  0  0.58052  0  0.144278  0.256474  0  4.321594  0
C  C52  1  0.32056516  0.35964759  0.42105547  1  0  0.124251  0  3.710916  0  0  0.0966  0  3.954245  0  0  0.10343  0  3.974784  0  0.493275  0  0.042881  0.09227  0  3.940149  0
C  C53  1  0.67943412  0.64035307  0.57894354  1  0  0.124262  0  3.710827  0  0  0.096598  0  3.954176  0  0  0.103425  0  3.974716  0  0.493266  0  0.042871  0.092268  0  3.940079  0
C  C54  1  0.24673971  0.64758917  0.37651512  1  0  0.007466  0  3.706167  0  0  -0.01372  0  3.956225  0  0  -0.010042  0  3.975071  0  -0.069098  0  -0.065332  -0.015813  0  3.943337  0
C  C55  1  0.75325629  0.35241282  0.62348470  1  0  0.007418  0  3.7062  0  0  -0.013784  0  3.956265  0  0  -0.010106  0  3.975112  0  -0.069109  0  -0.065327  -0.015877  0  3.943377  0
C  C56  1  0.34687113  0.56761916  0.32955467  1  0  -0.119715  0  3.729569  0  0  -0.129356  0  3.976373  0  0  -0.136648  0  3.998801  0  0.044754  0  -0.085901  -0.124669  0  3.961224  0
C  C57  1  0.65312422  0.43238414  0.67044427  1  0  -0.11965  0  3.729435  0  0  -0.129285  0  3.97626  0  0  -0.136571  0  3.998671  0  0.044744  0  -0.085889  -0.1246  0  3.961117  0
C  C58  1  0.43089409  0.38486258  0.33112958  1  0  0.115689  0  3.733124  0  0  0.087823  0  3.977948  0  0  0.094438  0  3.997854  0  0.423838  0  0.03763  0.083612  0  3.96428  0
C  C59  1  0.56909929  0.61514204  0.66886890  1  0  0.115611  0  3.733062  0  0  0.087751  0  3.97789  0  0  0.094365  0  3.9978  0  0.423927  0  0.03762  0.083542  0  3.96422  0
C  C60  1  0.84272106  0.58196880  0.32959616  1  0  0.112406  0  3.736408  0  0  0.083611  0  3.982426  0  0  0.090216  0  4.002898  0  0.47448  0  0.037345  0.079416  0  3.968402  0
C  C61  1  0.15727887  0.41803582  0.67040398  1  0  0.112613  0  3.736178  0  0  0.083818  0  3.982195  0  0  0.090423  0  4.002668  0  0.474564  0  0.037431  0.07962  0  3.968173  0
C  C62  1  0.94415053  0.39976965  0.32931832  1  0  -0.118251  0  3.730398  0  0  -0.128344  0  3.97725  0  0  -0.135601  0  3.999759  0  -0.040098  0  -0.086521  -0.1237  0  3.962058  0
C  C63  1  0.05584285  0.60023761  0.67068050  1  0  -0.118439  0  3.73024  0  0  -0.128513  0  3.977093  0  0  -0.135771  0  3.999604  0  -0.040888  0  -0.086562  -0.123868  0  3.961903  0
C  C64  1  0.92783255  0.29322336  0.37520663  1  0  0.006358  0  3.706175  0  0  -0.013917  0  3.95674  0  0  -0.010575  0  3.976082  0  -0.002555  0  -0.066281  -0.015814  0  3.943549  0
C  C65  1  0.07216410  0.70678258  0.62479221  1  0  0.006358  0  3.706085  0  0  -0.013868  0  3.956624  0  0  -0.010528  0  3.975968  0  -0.001705  0  -0.066262  -0.015766  0  3.943435  0
C  C66  1  0.80859891  0.37296670  0.41934054  1  0  -0.126018  0  3.74082  0  0  -0.136868  0  3.99019  0  0  -0.144347  0  4.012918  0  0.008253  0  -0.088674  -0.132102  0  3.974929  0
C  C67  1  0.19139578  0.62703528  0.58065886  1  0  -0.126051  0  3.740842  0  0  -0.136914  0  3.990197  0  0  -0.144399  0  4.012932  0  0.008262  0  -0.088703  -0.132148  0  3.974937  0
C  C68  1  0.71167804  0.55616871  0.41627243  1  0  0.119119  0  3.719298  0  0  0.090952  0  3.96446  0  0  0.09777  0  3.984045  0  0.380394  0  0.040058  0.086627  0  3.950999  0
C  C69  1  0.28831993  0.44383196  0.58372785  1  0  0.119095  0  3.719317  0  0  0.090936  0  3.964484  0  0  0.097754  0  3.984073  0  0.380437  0  0.040041  0.086611  0  3.951023  0
C  C70  1  0.24809715  0.37486830  0.17666315  1  0  0.11823  0  3.723047  0  0  0.089321  0  3.969329  0  0  0.096081  0  3.98968  0  0.504205  0  0.040546  0.085013  0  3.955417  0
C  C71  1  0.75190213  0.62512709  0.82333729  1  0  0.118396  0  3.722975  0  0  0.089497  0  3.969235  0  0  0.096258  0  3.989586  0  0.504217  0  0.040642  0.085186  0  3.955326  0
C  C72  1  0.06434075  0.66443474  0.12921078  1  0  0.016237  0  3.695142  0  0  -0.005307  0  3.94337  0  0  -0.001258  0  3.9623  0  0.044344  0  -0.064386  -0.007654  0  3.930457  0
C  C73  1  0.93567098  0.33556197  0.87078875  1  0  0.01617  0  3.695125  0  0  -0.005355  0  3.943393  0  0  -0.001306  0  3.962325  0  0.044336  0  -0.064456  -0.007702  0  3.930479  0
C  C74  1  0.09356876  0.58802150  0.07819452  1  0  -0.122031  0  3.727552  0  0  -0.130414  0  3.972536  0  0  -0.138116  0  3.995034  0  -0.135306  0  -0.086906  -0.125506  0  3.957466  0
C  C75  1  0.90644297  0.41197521  0.92180501  1  0  -0.122056  0  3.727621  0  0  -0.130454  0  3.972612  0  0  -0.138159  0  3.995109  0  -0.135375  0  -0.086906  -0.125545  0  3.957541  0
C  C76  1  0.19972271  0.40583685  0.07927289  1  0  0.119482  0  3.732077  0  0  0.091016  0  3.976414  0  0  0.097913  0  3.996288  0  0.506477  0  0.039606  0.086635  0  3.962805  0
C  C77  1  0.80028640  0.59415986  0.92072706  1  0  0.119562  0  3.732108  0  0  0.091116  0  3.976459  0  0  0.098017  0  3.996327  0  0.506451  0  0.039638  0.086729  0  3.962858  0
C  C78  1  0.59720363  0.60459824  0.07574113  1  0  0.115782  0  3.729034  0  0  0.086251  0  3.975536  0  0  0.093014  0  3.995891  0  0.397193  0  0.039203  0.081978  0  3.961638  0
C  C79  1  0.40279762  0.39540111  0.92426003  1  0  0.115788  0  3.729064  0  0  0.086304  0  3.975541  0  0  0.093068  0  3.995897  0  0.39715  0  0.039185  0.082029  0  3.961641  0
C  C80  1  0.67107931  0.42293017  0.07532613  1  0  -0.121392  0  3.730021  0  0  -0.131494  0  3.977589  0  0  -0.138886  0  3.999864  0  0.074342  0  -0.086581  -0.126841  0  3.962677  0
C  C81  1  0.32891473  0.57707050  0.92467500  1  0  -0.121352  0  3.729995  0  0  -0.131445  0  3.977543  0  0  -0.138838  0  3.99982  0  0.074393  0  -0.086543  -0.12679  0  3.96263  0
C  C82  1  0.73954639  0.31658682  0.12629796  1  0  0.014638  0  3.697745  0  0  -0.007248  0  3.947007  0  0  -0.003231  0  3.966022  0  -0.043974  0  -0.064857  -0.009588  0  3.934079  0
C  C83  1  0.26044961  0.68341253  0.87370279  1  0  0.014638  0  3.697701  0  0  -0.007269  0  3.946985  0  0  -0.003251  0  3.966001  0  -0.044159  0  -0.064867  -0.009608  0  3.934053  0
C  C84  1  0.73187913  0.39578459  0.17585365  1  0  -0.123786  0  3.729637  0  0  -0.131299  0  3.974048  0  0  -0.139062  0  3.996506  0  0.033668  0  -0.087365  -0.12638  0  3.959046  0
C  C85  1  0.26812081  0.60421212  0.82414717  1  0  -0.123831  0  3.729665  0  0  -0.131348  0  3.974085  0  0  -0.139111  0  3.996545  0  0.03384  0  -0.087404  -0.126424  0  3.959084  0
C  C86  1  0.65511300  0.57850560  0.17260447  1  0  0.121594  0  3.730411  0  0  0.092249  0  3.97534  0  0  0.099251  0  3.99529  0  0.437695  0  0.040744  0.087778  0  3.961748  0
C  C87  1  0.34488497  0.42149244  0.82739631  1  0  0.121639  0  3.730519  0  0  0.092305  0  3.975427  0  0  0.099308  0  3.995378  0  0.437692  0  0.040775  0.087833  0  3.961831  0
C  C88  1  0.14321239  0.55589724  0.17932638  1  0  -0.124332  0  3.734111  0  0  -0.133812  0  3.980282  0  0  -0.141241  0  4.002404  0  -0.048758  0  -0.087275  -0.129108  0  3.965472  0
C  C89  1  0.85679280  0.44409947  0.82067359  1  0  -0.12437  0  3.734115  0  0  -0.133827  0  3.980283  0  0  -0.141257  0  4.002407  0  -0.048789  0  -0.087251  -0.129119  0  3.965478  0
C  C90  1  0.23284611  0.54153838  0.42294259  1  0  -0.122459  0  3.726151  0  0  -0.13011  0  3.967447  0  0  -0.137588  0  3.989162  0  -0.05251  0  -0.08839  -0.12532  0  3.952813  0
C  C91  1  0.76715317  0.45846229  0.57705727  1  0  -0.12245  0  3.726131  0  0  -0.130093  0  3.967436  0  0  -0.137571  0  3.989152  0  -0.052517  0  -0.08839  -0.125303  0  3.952802  0
S  S92  1  0.84544892  0.93105546  0.45625608  1  0  -0.338734  0  2.192363  0  0  -0.308582  0  2.534219  0  0  -0.325717  0  2.528301  0  0.043413  0  -0.133757  -0.296564  0  2.537767  0
S  S93  1  0.15455102  0.06894125  0.54374348  1  0  -0.338752  0  2.192559  0  0  -0.308597  0  2.534399  0  0  -0.325732  0  2.528483  0  0.043499  0  -0.13374  -0.296579  0  2.537947  0
S  S94  1  0.19695376  0.95021115  0.20195272  1  0  -0.340835  0  2.214578  0  0  -0.309616  0  2.558808  0  0  -0.32689  0  2.553098  0  0.069922  0  -0.139182  -0.2975  0  2.562176  0
S  S95  1  0.80304815  0.04978161  0.79804612  1  0  -0.340824  0  2.214625  0  0  -0.309606  0  2.558855  0  0  -0.326881  0  2.553146  0  0.069999  0  -0.139144  -0.297491  0  2.562223  0
S  S96  1  0.82099655  0.00276345  0.29906108  1  0  -0.333951  0  2.239973  0  0  -0.300217  0  2.584586  0  0  -0.317304  0  2.577926  0  0.053269  0  -0.124813  -0.288239  0  2.588571  0
S  S97  1  0.17900731  0.99724381  0.70093770  1  0  -0.334012  0  2.239935  0  0  -0.300279  0  2.584542  0  0  -0.317353  0  2.577857  0  0.053124  0  -0.124844  -0.288301  0  2.58853  0
S  S98  1  0.15815765  0.02676341  0.04889100  1  0  -0.335993  0  2.209914  0  0  -0.303727  0  2.55146  0  0  -0.320819  0  2.545504  0  0.05773  0  -0.13507  -0.291737  0  2.554969  0
S  S99  1  0.84184687  0.97323462  0.95110808  1  0  -0.335982  0  2.209816  0  0  -0.303707  0  2.551343  0  0  -0.320798  0  2.545386  0  0.057522  0  -0.135065  -0.291717  0  2.554853  0
N  N100  1  0.62377355  0.06563091  0.55121933  1  0  -0.53851  0  2.862521  0  0  -0.48302  0  3.142775  0  0  -0.503472  0  3.14791  0  -1.315316  0  -0.394251  -0.469123  0  3.139026  0
N  N101  1  0.37622573  0.93436712  0.44877977  1  0  -0.538541  0  2.862294  0  0  -0.483055  0  3.14255  0  0  -0.503509  0  3.147684  0  -1.315181  0  -0.394215  -0.469156  0  3.138802  0
N  N102  1  0.33480944  0.00599472  0.30419621  1  0  -0.533002  0  2.865395  0  0  -0.478081  0  3.148674  0  0  -0.498783  0  3.154276  0  -1.291508  0  -0.39743  -0.46398  0  3.144513  0
N  N103  1  0.66519444  0.99399936  0.69580174  1  0  -0.53294  0  2.865021  0  0  -0.478014  0  3.148294  0  0  -0.498718  0  3.153901  0  -1.291631  0  -0.39738  -0.463912  0  3.144133  0
N  N104  1  0.66654519  0.96263152  0.19702706  1  0  -0.522385  0  2.870942  0  0  -0.466977  0  3.15305  0  0  -0.487118  0  3.158894  0  -1.290667  0  -0.388021  -0.453249  0  3.148692  0
N  N105  1  0.33345999  0.03736783  0.80297366  1  0  -0.522445  0  2.870938  0  0  -0.467045  0  3.153055  0  0  -0.487185  0  3.158895  0  -1.29077  0  -0.388033  -0.453316  0  3.148699  0
N  N106  1  0.41888098  0.28208259  0.37604109  1  0  -0.33517  0  3.290113  0  0  -0.254538  0  3.546466  0  0  -0.275559  0  3.569275  0  -1.219617  0  -0.329673  -0.240195  0  3.530543  0
N  N107  1  0.58111568  0.71791808  0.62395751  1  0  -0.335197  0  3.290003  0  0  -0.254548  0  3.546345  0  0  -0.275568  0  3.569155  0  -1.219661  0  -0.329702  -0.240204  0  3.530418  0
N  N108  1  0.72865654  0.65924784  0.37231661  1  0  -0.334421  0  3.292671  0  0  -0.253136  0  3.548317  0  0  -0.274193  0  3.571141  0  -1.251054  0  -0.33082  -0.238728  0  3.532262  0
N  N109  1  0.27134405  0.34075283  0.62768366  1  0  -0.334399  0  3.29266  0  0  -0.253132  0  3.548333  0  0  -0.274186  0  3.571149  0  -1.251033  0  -0.330812  -0.238725  0  3.532278  0
N  N110  1  0.27572307  0.30100767  0.12751335  1  0  -0.33451  0  3.304266  0  0  -0.253687  0  3.558912  0  0  -0.274729  0  3.581845  0  -1.243064  0  -0.331905  -0.239378  0  3.542972  0
N  N111  1  0.72428080  0.69898905  0.87248704  1  0  -0.33464  0  3.304375  0  0  -0.253847  0  3.559045  0  0  -0.274888  0  3.581972  0  -1.242984  0  -0.331976  -0.239538  0  3.543109  0
N  N112  1  0.58910690  0.68118279  0.12349785  1  0  -0.33609  0  3.305313  0  0  -0.254448  0  3.559628  0  0  -0.275446  0  3.582225  0  -1.223199  0  -0.331926  -0.240092  0  3.54371  0
N  N113  1  0.41088976  0.31881787  0.87650327  1  0  -0.336124  0  3.305329  0  0  -0.254505  0  3.559649  0  0  -0.275502  0  3.58224  0  -1.223178  0  -0.331919  -0.240157  0  3.543754  0
N  N114  1  0.36023556  0.97424802  0.94712967  1  0  -0.528259  0  2.864186  0  0  -0.472702  0  3.146599  0  0  -0.493234  0  3.152386  0  -1.310709  0  -0.394486  -0.458722  0  3.142315  0
N  N115  1  0.63977028  0.02574474  0.05287042  1  0  -0.528225  0  2.864206  0  0  -0.472668  0  3.146615  0  0  -0.493198  0  3.152403  0  -1.310359  0  -0.394469  -0.458689  0  3.142333  0
