# generated using pymatgen
data_CuH4C8N5
_symmetry_space_group_name_H-M   'P 1'
_cell_length_a   8.06007887
_cell_length_b   9.19631850
_cell_length_c   10.35476886
_cell_angle_alpha   90.00043351
_cell_angle_beta   90.00025387
_cell_angle_gamma   90.37039114
_symmetry_Int_Tables_number   1
_chemical_formula_structural   CuH4C8N5
_chemical_formula_sum   'Cu4 H16 C32 N20'
_cell_volume   767.51103726
_cell_formula_units_Z   4
loop_
 _symmetry_equiv_pos_site_id
 _symmetry_equiv_pos_as_xyz
  1  'x, y, z'
loop_
 _atom_site_type_symbol
 _atom_site_label
 _atom_site_symmetry_multiplicity
 _atom_site_fract_x
 _atom_site_fract_y
 _atom_site_fract_z
 _atom_site_occupancy
 _atom_site_hle17_bader_spin_density
 _atom_site_hle17_ddec_charge
 _atom_site_hle17_ddec_spin_density
 _atom_site_hle17_ddec_sum_bond_order
 _atom_site_hle17_magmom
 _atom_site_hse06_10hf_bader_spin_density
 _atom_site_hse06_10hf_ddec_charge
 _atom_site_hse06_10hf_ddec_spin_density
 _atom_site_hse06_10hf_ddec_sum_bond_order
 _atom_site_hse06_10hf_magmom
 _atom_site_hse06_bader_spin_density
 _atom_site_hse06_ddec_charge
 _atom_site_hse06_ddec_spin_density
 _atom_site_hse06_ddec_sum_bond_order
 _atom_site_hse06_magmom
 _atom_site_pbe_bader_spin_density
 _atom_site_pbe_cm5_charge
 _atom_site_pbe_ddec_charge
 _atom_site_pbe_ddec_spin_density
 _atom_site_pbe_ddec_sum_bond_order
 _atom_site_pbe_magmom
Cu  Cu0  1  0.35202913  0.88434102  0.91543977  1  0  0.472635  0  2.104555  0  0  0.351892  0  2.626636  0  0  0.33594  0  2.591807  0  0  0.627568  0.367612  0  2.645722  0
Cu  Cu1  1  0.64797235  0.61565882  0.41543692  1  0  0.472651  0  2.104413  0  0  0.351908  0  2.626473  0  0  0.335931  0  2.591582  0  0  0.62754  0.367651  0  2.645645  0
Cu  Cu2  1  0.64796981  0.11565607  0.08456353  1  0  0.472592  0  2.104472  0  0  0.351845  0  2.626545  0  0  0.335899  0  2.591708  0  0  0.627512  0.367558  0  2.645685  0
Cu  Cu3  1  0.35203159  0.38434150  0.58456349  1  0  0.472649  0  2.104503  0  0  0.351941  0  2.626556  0  0  0.335984  0  2.591724  0  0  0.627569  0.367658  0  2.645605  0
H  H4  1  0.36517144  0.57693596  0.93472649  1  0  0.099287  0  1.001038  0  0  0.099433  0  1.07954  0  0  0.104152  0  1.075777  0  0  0.102815  0.095743  0  1.082857  0
H  H5  1  0.63482639  0.92306190  0.43472179  1  0  0.099326  0  1.001101  0  0  0.099471  0  1.079582  0  0  0.104192  0  1.075815  0  0  0.102821  0.095781  0  1.082901  0
H  H6  1  0.63483126  0.42306437  0.06527488  1  0  0.099264  0  1.001056  0  0  0.099413  0  1.079553  0  0  0.104132  0  1.075789  0  0  0.102809  0.095724  0  1.08287  0
H  H7  1  0.36517639  0.07694387  0.56528054  1  0  0.09929  0  1.000951  0  0  0.099364  0  1.079562  0  0  0.104085  0  1.075797  0  0  0.102792  0.095674  0  1.082874  0
H  H8  1  0.08285012  0.37616404  0.32350646  1  0  0.108809  0  0.942969  0  0  0.118761  0  1.003537  0  0  0.1216  0  1.002346  0  0  0.107462  0.116469  0  1.004762  0
H  H9  1  0.91714907  0.12384648  0.82349796  1  0  0.10888  0  0.942867  0  0  0.118835  0  1.003416  0  0  0.121673  0  1.002225  0  0  0.107484  0.116544  0  1.00464  0
H  H10  1  0.91714507  0.62383199  0.67649298  1  0  0.108845  0  0.942895  0  0  0.118799  0  1.003467  0  0  0.121638  0  1.002274  0  0  0.107483  0.116507  0  1.004692  0
H  H11  1  0.08285240  0.87615386  0.17650051  1  0  0.108875  0  0.942923  0  0  0.118827  0  1.003474  0  0  0.121665  0  1.002284  0  0  0.107488  0.116536  0  1.004699  0
H  H12  1  0.16278947  0.37859427  0.90951969  1  0  0.112045  0  0.929285  0  0  0.121879  0  0.988029  0  0  0.124721  0  0.987443  0  0  0.110416  0.119483  0  0.989108  0
H  H13  1  0.83721371  0.12140282  0.40950885  1  0  0.112055  0  0.929122  0  0  0.12189  0  0.987879  0  0  0.124735  0  0.987289  0  0  0.110423  0.119494  0  0.988956  0
H  H14  1  0.83721567  0.62140278  0.09048071  1  0  0.112041  0  0.929274  0  0  0.121865  0  0.988023  0  0  0.124707  0  0.987437  0  0  0.110414  0.119473  0  0.989104  0
H  H15  1  0.16278779  0.87859969  0.59049059  1  0  0.112038  0  0.929126  0  0  0.121853  0  0.987898  0  0  0.124696  0  0.987311  0  0  0.110426  0.11946  0  0.988978  0
H  H16  1  0.29081296  0.57272755  0.34789625  1  0  0.098849  0  0.959887  0  0  0.099298  0  1.041434  0  0  0.105581  0  1.034984  0  0  0.101613  0.094729  0  1.046043  0
H  H17  1  0.70918833  0.92728476  0.84789002  1  0  0.098796  0  0.960072  0  0  0.099285  0  1.041568  0  0  0.105564  0  1.03512  0  0  0.101623  0.094715  0  1.046178  0
H  H18  1  0.70918104  0.42727174  0.65210705  1  0  0.098885  0  0.959845  0  0  0.099339  0  1.041383  0  0  0.105614  0  1.034941  0  0  0.101637  0.094767  0  1.045995  0
H  H19  1  0.29081315  0.07271667  0.15210748  1  0  0.098874  0  0.960052  0  0  0.09934  0  1.041566  0  0  0.10562  0  1.035115  0  0  0.101648  0.094771  0  1.046174  0
C  C20  1  0.10956036  0.36353534  0.11496294  1  0  0.011031  0  3.889875  0  0  0.035171  0  4.120171  0  0  0.031934  0  4.140517  0  0  0.000385  0.036296  0  4.106938  0
C  C21  1  0.89043640  0.13647231  0.61496216  1  0  0.01122  0  3.889958  0  0  0.035277  0  4.120376  0  0  0.032038  0  4.140724  0  0  0.000465  0.036404  0  4.107113  0
C  C22  1  0.89043616  0.63646611  0.88503843  1  0  0.011164  0  3.88996  0  0  0.035273  0  4.120305  0  0  0.032038  0  4.140649  0  0  0.000385  0.036405  0  4.107046  0
C  C23  1  0.10956392  0.86353456  0.38503921  1  0  0.01097  0  3.889802  0  0  0.034993  0  4.120276  0  0  0.031752  0  4.140628  0  0  0.00032  0.036114  0  4.107055  0
C  C24  1  0.34270996  0.58880598  0.14311056  1  0  0.027494  0  3.759438  0  0  0.044477  0  3.988675  0  0  0.04746  0  4.008713  0  0  0.00347  0.042064  0  3.975524  0
C  C25  1  0.65729376  0.91119477  0.64310790  1  0  0.027616  0  3.759375  0  0  0.044547  0  3.988651  0  0  0.047536  0  4.008686  0  0  0.003468  0.042133  0  3.975493  0
C  C26  1  0.65728777  0.41119329  0.85689178  1  0  0.027401  0  3.759671  0  0  0.044444  0  3.988838  0  0  0.04743  0  4.008869  0  0  0.003453  0.04203  0  3.975682  0
C  C27  1  0.34270891  0.08880339  0.35688864  1  0  0.027592  0  3.759346  0  0  0.044492  0  3.988697  0  0  0.047479  0  4.008733  0  0  0.003467  0.042078  0  3.975545  0
C  C28  1  0.46236251  0.70791332  0.15554022  1  0  0.268751  0  3.762642  0  0  0.248391  0  4.021706  0  0  0.253354  0  4.041579  0  0  0.215433  0.245408  0  4.008384  0
C  C29  1  0.53763516  0.79209301  0.65553828  1  0  0.268744  0  3.7627  0  0  0.248434  0  4.021715  0  0  0.253388  0  4.041602  0  0  0.215437  0.245448  0  4.008398  0
C  C30  1  0.53763276  0.29208706  0.84446018  1  0  0.268837  0  3.762623  0  0  0.248464  0  4.021679  0  0  0.253431  0  4.041547  0  0  0.21546  0.245481  0  4.008339  0
C  C31  1  0.46236382  0.20790734  0.34446116  1  0  0.268723  0  3.762642  0  0  0.248366  0  4.021756  0  0  0.253319  0  4.041648  0  0  0.215408  0.245377  0  4.008441  0
C  C32  1  0.30533368  0.53251957  0.02021330  1  0  -0.090138  0  3.72859  0  0  -0.109769  0  3.980553  0  0  -0.112645  0  3.997997  0  0  -0.08442  -0.108225  0  3.969656  0
C  C33  1  0.69466686  0.96748015  0.52020923  1  0  -0.090342  0  3.72873  0  0  -0.109926  0  3.980669  0  0  -0.112806  0  3.998113  0  0  -0.084415  -0.108382  0  3.969772  0
C  C34  1  0.69466649  0.46747752  0.97978806  1  0  -0.090066  0  3.728669  0  0  -0.109727  0  3.980643  0  0  -0.112603  0  3.998086  0  0  -0.084396  -0.108184  0  3.969748  0
C  C35  1  0.30533468  0.03252563  0.47978828  1  0  -0.090238  0  3.728521  0  0  -0.109821  0  3.980572  0  0  -0.1127  0  3.998018  0  0  -0.08441  -0.108273  0  3.96967  0
C  C36  1  0.14649510  0.41885657  0.23873514  1  0  -0.069471  0  3.691092  0  0  -0.092799  0  3.937833  0  0  -0.092508  0  3.957008  0  0  -0.074051  -0.092624  0  3.925456  0
C  C37  1  0.85350479  0.08114886  0.73873000  1  0  -0.069597  0  3.691056  0  0  -0.092884  0  3.937828  0  0  -0.092591  0  3.956998  0  0  -0.074067  -0.092712  0  3.925447  0
C  C38  1  0.85349891  0.58114273  0.76126429  1  0  -0.069556  0  3.691101  0  0  -0.092883  0  3.937866  0  0  -0.092593  0  3.957036  0  0  -0.074103  -0.092713  0  3.925486  0
C  C39  1  0.14649545  0.91885257  0.26126847  1  0  -0.069536  0  3.691172  0  0  -0.092804  0  3.937935  0  0  -0.092515  0  3.957109  0  0  -0.074048  -0.092629  0  3.925562  0
C  C40  1  0.19100918  0.42067372  0.00549487  1  0  -0.071048  0  3.69388  0  0  -0.095443  0  3.942312  0  0  -0.095498  0  3.962033  0  0  -0.07666  -0.095193  0  3.929683  0
C  C41  1  0.80898691  0.07932974  0.50548666  1  0  -0.071039  0  3.693641  0  0  -0.095422  0  3.942106  0  0  -0.095474  0  3.961826  0  0  -0.076764  -0.095169  0  3.929467  0
C  C42  1  0.80899346  0.57932227  0.99450650  1  0  -0.071105  0  3.693981  0  0  -0.095483  0  3.942435  0  0  -0.095537  0  3.962152  0  0  -0.076704  -0.09524  0  3.929807  0
C  C43  1  0.19101217  0.92067714  0.49451374  1  0  -0.070886  0  3.693561  0  0  -0.095229  0  3.942003  0  0  -0.095283  0  3.961726  0  0  -0.076642  -0.094984  0  3.929379  0
C  C44  1  0.98554559  0.25570223  0.09815351  1  0  0.300151  0  3.714849  0  0  0.281409  0  3.978496  0  0  0.293789  0  3.992359  0  0  0.202192  0.273661  0  3.969908  0
C  C45  1  0.01444604  0.24430097  0.59815616  1  0  0.299623  0  3.714876  0  0  0.280892  0  3.978574  0  0  0.293273  0  3.992446  0  0  0.201877  0.273143  0  3.969939  0
C  C46  1  0.01444716  0.74429599  0.90184496  1  0  0.29977  0  3.714698  0  0  0.281026  0  3.978383  0  0  0.293405  0  3.992252  0  0  0.201975  0.273273  0  3.969766  0
C  C47  1  0.98554674  0.75569943  0.40184907  1  0  0.300179  0  3.714899  0  0  0.281482  0  3.978569  0  0  0.29386  0  3.99243  0  0  0.202229  0.273735  0  3.969993  0
C  C48  1  0.26276249  0.53012950  0.25207933  1  0  -0.088123  0  3.719123  0  0  -0.111736  0  3.975595  0  0  -0.114897  0  3.993764  0  0  -0.0847  -0.110054  0  3.964197  0
C  C49  1  0.73724181  0.96987001  0.75207639  1  0  -0.08805  0  3.719227  0  0  -0.111708  0  3.975721  0  0  -0.114866  0  3.993883  0  0  -0.084692  -0.110024  0  3.964319  0
C  C50  1  0.73723646  0.46986868  0.74792203  1  0  -0.088105  0  3.719358  0  0  -0.111726  0  3.975797  0  0  -0.11488  0  3.99397  0  0  -0.084698  -0.110041  0  3.964395  0
C  C51  1  0.26275837  0.03012708  0.24791822  1  0  -0.088203  0  3.719243  0  0  -0.111811  0  3.975734  0  0  -0.114965  0  3.993887  0  0  -0.084742  -0.110128  0  3.96434  0
N  N52  1  0.47913205  0.81862426  0.07050637  1  0  -0.296177  0  3.25847  0  0  -0.246371  0  3.581129  0  0  -0.252338  0  3.585167  0  0  -0.266156  -0.243245  0  3.578268  0
N  N53  1  0.52087002  0.68137588  0.57050653  1  0  -0.296235  0  3.258449  0  0  -0.24642  0  3.581097  0  0  -0.252373  0  3.585111  0  0  -0.266133  -0.243307  0  3.57827  0
N  N54  1  0.52086316  0.18137286  0.92949306  1  0  -0.296198  0  3.258611  0  0  -0.246383  0  3.581259  0  0  -0.252351  0  3.585295  0  0  -0.266138  -0.243261  0  3.578412  0
N  N55  1  0.47913022  0.31862555  0.42949388  1  0  -0.296207  0  3.25852  0  0  -0.24637  0  3.581163  0  0  -0.252339  0  3.585202  0  0  -0.266094  -0.243242  0  3.578285  0
N  N56  1  0.60148699  0.90384334  0.11890390  1  0  -0.096786  0  3.298014  0  0  -0.058686  0  3.64023  0  0  -0.054896  0  3.64022  0  0  -0.153681  -0.061651  0  3.640029  0
N  N57  1  0.39852150  0.59615391  0.61890594  1  0  -0.096781  0  3.297979  0  0  -0.058714  0  3.640221  0  0  -0.054925  0  3.640203  0  0  -0.153695  -0.061677  0  3.639993  0
N  N58  1  0.39851191  0.09615157  0.88109650  1  0  -0.096681  0  3.298086  0  0  -0.058563  0  3.640268  0  0  -0.054769  0  3.640253  0  0  -0.153611  -0.06153  0  3.64005  0
N  N59  1  0.60148243  0.40384533  0.38109639  1  0  -0.096851  0  3.298069  0  0  -0.058772  0  3.640301  0  0  -0.054965  0  3.640255  0  0  -0.153731  -0.061747  0  3.64012  0
N  N60  1  0.87735773  0.17214390  0.08127386  1  0  -0.415833  0  3.050634  0  0  -0.37679  0  3.382052  0  0  -0.377795  0  3.37858  0  0  -0.380018  -0.377771  0  3.384485  0
N  N61  1  0.12264880  0.32786558  0.58127166  1  0  -0.415495  0  3.050356  0  0  -0.376421  0  3.381709  0  0  -0.377425  0  3.378246  0  0  -0.379814  -0.377399  0  3.384068  0
N  N62  1  0.12265247  0.82785965  0.91872365  1  0  -0.415585  0  3.050267  0  0  -0.376507  0  3.381625  0  0  -0.377507  0  3.378159  0  0  -0.379849  -0.377485  0  3.384015  0
N  N63  1  0.87735902  0.67214451  0.41872875  1  0  -0.415874  0  3.050754  0  0  -0.376833  0  3.382161  0  0  -0.377825  0  3.378659  0  0  -0.380056  -0.377821  0  3.38462  0
N  N64  1  0.57326503  0.72505780  0.25267253  1  0  -0.290743  0  3.216484  0  0  -0.238555  0  3.533408  0  0  -0.245867  0  3.541671  0  0  -0.24984  -0.233842  0  3.527344  0
N  N65  1  0.42673931  0.77494389  0.75267298  1  0  -0.290791  0  3.216521  0  0  -0.238625  0  3.533443  0  0  -0.245948  0  3.541737  0  0  -0.249848  -0.233904  0  3.527341  0
N  N66  1  0.42673020  0.27494040  0.74732787  1  0  -0.290778  0  3.216476  0  0  -0.238629  0  3.533441  0  0  -0.245952  0  3.541725  0  0  -0.24989  -0.233909  0  3.527329  0
N  N67  1  0.57326218  0.22505754  0.24732742  1  0  -0.290751  0  3.216483  0  0  -0.23856  0  3.53342  0  0  -0.245885  0  3.541716  0  0  -0.249852  -0.233841  0  3.527335  0
N  N68  1  0.65881500  0.84748083  0.22687822  1  0  -0.080709  0  2.96385  0  0  -0.070548  0  3.254165  0  0  -0.072073  0  3.264867  0  0  -0.101788  -0.068842  0  3.246977  0
N  N69  1  0.34119410  0.65251735  0.72687947  1  0  -0.080607  0  2.963768  0  0  -0.070434  0  3.254092  0  0  -0.071954  0  3.264795  0  0  -0.101735  -0.068731  0  3.246889  0
N  N70  1  0.34118142  0.15251411  0.77312315  1  0  -0.080762  0  2.963773  0  0  -0.070595  0  3.254087  0  0  -0.072117  0  3.26479  0  0  -0.101796  -0.068891  0  3.246886  0
N  N71  1  0.65880983  0.34748189  0.27312190  1  0  -0.080606  0  2.963729  0  0  -0.070431  0  3.254038  0  0  -0.071953  0  3.264736  0  0  -0.101728  -0.068726  0  3.24685  0
