# generated using pymatgen
data_TbH18C30N5O11
_symmetry_space_group_name_H-M   'P 1'
_cell_length_a   9.19087323
_cell_length_b   12.83920335
_cell_length_c   13.14992217
_cell_angle_alpha   61.35766681
_cell_angle_beta   82.24672354
_cell_angle_gamma   74.00549930
_symmetry_Int_Tables_number   1
_chemical_formula_structural   TbH18C30N5O11
_chemical_formula_sum   'Tb2 H36 C60 N10 O22'
_cell_volume   1309.12216309
_cell_formula_units_Z   2
loop_
 _symmetry_equiv_pos_site_id
 _symmetry_equiv_pos_as_xyz
  1  'x, y, z'
loop_
 _atom_site_type_symbol
 _atom_site_label
 _atom_site_symmetry_multiplicity
 _atom_site_fract_x
 _atom_site_fract_y
 _atom_site_fract_z
 _atom_site_occupancy
 _atom_site_hle17_bader_spin_density
 _atom_site_hle17_ddec_charge
 _atom_site_hle17_ddec_spin_density
 _atom_site_hle17_ddec_sum_bond_order
 _atom_site_hle17_magmom
 _atom_site_hse06_10hf_bader_spin_density
 _atom_site_hse06_10hf_ddec_charge
 _atom_site_hse06_10hf_ddec_spin_density
 _atom_site_hse06_10hf_ddec_sum_bond_order
 _atom_site_hse06_10hf_magmom
 _atom_site_hse06_bader_spin_density
 _atom_site_hse06_ddec_charge
 _atom_site_hse06_ddec_spin_density
 _atom_site_hse06_ddec_sum_bond_order
 _atom_site_hse06_magmom
 _atom_site_pbe_bader_charge
 _atom_site_pbe_bader_spin_density
 _atom_site_pbe_cm5_charge
 _atom_site_pbe_ddec_charge
 _atom_site_pbe_ddec_spin_density
 _atom_site_pbe_ddec_sum_bond_order
 _atom_site_pbe_magmom
Tb  Tb0  1  0.75015876  0.56962956  0.86161530  1  0  2.343912  0  1.679549  0  0  2.260225  0  2.050519  0  0  2.311894  0  1.998215  0  2.225078  0  1.51416  2.170289  0  2.187201  0
Tb  Tb1  1  0.24984111  0.43036778  0.13838384  1  0  2.343902  0  1.679237  0  0  2.260182  0  2.050198  0  0  2.311864  0  1.997888  0  2.225119  0  1.514209  2.170265  0  2.186852  0
H  H2  1  0.67936044  0.82826039  0.25893959  1  0  0.118275  0  0.978009  0  0  0.127132  0  1.038306  0  0  0.130252  0  1.036081  0  0.098865  0  0.107357  0.125008  0  1.039693  0
H  H3  1  0.82011798  0.91348025  0.25781505  1  0  0.118142  0  0.976894  0  0  0.127979  0  1.036002  0  0  0.13106  0  1.033833  0  0.114413  0  0.107815  0.125892  0  1.037292  0
H  H4  1  0.32063942  0.17174039  0.74105980  1  0  0.118274  0  0.978031  0  0  0.127107  0  1.038357  0  0  0.130224  0  1.03613  0  0.098884  0  0.107345  0.124985  0  1.039738  0
H  H5  1  0.17988079  0.08652063  0.74218424  1  0  0.118154  0  0.976915  0  0  0.127993  0  1.036015  0  0  0.131074  0  1.033845  0  0.114407  0  0.107819  0.125906  0  1.037304  0
H  H6  1  0.64466134  0.90476761  0.04679158  1  0  0.083172  0  0.97413  0  0  0.094436  0  1.037525  0  0  0.096318  0  1.038208  0  0.058491  0  0.09852  0.093066  0  1.037127  0
H  H7  1  0.85444422  0.04872239  0.04631365  1  0  0.082476  0  0.974169  0  0  0.093467  0  1.038004  0  0  0.09538  0  1.03865  0  0.073829  0  0.098311  0.092061  0  1.037636  0
H  H8  1  0.35533853  0.09523317  0.95320781  1  0  0.083142  0  0.974171  0  0  0.094406  0  1.037574  0  0  0.096275  0  1.038269  0  0.058502  0  0.098502  0.093035  0  1.037177  0
H  H9  1  0.14555811  0.95127617  0.95368704  1  0  0.082471  0  0.974191  0  0  0.093474  0  1.038008  0  0  0.095378  0  1.038664  0  0.073848  0  0.098327  0.092068  0  1.037641  0
H  H10  1  0.44195017  0.86325681  0.97702564  1  0  0.096142  0  0.93504  0  0  0.110835  0  0.986928  0  0  0.113112  0  0.986822  0  0.044643  0  0.105369  0.109193  0  0.987173  0
H  H11  1  0.05725312  0.15906044  0.97771649  1  0  0.096228  0  0.935104  0  0  0.111269  0  0.986334  0  0  0.113585  0  0.986195  0  0.072155  0  0.10565  0.109609  0  0.986589  0
H  H12  1  0.55804832  0.13674458  0.02297406  1  0  0.096118  0  0.93507  0  0  0.110813  0  0.986952  0  0  0.113089  0  0.986848  0  0.044626  0  0.105364  0.109172  0  0.987197  0
H  H13  1  0.94274701  0.84093907  0.02228324  1  0  0.096209  0  0.935145  0  0  0.111213  0  0.986419  0  0  0.113529  0  0.986283  0  0.072145  0  0.105636  0.109554  0  0.986672  0
H  H14  1  0.26048849  0.74588528  0.11698727  1  0  0.127923  0  0.931819  0  0  0.139628  0  0.986113  0  0  0.143116  0  0.984242  0  0.111517  0  0.11791  0.137066  0  0.987713  0
H  H15  1  0.23926743  0.13596258  0.11834820  1  0  0.128056  0  0.933615  0  0  0.139096  0  0.988819  0  0  0.14263  0  0.986835  0  0.096481  0  0.117363  0.136507  0  0.990447  0
H  H16  1  0.73950944  0.25411713  0.88301327  1  0  0.127914  0  0.931859  0  0  0.139601  0  0.986175  0  0  0.14309  0  0.984304  0  0.111518  0  0.117905  0.137038  0  0.987777  0
H  H17  1  0.76073134  0.86403906  0.88165034  1  0  0.12802  0  0.933587  0  0  0.139049  0  0.98881  0  0  0.142586  0  0.986827  0  0.096491  0  0.117343  0.136461  0  0.99044  0
H  H18  1  0.11538049  0.53798847  0.52193034  1  0  0.118161  0  0.975431  0  0  0.123464  0  1.043971  0  0  0.127624  0  1.040353  0  0.132912  0  0.111912  0.120431  0  1.046601  0
H  H19  1  0.38468727  0.93957086  0.52314503  1  0  0.117289  0  0.972518  0  0  0.12309  0  1.040686  0  0  0.12729  0  1.036977  0  0.144828  0  0.111548  0.120005  0  1.043398  0
H  H20  1  0.88462184  0.46201010  0.47807035  1  0  0.118153  0  0.975412  0  0  0.123466  0  1.043944  0  0  0.127627  0  1.040325  0  0.132911  0  0.111906  0.120428  0  1.046583  0
H  H21  1  0.61531067  0.06043154  0.47685550  1  0  0.11735  0  0.972488  0  0  0.123106  0  1.040699  0  0  0.127307  0  1.036991  0  0.145099  0  0.111551  0.120021  0  1.043414  0
H  H22  1  0.15829328  0.40122953  0.88802054  1  0  0.117997  0  0.930059  0  0  0.124495  0  0.996676  0  0  0.129381  0  0.991741  0  0.107946  0  0.121435  0.121301  0  0.999528  0
H  H23  1  0.34279606  0.71065535  0.88832242  1  0  0.119126  0  0.930375  0  0  0.125308  0  0.996927  0  0  0.130118  0  0.992107  0  0.095161  0  0.121886  0.122156  0  0.999686  0
H  H24  1  0.84170576  0.59876933  0.11197984  1  0  0.118002  0  0.930056  0  0  0.124509  0  0.996665  0  0  0.129395  0  0.991728  0  0.107953  0  0.121436  0.121314  0  0.999517  0
H  H25  1  0.65720380  0.28934543  0.11167697  1  0  0.119082  0  0.930339  0  0  0.125261  0  0.9969  0  0  0.130071  0  0.992078  0  0.095191  0  0.121865  0.122109  0  0.999656  0
H  H26  1  0.49411278  0.57234890  0.65810375  1  0  0.122342  0  1.003545  0  0  0.130811  0  1.069643  0  0  0.134872  0  1.065273  0  0.161359  0  0.114264  0.128094  0  1.071949  0
H  H27  1  0.00604154  0.77001758  0.65793907  1  0  0.120785  0  1.002926  0  0  0.129538  0  1.068625  0  0  0.133576  0  1.064291  0  0.162116  0  0.114038  0.126798  0  1.070987  0
H  H28  1  0.50588791  0.42765002  0.34189842  1  0  0.122292  0  1.003543  0  0  0.130781  0  1.06962  0  0  0.134842  0  1.065251  0  0.161361  0  0.114268  0.128084  0  1.071898  0
H  H29  1  0.99395997  0.22997982  0.34206186  1  0  0.120767  0  1.002891  0  0  0.129523  0  1.068587  0  0  0.133559  0  1.064254  0  0.162536  0  0.114036  0.126782  0  1.07095  0
H  H30  1  0.18972491  0.63488899  0.35462075  1  0  0.33003  0  0.932835  0  0  0.302817  0  1.002428  0  0  0.314277  0  0.992978  0  0.584945  0  0.302884  0.294943  0  1.00892  0
H  H31  1  0.30984506  0.01064094  0.35513309  1  0  0.330833  0  0.932508  0  0  0.303073  0  1.002978  0  0  0.314547  0  0.993556  0  0.585238  0  0.30301  0.295203  0  1.009421  0
H  H32  1  0.81027578  0.36511145  0.64537991  1  0  0.329963  0  0.932935  0  0  0.302738  0  1.002538  0  0  0.314198  0  0.993091  0  0.584943  0  0.302882  0.294865  0  1.009025  0
H  H33  1  0.69015316  0.98936095  0.64486703  1  0  0.330861  0  0.932437  0  0  0.303115  0  1.002895  0  0  0.314587  0  0.993473  0  0.585243  0  0.30305  0.295244  0  1.00934  0
H  H34  1  0.54297571  0.69171631  0.48075013  1  0  0.321346  0  0.899879  0  0  0.295772  0  0.972323  0  0  0.305306  0  0.963673  0  0.540366  0  0.317123  0.288849  0  0.978669  0
H  H35  1  0.95698037  0.82809089  0.47969055  1  0  0.323565  0  0.89605  0  0  0.297748  0  0.968928  0  0  0.307303  0  0.960185  0  0.544714  0  0.31832  0.290809  0  0.97532  0
H  H36  1  0.45702497  0.30828564  0.51924902  1  0  0.321355  0  0.899849  0  0  0.295775  0  0.972321  0  0  0.305308  0  0.963671  0  0.540387  0  0.317102  0.288847  0  0.978672  0
H  H37  1  0.04301839  0.17190924  0.52030949  1  0  0.323591  0  0.896016  0  0  0.297776  0  0.968892  0  0  0.30733  0  0.96015  0  0.544667  0  0.318334  0.290843  0  0.975278  0
C  C38  1  0.48652720  0.74916355  0.30362603  1  0  0.161257  0  3.771634  0  0  0.151037  0  4.020614  0  0  0.154534  0  4.043548  0  0.375034  0  0.10004  0.148599  0  4.005586  0
C  C39  1  0.01331716  0.94720567  0.30336570  1  0  0.162313  0  3.773778  0  0  0.151017  0  4.023595  0  0  0.154585  0  4.04656  0  0.337726  0  0.101098  0.148531  0  4.008556  0
C  C40  1  0.51347157  0.25083658  0.69637402  1  0  0.161181  0  3.771715  0  0  0.151052  0  4.020608  0  0  0.15455  0  4.043542  0  0.37502  0  0.100004  0.148608  0  4.005586  0
C  C41  1  0.98668023  0.05279582  0.69663391  1  0  0.162367  0  3.773821  0  0  0.151112  0  4.023571  0  0  0.154679  0  4.046539  0  0.337906  0  0.101155  0.148624  0  4.008523  0
C  C42  1  0.58795693  0.81375966  0.22694484  1  0  -0.138709  0  3.735703  0  0  -0.159435  0  3.987204  0  0  -0.162143  0  4.007673  0  0.006214  0  -0.088466  -0.157652  0  3.973301  0
C  C43  1  0.91163741  0.95955126  0.22634304  1  0  -0.139466  0  3.735764  0  0  -0.160502  0  3.987101  0  0  -0.163231  0  4.007596  0  0.053374  0  -0.089289  -0.158692  0  3.973173  0
C  C44  1  0.41204293  0.18624112  0.77305455  1  0  -0.138749  0  3.735777  0  0  -0.159476  0  3.987267  0  0  -0.162181  0  4.007729  0  0.006219  0  -0.088474  -0.157692  0  3.973364  0
C  C45  1  0.08836218  0.04045003  0.77365677  1  0  -0.139504  0  3.735758  0  0  -0.160557  0  3.987097  0  0  -0.163288  0  4.007591  0  0.053103  0  -0.089327  -0.158747  0  3.973167  0
C  C46  1  0.56753048  0.85439988  0.10973167  1  0  -0.070434  0  3.77676  0  0  -0.086929  0  4.031957  0  0  -0.089836  0  4.055948  0  0.012226  0  -0.092643  -0.084759  0  4.015721  0
C  C47  1  0.93180316  0.03595598  0.10948852  1  0  -0.068836  0  3.773776  0  0  -0.085327  0  4.029575  0  0  -0.08822  0  4.053579  0  -0.070065  0  -0.092256  -0.083156  0  4.013346  0
C  C48  1  0.43247021  0.14560056  0.89026899  1  0  -0.070442  0  3.776871  0  0  -0.086947  0  4.032088  0  0  -0.089843  0  4.056084  0  0.012222  0  -0.092652  -0.084776  0  4.015851  0
C  C49  1  0.06819698  0.96404429  0.89051045  1  0  -0.068796  0  3.773796  0  0  -0.085291  0  4.029582  0  0  -0.088179  0  4.053589  0  -0.070035  0  -0.092238  -0.083123  0  4.013352  0
C  C50  1  0.45047368  0.83184506  0.06962221  1  0  -0.061469  0  3.760914  0  0  -0.07946  0  4.020124  0  0  -0.081356  0  4.042214  0  -0.094726  0  -0.0886  -0.07834  0  4.005602  0
C  C51  1  0.04891535  0.09812130  0.07004629  1  0  -0.063449  0  3.762186  0  0  -0.081551  0  4.021312  0  0  -0.083573  0  4.043478  0  -0.014542  0  -0.089344  -0.08036  0  4.006745  0
C  C52  1  0.54952453  0.16815534  0.93037942  1  0  -0.061384  0  3.760843  0  0  -0.079374  0  4.020048  0  0  -0.081272  0  4.042137  0  -0.094747  0  -0.08855  -0.078254  0  4.005525  0
C  C53  1  0.95108451  0.90188024  0.92995235  1  0  -0.063445  0  3.762174  0  0  -0.081509  0  4.021298  0  0  -0.083531  0  4.043463  0  -0.014987  0  -0.089343  -0.080318  0  4.006734  0
C  C54  1  0.34846299  0.76792270  0.14559734  1  0  -0.136401  0  3.711307  0  0  -0.15683  0  3.96632  0  0  -0.159471  0  3.98553  0  0.065296  0  -0.085038  -0.155272  0  3.954112  0
C  C55  1  0.15121487  0.08575158  0.14638062  1  0  -0.135857  0  3.715161  0  0  -0.156399  0  3.969831  0  0  -0.158966  0  3.989061  0  -0.015456  0  -0.08407  -0.15485  0  3.957616  0
C  C56  1  0.65153632  0.23207909  0.85440288  1  0  -0.136375  0  3.7112  0  0  -0.156789  0  3.966219  0  0  -0.159431  0  3.985432  0  0.065316  0  -0.085015  -0.15523  0  3.954011  0
C  C57  1  0.84878252  0.91425067  0.85361823  1  0  -0.135784  0  3.715099  0  0  -0.156333  0  3.969767  0  0  -0.158898  0  3.988993  0  -0.014968  0  -0.084047  -0.154797  0  3.95755  0
C  C58  1  0.36900901  0.72711427  0.26326205  1  0  0.157239  0  3.786964  0  0  0.146607  0  4.036239  0  0  0.15012  0  4.059142  0  0.401096  0  0.101104  0.144019  0  4.021161  0
C  C59  1  0.13084646  0.00915493  0.26367891  1  0  0.156578  0  3.790507  0  0  0.147621  0  4.037703  0  0  0.151045  0  4.060742  0  0.398805  0  0.10085  0.14503  0  4.022607  0
C  C60  1  0.63099112  0.27288793  0.73673869  1  0  0.157365  0  3.786852  0  0  0.146691  0  4.036132  0  0  0.150204  0  4.059033  0  0.401242  0  0.101162  0.144104  0  4.021056  0
C  C61  1  0.86915203  0.99084721  0.73632004  1  0  0.156544  0  3.79052  0  0  0.147623  0  4.037667  0  0  0.151044  0  4.060707  0  0.398871  0  0.100896  0.145058  0  4.022539  0
C  C62  1  0.35761062  0.63772775  0.45590006  1  0  0.378139  0  3.688817  0  0  0.329035  0  3.966521  0  0  0.349761  0  3.977104  0  0.989962  0  0.247744  0.315304  0  3.959295  0
C  C63  1  0.14234408  0.90635069  0.45621735  1  0  0.377397  0  3.690473  0  0  0.327545  0  3.969383  0  0  0.348363  0  3.97998  0  1.002132  0  0.246469  0.313722  0  3.96219  0
C  C64  1  0.64238732  0.36227541  0.54409972  1  0  0.378127  0  3.688808  0  0  0.329108  0  3.966418  0  0  0.349835  0  3.977002  0  0.989949  0  0.247769  0.315371  0  3.959196  0
C  C65  1  0.85765578  0.09364934  0.54378279  1  0  0.37734  0  3.690515  0  0  0.327489  0  3.969441  0  0  0.348305  0  3.980038  0  1.002242  0  0.246435  0.313671  0  3.962248  0
C  C66  1  0.30945602  0.56769707  0.57403202  1  0  -0.041572  0  3.830663  0  0  -0.0183  0  4.080464  0  0  -0.026704  0  4.103977  0  -0.04299  0  -0.016256  -0.013369  0  4.064466  0
C  C67  1  0.19057780  0.85831726  0.57453341  1  0  -0.043869  0  3.830809  0  0  -0.020665  0  4.081352  0  0  -0.02911  0  4.104898  0  -0.005473  0  -0.016512  -0.015713  0  4.065348  0
C  C68  1  0.69054301  0.43230523  0.42596862  1  0  -0.04156  0  3.830648  0  0  -0.018311  0  4.080461  0  0  -0.026715  0  4.103974  0  -0.043111  0  -0.016254  -0.013376  0  4.064461  0
C  C69  1  0.80942206  0.14168277  0.42546674  1  0  -0.043902  0  3.830749  0  0  -0.020688  0  4.081266  0  0  -0.029132  0  4.104811  0  -0.00546  0  -0.016531  -0.015736  0  4.065262  0
C  C70  1  0.17922595  0.52384015  0.59337087  1  0  -0.062575  0  3.64952  0  0  -0.105357  0  3.90399  0  0  -0.100292  0  3.919254  0  -0.021228  0  -0.072447  -0.107361  0  3.892798  0
C  C71  1  0.32100713  0.88243905  0.59428058  1  0  -0.060992  0  3.645927  0  0  -0.103968  0  3.900348  0  0  -0.098896  0  3.915626  0  -0.05826  0  -0.071664  -0.10597  0  3.889159  0
C  C72  1  0.82077529  0.47616002  0.40662821  1  0  -0.062528  0  3.649518  0  0  -0.105321  0  3.903984  0  0  -0.100255  0  3.919247  0  -0.021233  0  -0.072425  -0.107326  0  3.89279  0
C  C73  1  0.67899301  0.11756240  0.40572091  1  0  -0.061001  0  3.645938  0  0  -0.103937  0  3.90036  0  0  -0.098866  0  3.915639  0  -0.058537  0  -0.071635  -0.105937  0  3.889167  0
C  C74  1  0.12575517  0.46375776  0.70575823  1  0  -0.065716  0  3.748156  0  0  -0.038377  0  3.987081  0  0  -0.048044  0  4.008753  0  0.013227  0  -0.007044  -0.03249  0  3.971945  0
C  C75  1  0.37494802  0.83001138  0.70662236  1  0  -0.065765  0  3.747445  0  0  -0.039139  0  3.986618  0  0  -0.04884  0  4.008351  0  0.004058  0  -0.008007  -0.033271  0  3.97153  0
C  C76  1  0.87424634  0.53624115  0.29424118  1  0  -0.065765  0  3.748156  0  0  -0.038441  0  3.987068  0  0  -0.048109  0  4.00874  0  0.013397  0  -0.007051  -0.032553  0  3.971931  0
C  C77  1  0.62505129  0.16998891  0.29337937  1  0  -0.065846  0  3.747474  0  0  -0.039265  0  3.986649  0  0  -0.048966  0  4.008382  0  0.004347  0  -0.008071  -0.033397  0  3.971561  0
C  C78  1  0.98112681  0.42574549  0.71794195  1  0  0.699851  0  3.87485  0  0  0.647672  0  4.176511  0  0  0.682517  0  4.166125  0  1.604566  0  0.226567  0.624151  0  4.180853  0
C  C79  1  0.52010729  0.85523193  0.71893799  1  0  0.699886  0  3.878021  0  0  0.649147  0  4.177266  0  0  0.683973  0  4.166953  0  1.602317  0  0.227324  0.625613  0  4.181658  0
C  C80  1  0.01887746  0.57425136  0.28205030  1  0  0.699907  0  3.874807  0  0  0.647797  0  4.176356  0  0  0.682644  0  4.16597  0  1.604318  0  0.226662  0.624277  0  4.180696  0
C  C81  1  0.47988406  0.14477905  0.28105767  1  0  0.699876  0  3.878332  0  0  0.649226  0  4.177431  0  0  0.684053  0  4.167115  0  1.602434  0  0.227377  0.625692  0  4.18182  0
C  C82  1  0.20281257  0.44462676  0.80038704  1  0  -0.039159  0  3.645671  0  0  -0.079339  0  3.895015  0  0  -0.073731  0  3.910776  0  -0.005987  0  -0.056689  -0.082915  0  3.884544  0
C  C83  1  0.29795377  0.75487981  0.80083071  1  0  -0.039317  0  3.644327  0  0  -0.078913  0  3.893816  0  0  -0.073245  0  3.909558  0  0.013026  0  -0.056849  -0.082496  0  3.883365  0
C  C84  1  0.79718593  0.55537119  0.19961241  1  0  -0.039076  0  3.645692  0  0  -0.079271  0  3.895025  0  0  -0.073662  0  3.910785  0  -0.00593  0  -0.056662  -0.082847  0  3.884555  0
C  C85  1  0.70204554  0.24512123  0.19917026  1  0  -0.039247  0  3.644231  0  0  -0.078841  0  3.893733  0  0  -0.073171  0  3.90947  0  0.012747  0  -0.056796  -0.082421  0  3.883278  0
C  C86  1  0.33813798  0.48183048  0.78192512  1  0  -0.080231  0  3.73437  0  0  -0.049021  0  3.960839  0  0  -0.060476  0  3.985914  0  -0.020188  0  -0.010916  -0.042826  0  3.946445  0
C  C87  1  0.16248566  0.73628952  0.78217922  1  0  -0.081801  0  3.732865  0  0  -0.050743  0  3.959269  0  0  -0.06225  0  3.984453  0  -0.101006  0  -0.011258  -0.044459  0  3.944723  0
C  C88  1  0.66186353  0.51816919  0.21807355  1  0  -0.080322  0  3.734452  0  0  -0.049041  0  3.96094  0  0  -0.060499  0  3.98602  0  -0.020317  0  -0.010891  -0.042846  0  3.946552  0
C  C89  1  0.83751476  0.26371024  0.21781934  1  0  -0.081656  0  3.732615  0  0  -0.050608  0  3.959012  0  0  -0.062112  0  3.984195  0  -0.100814  0  -0.01124  -0.044326  0  3.944466  0
C  C90  1  0.39041441  0.54324801  0.66923899  1  0  -0.073071  0  3.666199  0  0  -0.116217  0  3.917244  0  0  -0.111762  0  3.935299  0  -0.041145  0  -0.076637  -0.117989  0  3.904907  0
C  C91  1  0.10981551  0.78773646  0.66947816  1  0  -0.07054  0  3.663616  0  0  -0.113342  0  3.914144  0  0  -0.108848  0  3.932256  0  0.018222  0  -0.076525  -0.115149  0  3.901791  0
C  C92  1  0.60958408  0.45675187  0.33076222  1  0  -0.073003  0  3.665948  0  0  -0.116185  0  3.917025  0  0  -0.111729  0  3.935079  0  -0.041009  0  -0.076664  -0.117971  0  3.904674  0
C  C93  1  0.89018710  0.21226235  0.33052136  1  0  -0.070602  0  3.663389  0  0  -0.11341  0  3.91395  0  0  -0.108918  0  3.932062  0  0.017872  0  -0.076555  -0.115217  0  3.901599  0
C  C94  1  0.42534072  0.46252527  0.88133882  1  0  0.741791  0  3.844035  0  0  0.694668  0  4.134775  0  0  0.730149  0  4.124412  0  1.614293  0  0.241978  0.670031  0  4.138572  0
C  C95  1  0.07613780  0.65575011  0.88129708  1  0  0.743259  0  3.844627  0  0  0.696752  0  4.134786  0  0  0.732177  0  4.124457  0  1.639008  0  0.241731  0.672113  0  4.138655  0
C  C96  1  0.57465174  0.53746063  0.11867453  1  0  0.74197  0  3.843981  0  0  0.694697  0  4.134939  0  0  0.730179  0  4.124579  0  1.61441  0  0.241983  0.670058  0  4.13873  0
C  C97  1  0.92387633  0.34424483  0.11870815  1  0  0.743241  0  3.844491  0  0  0.696758  0  4.134638  0  0  0.732178  0  4.124326  0  1.638313  0  0.241817  0.672119  0  4.138504  0
N  N98  1  0.29240341  0.65863131  0.35982355  1  0  -0.363101  0  3.306822  0  0  -0.29985  0  3.540433  0  0  -0.318204  0  3.550912  0  -1.290087  0  -0.349469  -0.287426  0  3.532875  0
N  N99  1  0.20752689  0.98108408  0.36054480  1  0  -0.363553  0  3.308639  0  0  -0.299872  0  3.541849  0  0  -0.318412  0  3.552659  0  -1.289926  0  -0.349111  -0.287331  0  3.534126  0
N  N100  1  0.70759453  0.34137109  0.64017699  1  0  -0.363106  0  3.30683  0  0  -0.299853  0  3.540422  0  0  -0.318206  0  3.550901  0  -1.290085  0  -0.349489  -0.287428  0  3.532865  0
N  N101  1  0.79247434  0.01891684  0.63945353  1  0  -0.363481  0  3.308593  0  0  -0.299845  0  3.541837  0  0  -0.31838  0  3.552645  0  -1.290052  0  -0.349131  -0.287314  0  3.534108  0
N  N102  1  0.47468003  0.69262991  0.42368314  1  0  -0.363386  0  3.345941  0  0  -0.30337  0  3.582179  0  0  -0.321635  0  3.593189  0  -1.300374  0  -0.358947  -0.291417  0  3.575333  0
N  N103  1  0.02522574  0.88393931  0.42332717  1  0  -0.363785  0  3.344277  0  0  -0.303779  0  3.581655  0  0  -0.321836  0  3.592074  0  -1.276247  0  -0.359079  -0.291877  0  3.575092  0
N  N104  1  0.52532010  0.30737229  0.57631760  1  0  -0.363367  0  3.345933  0  0  -0.303421  0  3.582145  0  0  -0.321688  0  3.593162  0  -1.300472  0  -0.358918  -0.291455  0  3.575295  0
N  N105  1  0.97477275  0.11606057  0.57667405  1  0  -0.363874  0  3.344383  0  0  -0.303893  0  3.581777  0  0  -0.32195  0  3.592195  0  -1.276201  0  -0.359135  -0.292002  0  3.575219  0
N  N106  1  0.75023342  0.72249780  0.55459797  1  0  0.691177  0  4.170985  0  0  0.727907  0  4.455681  0  0  0.755219  0  4.460814  0  0.807989  0  0.103046  0.709307  0  4.450753  0
N  N107  1  0.24976617  0.27750424  0.44540108  1  0  0.691247  0  4.170714  0  0  0.727924  0  4.455486  0  0  0.755233  0  4.460619  0  0.808108  0  0.103021  0.709324  0  4.450557  0
O  O108  1  0.96481289  0.38283847  0.65250227  1  0  -0.585587  0  1.968004  0  0  -0.538694  0  2.191666  0  0  -0.562744  0  2.182278  0  -1.175919  0  -0.308613  -0.522855  0  2.198091  0
O  O109  1  0.53697987  0.96241682  0.65397749  1  0  -0.586652  0  1.968913  0  0  -0.540181  0  2.192416  0  0  -0.564269  0  2.183026  0  -1.179586  0  -0.309765  -0.524327  0  2.198847  0
O  O110  1  0.03519082  0.61716216  0.34749911  1  0  -0.585827  0  1.967582  0  0  -0.538961  0  2.191198  0  0  -0.563015  0  2.181815  0  -1.175703  0  -0.30877  -0.52311  0  2.197601  0
O  O111  1  0.46301916  0.03757869  0.34602993  1  0  -0.586708  0  1.968601  0  0  -0.540267  0  2.192059  0  0  -0.564358  0  2.182669  0  -1.179526  0  -0.309822  -0.524406  0  2.198488  0
O  O112  1  0.88266001  0.44080925  0.79084498  1  0  -0.76914  0  2.07634  0  0  -0.729006  0  2.347075  0  0  -0.754638  0  2.33254  0  -1.204065  0  -0.428512  -0.703172  0  2.357941  0
O  O113  1  0.61814950  0.76812460  0.79119161  1  0  -0.769184  0  2.076882  0  0  -0.729697  0  2.347336  0  0  -0.755132  0  2.332534  0  -1.210308  0  -0.427913  -0.70395  0  2.358262  0
O  O114  1  0.11733573  0.55919260  0.20915611  1  0  -0.769035  0  2.076651  0  0  -0.728924  0  2.347363  0  0  -0.754556  0  2.332829  0  -1.204239  0  -0.428449  -0.703097  0  2.358228  0
O  O115  1  0.38185476  0.23186899  0.20881497  1  0  -0.769093  0  2.077544  0  0  -0.729624  0  2.347926  0  0  -0.755053  0  2.333113  0  -1.210407  0  -0.427851  -0.703898  0  2.358884  0
O  O116  1  0.37048539  0.41244724  0.98219724  1  0  -0.754097  0  2.08481  0  0  -0.712052  0  2.349883  0  0  -0.737733  0  2.336541  0  -1.199874  0  -0.411922  -0.685717  0  2.359772  0
O  O117  1  0.13252652  0.60362278  0.98170564  1  0  -0.75362  0  2.081656  0  0  -0.711722  0  2.345724  0  0  -0.737236  0  2.332375  0  -1.204968  0  -0.408496  -0.685628  0  2.355871  0
O  O118  1  0.62951998  0.58754724  0.01779738  1  0  -0.754388  0  2.084201  0  0  -0.712321  0  2.349416  0  0  -0.738008  0  2.336082  0  -1.19965  0  -0.412061  -0.685978  0  2.359299  0
O  O119  1  0.86747445  0.39637663  0.01828404  1  0  -0.753795  0  2.081248  0  0  -0.711872  0  2.34525  0  0  -0.73739  0  2.33191  0  -1.204531  0  -0.408628  -0.68577  0  2.355393  0
O  O120  1  0.54778226  0.49758743  0.85876688  1  0  -0.762166  0  2.043794  0  0  -0.726905  0  2.318453  0  0  -0.751138  0  2.302438  0  -1.20639  0  -0.404986  -0.701259  0  2.3307  0
O  O121  1  0.95288193  0.64405175  0.85881668  1  0  -0.764618  0  2.041831  0  0  -0.729686  0  2.316671  0  0  -0.753971  0  2.30067  0  -1.217038  0  -0.406006  -0.703921  0  2.328859  0
O  O122  1  0.45223051  0.50240577  0.14123363  1  0  -0.761984  0  2.044211  0  0  -0.726672  0  2.31896  0  0  -0.750899  0  2.302938  0  -1.206576  0  -0.404845  -0.701035  0  2.331206  0
O  O123  1  0.04711191  0.35594669  0.14117952  1  0  -0.764474  0  2.042131  0  0  -0.729545  0  2.316949  0  0  -0.753829  0  2.300955  0  -1.217104  0  -0.405974  -0.703789  0  2.32914  0
O  O124  1  0.64800912  0.66648823  0.61111697  1  0  -0.509476  0  1.8403  0  0  -0.504031  0  2.069174  0  0  -0.519755  0  2.063707  0  -0.592023  0  -0.181339  -0.489694  0  2.070847  0
O  O125  1  0.85298592  0.72085542  0.61170435  1  0  -0.508557  0  1.837647  0  0  -0.50367  0  2.067133  0  0  -0.519283  0  2.061545  0  -0.593099  0  -0.181079  -0.489393  0  2.068878  0
O  O126  1  0.35199073  0.33351297  0.38888569  1  0  -0.509521  0  1.840289  0  0  -0.504072  0  2.069189  0  0  -0.519802  0  2.063734  0  -0.59203  0  -0.181358  -0.489739  0  2.070865  0
O  O127  1  0.14701476  0.27914728  0.38829405  1  0  -0.508505  0  1.837568  0  0  -0.503591  0  2.067056  0  0  -0.519202  0  2.061467  0  -0.593183  0  -0.181013  -0.489314  0  2.068802  0
O  O128  1  0.74953906  0.77742832  0.44636023  1  0  -0.428556  0  1.76135  0  0  -0.416862  0  1.963005  0  0  -0.429107  0  1.957096  0  -0.482791  0  -0.171185  -0.408649  0  1.967646  0
O  O129  1  0.25045943  0.22257080  0.55364174  1  0  -0.428617  0  1.76112  0  0  -0.416907  0  1.962828  0  0  -0.42914  0  1.956897  0  -0.482829  0  -0.171189  -0.408693  0  1.967468  0
