# generated using pymatgen
data_AlH24C45(ClO2)3
_symmetry_space_group_name_H-M   'P 1'
_cell_length_a   3.95450570
_cell_length_b   23.51615495
_cell_length_c   23.52763922
_cell_angle_alpha   60.04776195
_cell_angle_beta   87.01553745
_cell_angle_gamma   86.73529622
_symmetry_Int_Tables_number   1
_chemical_formula_structural   AlH24C45(ClO2)3
_chemical_formula_sum   'Al1 H24 C45 Cl3 O6'
_cell_volume   1891.94629434
_cell_formula_units_Z   1
loop_
 _symmetry_equiv_pos_site_id
 _symmetry_equiv_pos_as_xyz
  1  'x, y, z'
loop_
 _atom_site_type_symbol
 _atom_site_label
 _atom_site_symmetry_multiplicity
 _atom_site_fract_x
 _atom_site_fract_y
 _atom_site_fract_z
 _atom_site_occupancy
 _atom_site_pbe_bader_charge
 _atom_site_pbe_bader_spin_density
 _atom_site_pbe_cm5_charge
 _atom_site_pbe_ddec_charge
 _atom_site_pbe_ddec_spin_density
 _atom_site_pbe_ddec_sum_bond_order
 _atom_site_pbe_magmom
Al  Al0  1  0.99008440  0.49971790  0.50045059  1  2.50478  0  0.422046  1.596794  0  2.570809  0
H  H1  1  0.51240882  0.32089759  0.68086392  1  0.071068  0  0.110411  0.115416  0  0.978036  0
H  H2  1  0.51090516  0.25789314  0.80243490  1  0.051061  0  0.100039  0.097857  0  1.008933  0
H  H3  1  0.82329094  0.22584818  0.89182403  1  0.054978  0  0.099221  0.097179  0  1.009874  0
H  H4  1  0.83666102  0.16520536  0.01220789  1  0.092955  0  0.098169  0.097157  0  1.006395  0
H  H5  1  0.47730228  0.80458375  0.25494837  1  0.067076  0  0.101961  0.113223  0  1.010483  0
H  H6  1  0.22713724  0.89833769  0.22470886  1  0.063919  0  0.100181  0.100728  0  1.0053  0
H  H7  1  0.24102973  0.01812420  0.16502969  1  0.043922  0  0.098934  0.098207  0  1.009584  0
H  H8  1  0.52661650  0.10584171  0.10523955  1  0.058332  0  0.096785  0.092655  0  1.033305  0
H  H9  1  0.54391837  0.67942481  0.49710871  1  0.045249  0  0.11076  0.11614  0  0.979687  0
H  H10  1  0.53989539  0.80086850  0.43950526  1  0.03442  0  0.100593  0.099151  0  1.010255  0
H  H11  1  0.80264443  0.89146877  0.37883425  1  0.057106  0  0.099368  0.097422  0  1.01065  0
H  H12  1  0.81587289  0.01134549  0.31909280  1  0.065273  0  0.098927  0.098734  0  1.00784  0
H  H13  1  0.55418037  0.25499895  0.43915219  1  0.066421  0  0.101795  0.11253  0  1.010257  0
H  H14  1  0.26067724  0.22796164  0.38029129  1  0.037292  0  0.100201  0.100702  0  1.005003  0
H  H15  1  0.25837775  0.16754140  0.32048360  1  0.058859  0  0.098787  0.097836  0  1.00694  0
H  H16  1  0.54888778  0.10531918  0.28805514  1  0.017196  0  0.097041  0.093691  0  1.032796  0
H  H17  1  0.59167899  0.49779029  0.32145189  1  0.079595  0  0.110579  0.115228  0  0.979527  0
H  H18  1  0.58492518  0.44006861  0.25763089  1  0.010937  0  0.100623  0.09906  0  1.008403  0
H  H19  1  0.85831996  0.37666884  0.22350611  1  0.061437  0  0.099411  0.097782  0  1.009233  0
H  H20  1  0.85558991  0.31615207  0.16367027  1  0.062547  0  0.098409  0.097641  0  1.008943  0
H  H21  1  0.50721447  0.44015699  0.80506456  1  0.067368  0  0.102026  0.113213  0  1.007967  0
H  H22  1  0.20654983  0.37963635  0.89833061  1  0.051686  0  0.10008  0.100092  0  1.003555  0
H  H23  1  0.22070848  0.31901817  0.01870636  1  0.053385  0  0.098049  0.09698  0  1.008243  0
H  H24  1  0.54964594  0.28806456  0.10562029  1  0.017941  0  0.096756  0.092649  0  1.032846  0
C  C25  1  0.47987220  0.45032802  0.60136911  1  1.566107  0  0.277754  0.671156  0  4.057213  0
C  C26  1  0.52510660  0.44827478  0.45064771  1  1.594751  0  0.277311  0.669242  0  4.05973  0
C  C27  1  0.47697751  0.60061729  0.44870677  1  1.61466  0  0.276933  0.66772  0  4.058362  0
C  C28  1  0.50637101  0.34649522  0.70884980  1  0.051036  0  -0.078141  -0.072033  0  3.981191  0
C  C29  1  0.50974932  0.31137654  0.77695147  1  -0.018447  0  -0.09317  -0.141232  0  3.999426  0
C  C30  1  0.68398092  0.24598127  0.91939583  1  -0.129121  0  -0.091415  -0.127177  0  3.999218  0
C  C31  1  0.69128805  0.21162669  0.98753280  1  -0.090275  0  -0.091483  -0.124675  0  3.996848  0
C  C32  1  0.46234039  0.71017823  0.34144088  1  0.015761  0  0.02313  0.15008  0  4.017025  0
C  C33  1  0.47905304  0.77836334  0.30835760  1  0.017654  0  -0.096397  -0.203097  0  3.960988  0
C  C34  1  0.36535835  0.92255830  0.24507881  1  0.014392  0  -0.090556  -0.123339  0  3.993434  0
C  C35  1  0.37278312  0.99064933  0.21119784  1  -0.104066  0  -0.091925  -0.126134  0  3.998659  0
C  C36  1  0.48813868  0.41533325  0.67453304  1  0.004362  0  -0.010909  -0.090149  0  3.928247  0
C  C37  1  0.50642537  0.34411710  0.81326422  1  -0.021647  0  -0.003869  0.087853  0  4.004618  0
C  C38  1  0.51454676  0.30760023  0.88557094  1  0.018851  0  -0.008487  0.063181  0  3.999125  0
C  C39  1  0.52988110  0.23737932  0.02487304  1  -0.02822  0  -0.007873  0.064031  0  4.000618  0
C  C40  1  0.53777386  0.20102661  0.09721510  1  0.020596  0  -0.00738  0.082493  0  4.023036  0
C  C41  1  0.53426303  0.13228160  0.13221869  1  0.020955  0  -0.089083  -0.177456  0  3.931164  0
C  C42  1  0.52298495  0.70781324  0.44392508  1  -0.029563  0  -0.077439  -0.068818  0  3.978099  0
C  C43  1  0.52551098  0.77588159  0.41127417  1  0.074227  0  -0.093517  -0.14337  0  3.997959  0
C  C44  1  0.67128216  0.91887431  0.33263559  1  -0.092079  0  -0.091085  -0.126269  0  3.998115  0
C  C45  1  0.67835038  0.98700678  0.29873510  1  0.026115  0  -0.091704  -0.126247  0  3.997559  0
C  C46  1  0.54063872  0.34144022  0.44772394  1  0.035265  0  0.021611  0.148165  0  4.020625  0
C  C47  1  0.55080622  0.30847186  0.41224424  1  -0.04356  0  -0.096237  -0.203804  0  3.964557  0
C  C48  1  0.39947911  0.24690081  0.33346241  1  -0.042975  0  -0.091688  -0.125098  0  3.994512  0
C  C49  1  0.39842260  0.21258468  0.29959870  1  -0.012674  0  -0.090767  -0.124495  0  3.99602  0
C  C50  1  0.48595947  0.67362537  0.41002886  1  0.058883  0  -0.011575  -0.093064  0  3.924753  0
C  C51  1  0.50590402  0.81262975  0.34249214  1  -0.101036  0  -0.002756  0.089864  0  4.001075  0
C  C52  1  0.51473186  0.88496134  0.30661394  1  0.0483  0  -0.009458  0.061131  0  3.997281  0
C  C53  1  0.52970066  0.02456736  0.23715013  1  -0.096873  0  -0.007888  0.064024  0  3.997783  0
C  C54  1  0.53758675  0.09696126  0.20099449  1  0.008582  0  -0.007817  0.080913  0  4.022313  0
C  C55  1  0.54661534  0.13206535  0.23459860  1  -0.00137  0  -0.089162  -0.177256  0  3.930836  0
C  C56  1  0.57914208  0.44444116  0.34663553  1  0.086373  0  -0.077325  -0.069577  0  3.977424  0
C  C57  1  0.57895262  0.41178512  0.31108657  1  0.039873  0  -0.093209  -0.142262  0  3.995032  0
C  C58  1  0.71880709  0.33157277  0.24449110  1  0.00399  0  -0.090862  -0.126086  0  3.99898  0
C  C59  1  0.71748109  0.29722878  0.21059874  1  -0.077564  0  -0.092154  -0.126855  0  3.994826  0
C  C60  1  0.48287465  0.44815973  0.71061636  1  -0.021559  0  0.021506  0.146826  0  4.020992  0
C  C61  1  0.49669544  0.41303613  0.77885530  1  0.102315  0  -0.09612  -0.20239  0  3.961872  0
C  C62  1  0.35240324  0.33328839  0.92293944  1  -0.126417  0  -0.090818  -0.123277  0  3.99179  0
C  C63  1  0.36009995  0.29894981  0.99105420  1  0.053132  0  -0.091665  -0.126006  0  3.997235  0
C  C64  1  0.55193788  0.41019360  0.41536364  1  -0.076126  0  -0.011175  -0.092182  0  3.928327  0
C  C65  1  0.56307705  0.34298941  0.34333981  1  0.002918  0  -0.003057  0.090475  0  4.000508  0
C  C66  1  0.56031323  0.30712895  0.30679467  1  -0.001063  0  -0.008904  0.061221  0  3.998819  0
C  C67  1  0.55724282  0.23697185  0.23733060  1  -0.059986  0  -0.00864  0.064803  0  3.996304  0
C  C68  1  0.55155882  0.20081537  0.20108305  1  -0.047448  0  -0.006811  0.08265  0  4.023339  0
C  C69  1  0.54691131  0.23457368  0.13234708  1  -0.000576  0  -0.089938  -0.179844  0  3.933046  0
Cl  Cl70  1  0.53378372  0.29498319  0.53251910  1  -0.177374  0  -0.017834  -0.087694  0  1.500334  0
Cl  Cl71  1  0.48009236  0.53304316  0.67154326  1  -0.179011  0  -0.017314  -0.087329  0  1.498286  0
Cl  Cl72  1  0.43365860  0.67245229  0.29489739  1  -0.194498  0  -0.017215  -0.087242  0  1.504022  0
O  O73  1  0.24612510  0.57248529  0.43723473  1  -1.240552  0  -0.231494  -0.591232  0  2.405735  0
O  O74  1  0.23181608  0.49006697  0.57360671  1  -1.245556  0  -0.230368  -0.589384  0  2.392361  0
O  O75  1  0.27660641  0.43674471  0.49105806  1  -1.249209  0  -0.232773  -0.595273  0  2.407792  0
O  O76  1  0.70084844  0.57119744  0.49226858  1  -1.264685  0  -0.23776  -0.598631  0  2.368815  0
O  O77  1  0.74674019  0.49097141  0.43663675  1  -1.25057  0  -0.235788  -0.590314  0  2.350982  0
O  O78  1  0.72203630  0.43641143  0.57190442  1  -1.249801  0  -0.236388  -0.594602  0  2.35955  0
