# generated using pymatgen
data_CoH6C8(SN2)2
_symmetry_space_group_name_H-M   'P 1'
_cell_length_a   7.75520283
_cell_length_b   7.68920953
_cell_length_c   16.16067955
_cell_angle_alpha   89.99979715
_cell_angle_beta   90.00015257
_cell_angle_gamma   89.99924634
_symmetry_Int_Tables_number   1
_chemical_formula_structural   CoH6C8(SN2)2
_chemical_formula_sum   'Co4 H24 C32 S8 N16'
_cell_volume   963.68361580
_cell_formula_units_Z   4
loop_
 _symmetry_equiv_pos_site_id
 _symmetry_equiv_pos_as_xyz
  1  'x, y, z'
loop_
 _atom_site_type_symbol
 _atom_site_label
 _atom_site_symmetry_multiplicity
 _atom_site_fract_x
 _atom_site_fract_y
 _atom_site_fract_z
 _atom_site_occupancy
 _atom_site_hle17_ddec_charge
 _atom_site_hle17_ddec_spin_density
 _atom_site_hle17_ddec_sum_bond_order
 _atom_site_hle17_magmom
 _atom_site_hse06_10hf_bader_charge
 _atom_site_hse06_10hf_bader_spin_density
 _atom_site_hse06_10hf_ddec_charge
 _atom_site_hse06_10hf_ddec_spin_density
 _atom_site_hse06_10hf_ddec_sum_bond_order
 _atom_site_hse06_10hf_magmom
 _atom_site_hse06_ddec_charge
 _atom_site_hse06_ddec_spin_density
 _atom_site_hse06_ddec_sum_bond_order
 _atom_site_hse06_magmom
 _atom_site_pbe_cm5_charge
 _atom_site_pbe_ddec_charge
 _atom_site_pbe_ddec_spin_density
 _atom_site_pbe_ddec_sum_bond_order
 _atom_site_pbe_magmom
Co  Co0  1  0.08282661  0.81628614  0.37337722  1  0.745068  -2.769315  2.20455  -2.461  1.174208  -2.567788  0.689504  -2.755458  2.616402  -2.522  0.795479  -2.844794  2.525011  -2.644  0.63783  0.603819  -2.63835  2.68986  -2.383
Co  Co1  1  0.41717302  0.18370991  0.87337858  1  0.745019  -2.769301  2.204567  -2.461  1.17421  -2.567774  0.689465  -2.755441  2.616409  -2.522  0.795472  -2.844781  2.525003  -2.644  0.637827  0.603773  -2.638324  2.689874  -2.383
Co  Co2  1  0.91718772  0.31627960  0.12661560  1  0.744807  2.769238  2.204493  2.461  1.17411  2.567778  0.689515  2.75543  2.616241  2.522  0.795464  2.844771  2.524953  2.644  0.6378  0.603824  2.638339  2.689704  2.383
Co  Co3  1  0.58281776  0.68372083  0.62662007  1  0.744579  2.76926  2.204655  2.461  1.174235  2.567791  0.689272  2.755469  2.616432  2.522  0.795277  2.844804  2.525037  2.644  0.637717  0.603579  2.638388  2.689888  2.383
H  H4  1  0.42187921  0.74518848  0.29325337  1  0.075778  -0.000303  0.954684  -0.001  0.131187  -0.001344  0.083875  -0.000395  1.021618  -0.001  0.085901  -0.000289  1.017658  -0.001  0.111999  0.082022  -0.000482  1.025457  -0.001
H  H5  1  0.07811476  0.25480817  0.79324618  1  0.075703  -0.000303  0.954734  -0.001  0.131257  -0.001345  0.083844  -0.000395  1.021636  -0.001  0.085885  -0.000289  1.01766  -0.001  0.112009  0.081989  -0.000482  1.025475  -0.001
H  H6  1  0.57812832  0.24520140  0.20674576  1  0.075844  0.000303  0.954592  0.001  0.131114  0.001346  0.083888  0.000396  1.021568  0.001  0.085912  0.000289  1.017611  0.001  0.112049  0.082069  0.000483  1.025371  0.001
H  H7  1  0.92188023  0.75479713  0.70675606  1  0.075817  0.000301  0.954704  0.001  0.13117  0.001346  0.083958  0.000396  1.021589  0.001  0.085983  0.000289  1.017631  0.001  0.112069  0.082116  0.000483  1.025412  0.001
H  H8  1  0.53299905  0.55716235  0.17745772  1  0.119661  4e-05  0.997046  0.0  0.131702  0.000221  0.128539  2.5e-05  1.059219  0.0  0.132105  -8e-06  1.059332  0.0  0.097731  0.125807  5.1e-05  1.059397  0.0
H  H9  1  0.96700159  0.44284550  0.67745251  1  0.119608  4.1e-05  0.997175  0.0  0.131646  0.000222  0.128483  2.5e-05  1.059353  0.0  0.132048  -8e-06  1.059467  0.0  0.097718  0.125743  5.1e-05  1.059537  0.0
H  H10  1  0.46700194  0.05718107  0.32254359  1  0.119645  -3.9e-05  0.996927  0.0  0.131734  -0.000221  0.128509  -2.5e-05  1.05915  0.0  0.132075  8e-06  1.059265  0.0  0.097712  0.125796  -5.1e-05  1.059305  0.0
H  H11  1  0.03300898  0.94282446  0.82254879  1  0.119642  -4e-05  0.996948  0.0  0.131616  -0.000221  0.128517  -2.5e-05  1.059135  0.0  0.132082  8e-06  1.059251  0.0  0.097721  0.125803  -5.1e-05  1.05929  0.0
H  H12  1  0.31262282  0.37203582  0.10092446  1  0.081735  0.000288  0.949624  0.001  0.120739  0.0013  0.088476  0.000467  1.017487  0.001  0.090376  0.00033  1.014351  0.001  0.111727  0.086736  0.000594  1.020591  0.001
H  H13  1  0.18738029  0.62796486  0.60092418  1  0.081736  0.000287  0.949656  0.001  0.120714  0.0013  0.088447  0.000467  1.017557  0.001  0.090366  0.00033  1.014404  0.001  0.111745  0.086707  0.000594  1.020661  0.001
H  H14  1  0.68738433  0.87206414  0.39907570  1  0.081762  -0.000289  0.949592  -0.001  0.120991  -0.001299  0.08851  -0.000466  1.017473  -0.001  0.090457  -0.00033  1.014272  -0.001  0.111778  0.08677  -0.000593  1.020582  -0.001
H  H15  1  0.81262669  0.12794726  0.89907394  1  0.081642  -0.000288  0.949685  -0.001  0.120838  -0.001299  0.088419  -0.000467  1.017553  -0.001  0.090353  -0.00033  1.014364  -0.001  0.111712  0.086678  -0.000594  1.020659  -0.001
H  H16  1  0.04163489  0.42677693  0.37250566  1  0.076866  -0.000485  0.950399  -0.001  0.131917  -0.001753  0.08268  -0.000668  1.020079  -0.001  0.084743  -0.000493  1.016565  -0.001  0.111366  0.080968  -0.000808  1.023201  -0.001
H  H17  1  0.45835312  0.57322562  0.87250393  1  0.076899  -0.000484  0.950388  -0.001  0.132588  -0.001752  0.08266  -0.000668  1.020116  -0.001  0.084722  -0.000493  1.01661  -0.001  0.111341  0.080948  -0.000808  1.023235  -0.001
H  H18  1  0.95835735  0.92675300  0.12749193  1  0.076904  0.000481  0.950372  0.001  0.132926  0.001751  0.082664  0.000668  1.020114  0.001  0.084734  0.000493  1.016593  0.001  0.11131  0.080949  0.000808  1.02324  0.001
H  H19  1  0.54163395  0.07324222  0.62749738  1  0.076884  0.000486  0.95035  0.001  0.133011  0.001751  0.082682  0.000668  1.020059  0.001  0.084751  0.000493  1.016543  0.001  0.111317  0.080969  0.000808  1.023184  0.001
H  H20  1  0.87886166  0.20509554  0.45922916  1  0.117887  -1.4e-05  0.993609  0.0  0.108057  -0.000112  0.124414  -9e-06  1.059384  0.0  0.127908  1e-05  1.059958  0.0  0.097308  0.121823  -3e-05  1.059148  0.0
H  H21  1  0.62113039  0.79489722  0.95922791  1  0.11791  -1.7e-05  0.993685  0.0  0.108057  -0.000112  0.12446  -9e-06  1.059427  0.0  0.127954  1e-05  1.059999  0.0  0.097306  0.121866  -3e-05  1.059192  0.0
H  H22  1  0.12113866  0.70508844  0.04076880  1  0.117811  1.7e-05  0.993711  0.0  0.107955  0.000112  0.124334  9e-06  1.059476  0.0  0.12783  -1e-05  1.060047  0.0  0.097284  0.121743  3e-05  1.059233  0.0
H  H23  1  0.37885634  0.29491269  0.54076931  1  0.117825  2e-05  0.993723  0.0  0.10796  0.000112  0.12434  9e-06  1.059492  0.0  0.127835  -1e-05  1.060064  0.0  0.097287  0.121748  3e-05  1.059254  0.0
H  H24  1  0.69484800  0.32315526  0.57538496  1  0.069673  0.000251  0.96676  0.001  0.114883  0.001281  0.078615  0.000384  1.034745  0.001  0.080811  0.00026  1.030532  0.001  0.10958  0.076681  0.000502  1.038705  0.001
H  H25  1  0.80514943  0.67684165  0.07538472  1  0.069719  0.00025  0.966758  0.001  0.11497  0.001281  0.078665  0.000384  1.034734  0.001  0.080865  0.00026  1.030517  0.001  0.109608  0.076729  0.000502  1.038692  0.001
H  H26  1  0.30514223  0.82314939  0.92461345  1  0.069675  -0.00025  0.966753  -0.001  0.115062  -0.001279  0.078589  -0.000383  1.034819  -0.001  0.080785  -0.00026  1.030606  -0.001  0.109587  0.076656  -0.000501  1.03878  -0.001
H  H27  1  0.19486029  0.17684497  0.42461082  1  0.069677  -0.000252  0.966873  -0.001  0.115041  -0.00128  0.078568  -0.000383  1.034958  -0.001  0.080762  -0.00026  1.030747  -0.001  0.10962  0.076638  -0.000501  1.038922  -0.001
C  C28  1  0.05135072  0.58840001  0.22595971  1  0.394335  -0.001494  3.80656  -0.002  0.79975  0.000613  0.375619  -0.000444  4.08966  0.0  0.404047  -0.000289  4.10321  0.0  0.217316  0.354569  -0.000445  4.080043  0.0
C  C29  1  0.44864671  0.41160104  0.72596258  1  0.394322  -0.001477  3.806791  -0.002  0.799789  0.000614  0.375598  -0.000444  4.089852  0.0  0.404024  -0.000289  4.103411  0.0  0.217329  0.354547  -0.000445  4.080238  0.0
C  C30  1  0.94865372  0.08841537  0.27403474  1  0.394322  0.001496  3.806221  0.002  0.799644  -0.000617  0.375469  0.000443  4.089409  0.0  0.403885  0.000289  4.102964  0.0  0.217335  0.354422  0.000447  4.079789  0.0
C  C31  1  0.55135396  0.91158786  0.77404002  1  0.394304  0.001496  3.806455  0.002  0.799701  -0.000615  0.375491  0.000443  4.089602  0.0  0.403907  0.000288  4.103167  0.0  0.217277  0.354444  0.000446  4.079982  0.0
C  C32  1  0.33480515  0.66918268  0.25477171  1  0.206307  0.003065  3.686165  0.004  0.471056  0.002708  0.174331  0.001357  3.935221  0.002  0.195588  0.0015  3.94503  0.002  0.06082  0.15726  0.001106  3.930694  0.002
C  C33  1  0.16519504  0.33081165  0.75476511  1  0.206407  0.003086  3.686263  0.004  0.471352  0.00271  0.17436  0.001357  3.93533  0.002  0.195603  0.0015  3.945136  0.002  0.060787  0.157292  0.001106  3.930802  0.002
C  C34  1  0.66520467  0.16919937  0.24522755  1  0.206242  -0.003058  3.686427  -0.004  0.472034  -0.002708  0.174275  -0.001356  3.935497  -0.002  0.195533  -0.001498  3.945303  -0.002  0.060813  0.157179  -0.001105  3.930965  -0.002
C  C35  1  0.83480411  0.83079107  0.74523577  1  0.206231  -0.003047  3.686668  -0.004  0.471897  -0.002709  0.174139  -0.001355  3.935794  -0.002  0.19539  -0.001499  3.9456  -0.002  0.060732  0.157065  -0.001104  3.931267  -0.002
C  C36  1  0.39600972  0.56422504  0.19119344  1  -0.206934  -0.000572  3.704182  -0.001  0.006505  -5.1e-05  -0.215539  -6e-06  3.949332  0.0  -0.230621  -0.000324  3.964772  0.0  -0.10452  -0.205142  0.000349  3.941249  0.0
C  C37  1  0.10399008  0.43578276  0.69118969  1  -0.206915  -0.000595  3.704243  -0.001  0.006896  -5.2e-05  -0.215508  -6e-06  3.949407  0.0  -0.23059  -0.000324  3.964859  0.0  -0.104494  -0.205105  0.00035  3.941328  0.0
C  C38  1  0.60399504  0.06425637  0.30880785  1  -0.206921  0.000571  3.704089  0.001  0.005848  5.1e-05  -0.215502  6e-06  3.94924  0.0  -0.230589  0.000323  3.964699  0.0  -0.104557  -0.205118  -0.000351  3.941153  0.0
C  C39  1  0.89601027  0.93575180  0.80880853  1  -0.206876  0.000568  3.703939  0.001  0.005715  5.1e-05  -0.215454  6e-06  3.949144  0.0  -0.230539  0.000324  3.964599  0.0  -0.104522  -0.20507  -0.000351  3.941044  0.0
C  C40  1  0.27556981  0.46449532  0.14883633  1  0.200889  0.001697  3.693232  0.002  0.487383  0.003126  0.166377  0.001841  3.951184  0.002  0.187207  0.001499  3.961691  0.002  0.057523  0.149792  0.00217  3.945898  0.003
C  C41  1  0.22443230  0.53550630  0.64883254  1  0.200892  0.001715  3.693099  0.002  0.487025  0.003125  0.166397  0.001841  3.951066  0.002  0.187204  0.001499  3.961571  0.002  0.05747  0.149812  0.002169  3.94578  0.003
C  C42  1  0.72443354  0.96452092  0.35116243  1  0.200882  -0.001687  3.692873  -0.002  0.487162  -0.003125  0.166285  -0.001842  3.950828  -0.002  0.187071  -0.0015  3.961336  -0.002  0.057486  0.1497  -0.00217  3.945551  -0.003
C  C43  1  0.77556816  0.03548694  0.85116697  1  0.200958  -0.001692  3.692786  -0.002  0.487534  -0.003125  0.166348  -0.001842  3.950744  -0.002  0.187153  -0.0015  3.961256  -0.002  0.057481  0.149767  -0.00217  3.945461  -0.003
C  C44  1  0.87219342  0.69070837  0.51222652  1  0.398475  2.7e-05  3.800296  0.0  0.806051  0.00032  0.379032  0.000139  4.086024  0.001  0.407634  0.000113  4.098782  0.001  0.216606  0.357699  0.00027  4.07694  0.001
C  C45  1  0.62780363  0.30930201  0.01222793  1  0.398584  3e-05  3.799869  0.0  0.806223  0.000322  0.379061  0.00014  4.085687  0.001  0.407672  0.000114  4.098437  0.001  0.216588  0.357733  0.000271  4.076591  0.001
C  C46  1  0.12779985  0.19069259  0.98777644  1  0.398601  -2e-05  3.799796  0.0  0.806157  -0.000321  0.379104  -0.000139  4.085549  -0.001  0.407709  -0.000114  4.098297  -0.001  0.216681  0.357777  -0.000269  4.076455  -0.001
C  C47  1  0.37219790  0.80930260  0.48777914  1  0.398744  -2.3e-05  3.799786  0.0  0.806033  -0.000321  0.379181  -0.00014  4.085613  -0.001  0.407775  -0.000114  4.098371  -0.001  0.216666  0.357856  -0.000269  4.076516  -0.001
C  C48  1  0.96395239  0.46497487  0.42567409  1  0.201176  5.2e-05  3.696303  0.001  0.522266  -0.000793  0.168048  -0.000696  3.952088  0.0  0.188798  -0.000276  3.962726  0.0  0.056936  0.151551  -0.000958  3.946732  0.0
C  C49  1  0.53603816  0.53502463  0.92567318  1  0.201029  4.2e-05  3.696411  0.001  0.521286  -0.000794  0.167962  -0.000697  3.952172  0.0  0.188719  -0.000276  3.962824  0.0  0.05692  0.151464  -0.000958  3.946811  0.0
C  C50  1  0.03603547  0.96496214  0.07432653  1  0.201263  -2e-05  3.696205  -0.001  0.521504  0.000795  0.168191  0.000696  3.951934  0.0  0.18894  0.000276  3.962569  0.0  0.057079  0.151688  0.000958  3.946582  0.0
C  C51  1  0.46395200  0.03504134  0.57433004  1  0.201351  -4.6e-05  3.69612  -0.001  0.521647  0.000793  0.168217  0.000695  3.951882  0.0  0.188957  0.000276  3.962521  0.0  0.057026  0.151717  0.000956  3.946528  0.0
C  C52  1  0.87364235  0.34366503  0.47229780  1  -0.204078  8.8e-05  3.707822  0.0  0.032096  -0.000451  -0.213084  -0.000166  3.954423  0.0  -0.22833  -0.000254  3.970845  0.0  -0.106086  -0.202483  -6.5e-05  3.945374  0.0
C  C53  1  0.62634591  0.65633282  0.97229246  1  -0.204053  0.000102  3.708045  0.0  0.031944  -0.000451  -0.213087  -0.000166  3.954585  0.0  -0.228331  -0.000253  3.971002  0.0  -0.106103  -0.202487  -6.5e-05  3.945537  0.0
C  C54  1  0.12637033  0.84365276  0.02770550  1  -0.203951  -0.000115  3.707739  0.0  0.032338  0.000453  -0.212913  0.000167  3.954284  0.0  -0.22816  0.000255  3.970705  0.0  -0.105984  -0.202311  6.5e-05  3.945236  0.0
C  C55  1  0.37361944  0.15634586  0.52770500  1  -0.204  -0.000116  3.707805  0.0  0.032398  0.000454  -0.212922  0.000167  3.954355  0.0  -0.22817  0.000255  3.970779  0.0  -0.105984  -0.202319  6.6e-05  3.945305  0.0
C  C56  1  0.77301420  0.40782289  0.53648187  1  0.197437  -0.001842  3.704502  -0.003  0.434231  -0.000639  0.165394  -0.000285  3.954937  0.0  0.186238  -0.000331  3.965161  0.0  0.057721  0.148699  1.9e-05  3.949791  0.0
C  C57  1  0.72698171  0.59217300  0.03647611  1  0.197404  -0.001847  3.704678  -0.003  0.434429  -0.000638  0.165359  -0.000285  3.955062  0.0  0.186205  -0.000331  3.96527  0.0  0.057739  0.148662  1.9e-05  3.949919  0.0
C  C58  1  0.22698394  0.90781776  0.96352011  1  0.197448  0.001861  3.704591  0.003  0.433567  0.000638  0.165321  0.000285  3.955039  0.0  0.18617  0.000331  3.965259  0.0  0.057647  0.148617  -2e-05  3.949903  0.0
C  C59  1  0.27301366  0.09218151  0.46351833  1  0.197484  0.001865  3.704752  0.003  0.433505  0.000635  0.165329  0.000283  3.955214  0.0  0.186177  0.00033  3.96543  0.0  0.057624  0.148621  -2.2e-05  3.950084  0.0
S  S60  1  0.83611287  0.60273958  0.24145640  1  -0.411913  0.039086  1.931506  0.053  -0.216014  0.049705  -0.433642  0.026112  2.259656  0.035  -0.4738  0.018143  2.263462  0.025  -0.166871  -0.396375  0.032785  2.25416  0.042
S  S61  1  0.66388300  0.39726259  0.74145773  1  -0.411876  0.039091  1.931532  0.053  -0.21599  0.049708  -0.433627  0.026113  2.2597  0.035  -0.473792  0.018144  2.263503  0.025  -0.16687  -0.396356  0.032787  2.254201  0.042
S  S62  1  0.16389654  0.10272244  0.25853617  1  -0.411869  -0.039083  1.931419  -0.053  -0.216056  -0.049716  -0.433583  -0.026118  2.259694  -0.035  -0.473744  -0.018147  2.263502  -0.025  -0.166872  -0.396315  -0.032802  2.254203  -0.042
S  S63  1  0.33610625  0.89726666  0.75854675  1  -0.411918  -0.039088  1.931452  -0.053  -0.216079  -0.049727  -0.433626  -0.026124  2.259651  -0.035  -0.473791  -0.018152  2.263457  -0.025  -0.166898  -0.39636  -0.032808  2.254161  -0.042
S  S64  1  0.89004983  0.89907545  0.54436671  1  -0.419698  0.005195  1.873379  0.006  -0.19856  0.005958  -0.436519  0.002947  2.187952  0.003  -0.474063  0.001881  2.191637  0.002  -0.17475  -0.400224  0.004509  2.18226  0.005
S  S65  1  0.60995257  0.10091648  0.04436535  1  -0.419776  0.005191  1.873186  0.006  -0.1988  0.005953  -0.436616  0.002945  2.187865  0.003  -0.474161  0.001879  2.191546  0.002  -0.174781  -0.400318  0.00451  2.182167  0.005
S  S66  1  0.10994713  0.39908096  0.95563466  1  -0.419788  -0.005162  1.873023  -0.006  -0.198735  -0.005938  -0.436643  -0.002936  2.187692  -0.003  -0.474188  -0.001873  2.191372  -0.002  -0.174816  -0.400342  -0.004505  2.181989  -0.005
S  S67  1  0.39005300  0.60092488  0.45564021  1  -0.41972  -0.005161  1.873151  -0.006  -0.1986  -0.00594  -0.43651  -0.002938  2.187772  -0.003  -0.474053  -0.001874  2.191457  -0.002  -0.174754  -0.400216  -0.004506  2.182077  -0.005
N  N68  1  0.16628472  0.68020305  0.27324113  1  -0.403242  -0.040048  3.321243  -0.062  -1.270345  -0.052866  -0.343229  -0.029098  3.60073  -0.04  -0.381603  -0.023796  3.612894  -0.032  -0.342721  -0.315088  -0.032951  3.593647  -0.046
N  N69  1  0.33371171  0.31979244  0.77323659  1  -0.403258  -0.040065  3.321464  -0.062  -1.270686  -0.052863  -0.34319  -0.029096  3.600944  -0.04  -0.381561  -0.023794  3.613104  -0.032  -0.342711  -0.315055  -0.032948  3.593868  -0.046
N  N70  1  0.83370820  0.18020857  0.22675874  1  -0.403214  0.040045  3.321415  0.062  -1.270676  0.052862  -0.343158  0.029095  3.600961  0.04  -0.381529  0.023793  3.613121  0.032  -0.34277  -0.315022  0.032945  3.593887  0.046
N  N71  1  0.66630563  0.81978461  0.72676863  1  -0.403165  0.04004  3.321688  0.062  -1.270484  0.052861  -0.343016  0.029094  3.601049  0.04  -0.381387  0.023792  3.613232  0.032  -0.342661  -0.314883  0.032945  3.593972  0.046
N  N72  1  0.10674119  0.47674080  0.16550693  1  -0.415483  0.037304  3.357779  0.058  -1.240468  0.04916  -0.357292  0.02741  3.643326  0.037  -0.395978  0.021769  3.654838  0.028  -0.35211  -0.328747  0.03149  3.63647  0.043
N  N73  1  0.39326103  0.52325419  0.66550583  1  -0.415455  0.037291  3.357625  0.058  -1.240516  0.04916  -0.357301  0.02741  3.643214  0.037  -0.395983  0.021769  3.65472  0.028  -0.352106  -0.328752  0.031491  3.636356  0.043
N  N74  1  0.89327360  0.97674350  0.33449367  1  -0.41557  -0.037304  3.35713  -0.058  -1.240215  -0.049162  -0.357192  -0.027411  3.642601  -0.037  -0.39583  -0.02177  3.654061  -0.028  -0.352081  -0.32865  -0.031494  3.635751  -0.043
N  N75  1  0.60673315  0.02325409  0.83450113  1  -0.415477  -0.037302  3.357267  -0.058  -1.240418  -0.049163  -0.357143  -0.027411  3.642741  -0.037  -0.395819  -0.021769  3.654253  -0.028  -0.351961  -0.328598  -0.031494  3.635884  -0.043
N  N76  1  0.96272635  0.63499489  0.44439779  1  -0.402653  -0.038193  3.320652  -0.059  -1.287682  -0.051948  -0.343885  -0.028792  3.602558  -0.039  -0.381544  -0.024098  3.613657  -0.032  -0.345413  -0.316697  -0.031385  3.597101  -0.043
N  N77  1  0.53726561  0.36499927  0.94439717  1  -0.402633  -0.038193  3.320685  -0.059  -1.287531  -0.051944  -0.34382  -0.028791  3.602531  -0.039  -0.381514  -0.024098  3.613665  -0.032  -0.345376  -0.316637  -0.031383  3.597072  -0.043
N  N78  1  0.03726330  0.13498221  0.05560153  1  -0.402806  0.038183  3.320989  0.059  -1.28781  0.051945  -0.344037  0.028792  3.602905  0.039  -0.38169  0.024099  3.613997  0.032  -0.345548  -0.316856  0.031383  3.597454  0.043
N  N79  1  0.46273567  0.86502010  0.55560798  1  -0.402862  0.038193  3.320772  0.059  -1.288149  0.051947  -0.344098  0.028791  3.602756  0.039  -0.381741  0.024098  3.61384  0.032  -0.345477  -0.316917  0.031381  3.597303  0.043
N  N80  1  0.76823054  0.57755812  0.55533118  1  -0.42103  0.039257  3.350601  0.06  -1.258947  0.050623  -0.36161  0.028178  3.63576  0.038  -0.40082  0.022085  3.647704  0.028  -0.351943  -0.332557  0.033036  3.628379  0.045
N  N81  1  0.73177450  0.42244284  0.05533499  1  -0.421108  0.039255  3.350562  0.06  -1.25884  0.050618  -0.361638  0.028177  3.635724  0.038  -0.400822  0.022085  3.64763  0.028  -0.351952  -0.33259  0.033033  3.62835  0.045
N  N82  1  0.23176808  0.07755430  0.94466146  1  -0.421207  -0.039262  3.350521  -0.06  -1.258641  -0.05062  -0.361645  -0.028176  3.635607  -0.038  -0.400852  -0.022083  3.647546  -0.028  -0.351964  -0.332595  -0.033035  3.628233  -0.045
N  N83  1  0.26823069  0.92244641  0.44466385  1  -0.421413  -0.039265  3.350697  -0.06  -1.258623  -0.050621  -0.361746  -0.028176  3.635708  -0.038  -0.400948  -0.022083  3.647639  -0.028  -0.352005  -0.332697  -0.033036  3.628337  -0.045
