# generated using pymatgen
data_FeAg2H23(C7N)6
_symmetry_space_group_name_H-M   'P 1'
_cell_length_a   10.54039167
_cell_length_b   10.52226106
_cell_length_c   16.60065130
_cell_angle_alpha   102.02236981
_cell_angle_beta   93.93250744
_cell_angle_gamma   97.32435300
_symmetry_Int_Tables_number   1
_chemical_formula_structural   FeAg2H23(C7N)6
_chemical_formula_sum   'Fe2 Ag4 H46 C84 N12'
_cell_volume   1777.47084363
_cell_formula_units_Z   2
loop_
 _symmetry_equiv_pos_site_id
 _symmetry_equiv_pos_as_xyz
  1  'x, y, z'
loop_
 _atom_site_type_symbol
 _atom_site_label
 _atom_site_symmetry_multiplicity
 _atom_site_fract_x
 _atom_site_fract_y
 _atom_site_fract_z
 _atom_site_occupancy
 _atom_site_pbe_bader_charge
 _atom_site_pbe_bader_spin_density
 _atom_site_pbe_cm5_charge
 _atom_site_pbe_ddec_charge
 _atom_site_pbe_ddec_spin_density
 _atom_site_pbe_ddec_sum_bond_order
 _atom_site_pbe_magmom
Fe  Fe0  1  0.77976577  0.82299242  0.09137622  1  1.434307  3.635114  0.769372  0.786664  3.874291  2.879875  3.607
Fe  Fe1  1  0.22023908  0.17700121  0.90862202  1  1.434211  3.635112  0.769351  0.786547  3.874281  2.879988  3.607
Ag  Ag2  1  0.77471536  0.31749649  0.08201909  1  0.400629  0.006329  0.340098  0.176639  0.004598  2.442672  0.006
Ag  Ag3  1  0.22527319  0.68249614  0.91798254  1  0.400467  0.00633  0.340134  0.176761  0.004599  2.442677  0.006
Ag  Ag4  1  0.28065941  0.82533831  0.09680652  1  0.397888  0.003748  0.338208  0.165695  0.002063  2.554431  0.004
Ag  Ag5  1  0.71934681  0.17466514  0.90319364  1  0.397788  0.003747  0.338216  0.165615  0.002062  2.554341  0.004
H  H6  1  0.62274868  0.69978463  0.21506089  1  0.135088  0.001558  0.116149  0.087096  0.000222  1.019513  0.001
H  H7  1  0.37724599  0.30021782  0.78493985  1  0.135114  0.001558  0.116193  0.087153  0.000222  1.019486  0.001
H  H8  1  0.62303497  0.70826176  0.36620116  1  0.110896  0.000761  0.111988  0.125797  0.000246  0.994859  0.0
H  H9  1  0.37695915  0.29174362  0.63379994  1  0.110968  0.000761  0.112008  0.125761  0.000246  0.994943  0.0
H  H10  1  0.97838192  0.97932290  0.40210435  1  0.077757  0.000731  0.105169  0.112151  0.0002  1.033009  0.0
H  H11  1  0.02161613  0.02067658  0.59789314  1  0.077712  0.000731  0.105179  0.112157  0.0002  1.032915  0.0
H  H12  1  0.96092495  0.96017332  0.24923432  1  0.108795  0.001566  0.116081  0.085692  0.000294  1.016331  0.001
H  H13  1  0.03907052  0.03982125  0.75076364  1  0.108798  0.001566  0.116092  0.085744  0.000294  1.016305  0.001
H  H14  1  0.58641240  0.88317031  0.80373371  1  0.106028  0.000916  0.10863  0.12219  0.00041  1.014261  0.0
H  H15  1  0.41358336  0.11683314  0.19626901  1  0.106072  0.000916  0.108627  0.122189  0.00041  1.014252  0.0
H  H16  1  0.59103186  0.86865753  0.95201941  1  0.094546  0.001679  0.116378  0.089  0.000304  1.006072  0.001
H  H17  1  0.40896961  0.13134593  0.04798295  1  0.094571  0.00168  0.116383  0.088998  0.000304  1.00607  0.001
H  H18  1  0.96051589  0.77340841  0.95389234  1  0.110961  0.001785  0.109999  0.076958  0.000371  1.041154  0.001
H  H19  1  0.03948448  0.22659402  0.04610563  1  0.111153  0.001785  0.109987  0.076992  0.000371  1.041182  0.001
H  H20  1  0.97445223  0.78900475  0.80761476  1  0.081574  0.000967  0.108213  0.118787  0.000395  1.002726  0.0
H  H21  1  0.02554419  0.21099668  0.19238291  1  0.081584  0.000967  0.10818  0.118699  0.000395  1.002758  0.0
H  H22  1  0.13589031  0.41797640  0.68076843  1  0.080544  -2e-06  0.091964  0.08944  -3.5e-05  1.040605  0.0
H  H23  1  0.86410694  0.58202410  0.31923338  1  0.080496  -2e-06  0.091962  0.089434  -3.5e-05  1.040581  0.0
H  H24  1  0.01272932  0.47644252  0.56399737  1  0.039678  -2e-06  0.09192  0.087504  -2e-06  1.046178  0.0
H  H25  1  0.98727187  0.52355898  0.43600474  1  0.039623  -2e-06  0.091902  0.087467  -2e-06  1.046214  0.0
H  H26  1  0.03751070  0.40701294  0.81112872  1  0.103124  5.1e-05  0.09529  0.104559  -9.6e-05  1.037645  0.0
H  H27  1  0.96249062  0.59298954  0.18887291  1  0.102941  5.1e-05  0.095279  0.104542  -9.6e-05  1.037667  0.0
H  H28  1  0.81062509  0.53598775  0.50377706  1  0.061929  -1.6e-05  0.09718  0.096836  -2.1e-05  1.018097  0.0
H  H29  1  0.18937312  0.46401275  0.49622478  1  0.062006  -1.6e-05  0.097184  0.096862  -2.1e-05  1.018005  0.0
H  H30  1  0.59075077  0.58631419  0.51885282  1  0.069337  9e-06  0.101483  0.103811  6e-06  1.013486  0.0
H  H31  1  0.40924784  0.41368239  0.48114854  1  0.069438  9e-06  0.101557  0.103939  6e-06  1.013405  0.0
H  H32  1  0.63540075  0.48915317  0.91198770  1  0.077374  3.8e-05  0.101092  0.11275  -8.6e-05  1.004188  0.0
H  H33  1  0.36460384  0.51085227  0.08801566  1  0.077416  3.8e-05  0.101117  0.112811  -8.6e-05  1.004173  0.0
H  H34  1  0.85656520  0.44029298  0.89751212  1  0.082916  0.000114  0.094151  0.097336  6.5e-05  1.027918  0.0
H  H35  1  0.14343871  0.55971441  0.10249025  1  0.082852  0.000114  0.094153  0.097346  6.5e-05  1.027898  0.0
H  H36  1  0.40914030  0.61747474  0.60496063  1  0.070575  0.0  0.096628  0.099378  2e-06  1.033821  0.0
H  H37  1  0.59085749  0.38252281  0.39503962  1  0.071187  0.0  0.096629  0.09948  2e-06  1.033745  0.0
H  H38  1  0.31425742  0.61488120  0.73799734  1  0.064682  -2.8e-05  0.091869  0.085276  -4.2e-05  1.034344  0.0
H  H39  1  0.68574173  0.38511243  0.26200306  1  0.064693  -2.8e-05  0.091859  0.085226  -4.2e-05  1.034343  0.0
H  H40  1  0.43659092  0.55173858  0.85320085  1  0.057308  0.000146  0.090596  0.092522  4.4e-05  1.046974  0.0
H  H41  1  0.56340863  0.44825798  0.14679874  1  0.057315  0.000146  0.090619  0.092515  4.4e-05  1.046914  0.0
H  H42  1  0.31143733  0.86907932  0.71818822  1  0.069519  3.7e-05  0.097736  0.101217  -3.4e-05  1.006218  0.0
H  H43  1  0.68856359  0.13092019  0.28181120  1  0.069552  3.7e-05  0.097742  0.101217  -3.4e-05  1.006229  0.0
H  H44  1  0.50455640  0.03867414  0.74564436  1  0.058976  -4.5e-05  0.091968  0.089579  -0.000119  1.044872  0.0
H  H45  1  0.49544627  0.96132438  0.25435441  1  0.059058  -4.5e-05  0.09195  0.089526  -0.000119  1.044905  0.0
H  H46  1  0.21854896  0.76878793  0.57327490  1  0.072447  1e-06  0.097879  0.099175  0.0  1.000522  0.0
H  H47  1  0.78145290  0.23121158  0.42672397  1  0.072427  1e-06  0.0979  0.099214  0.0  1.000518  0.0
H  H48  1  0.22231631  0.75381929  0.42214189  1  0.057772  -1e-06  0.094975  0.098544  1e-06  1.039465  0.0
H  H49  1  0.77768813  0.24617826  0.57785683  1  0.057771  -1e-06  0.094964  0.098559  1e-06  1.039454  0.0
H  H50  1  0.67786364  0.17512187  0.69432293  1  0.072718  -8.1e-05  0.0962  0.098903  -0.000104  1.016738  0.0
H  H51  1  0.32213972  0.82487469  0.30567562  1  0.0727  -8.1e-05  0.096186  0.098884  -0.000104  1.016789  0.0
C  C52  1  0.69976355  0.76042639  0.25867188  1  0.506007  0.002515  0.053412  0.103554  0.000786  3.946725  0.002
C  C53  1  0.30023329  0.23957115  0.74132772  1  0.506325  0.002515  0.053329  0.103427  0.000786  3.946772  0.002
C  C54  1  0.70015548  0.76517522  0.34287269  1  -0.042887  -0.000952  -0.071969  -0.164007  -0.001643  3.9009  0.0
C  C55  1  0.29984108  0.23482721  0.65712632  1  -0.043283  -0.000953  -0.07205  -0.16404  -0.001643  3.901123  0.0
C  C56  1  0.80134183  0.84539530  0.39731537  1  0.10357  0.002064  0.019981  0.163945  0.000344  4.106772  0.002
C  C57  1  0.19865623  0.15460419  0.60268333  1  0.103718  0.002064  0.020034  0.16398  0.000344  4.106851  0.002
C  C58  1  0.89791516  0.91645854  0.36279782  1  -0.009411  -0.000199  -0.074356  -0.163912  -0.000859  3.905994  0.0
C  C59  1  0.10208263  0.08354585  0.63720150  1  -0.009426  -0.000199  -0.074408  -0.1639  -0.000859  3.906021  0.0
C  C60  1  0.88835546  0.90610606  0.27792479  1  0.529407  0.002368  0.051065  0.101885  0.000843  3.943734  0.001
C  C61  1  0.11163702  0.09389440  0.72207440  1  0.529306  0.002369  0.051134  0.101781  0.000843  3.943732  0.001
C  C62  1  0.80426746  0.85363266  0.48321288  1  0.144257  -0.011057  -0.00936  -0.067281  -0.011464  3.97594  -0.007
C  C63  1  0.19573209  0.14637075  0.51678578  1  0.144353  -0.011056  -0.009307  -0.0672  -0.011462  3.97581  -0.007
C  C64  1  0.80117357  0.85755670  0.55744118  1  -0.363054  0.002799  -0.020892  -0.015366  0.000426  4.267886  0.003
C  C65  1  0.19882489  0.14243885  0.44255583  1  -0.363261  0.002799  -0.020909  -0.015433  0.000426  4.267792  0.003
C  C66  1  0.79604686  0.85777853  0.63815642  1  -0.357256  -0.012307  -0.023408  -0.021858  -0.013115  4.248354  -0.008
C  C67  1  0.20395349  0.14221702  0.36184006  1  -0.357151  -0.012303  -0.023389  -0.021795  -0.013111  4.248337  -0.008
C  C68  1  0.78784506  0.85181766  0.71069595  1  0.146997  0.002245  -0.003299  -0.04882  0.000119  3.974256  0.003
C  C69  1  0.21215299  0.14818182  0.28930214  1  0.147017  0.002244  -0.003358  -0.048875  0.000119  3.974331  0.003
C  C70  1  0.78190230  0.84036734  0.79324547  1  0.099563  -0.015338  0.012972  0.150922  -0.016834  4.117547  -0.01
C  C71  1  0.21809630  0.15963608  0.20675376  1  0.099545  -0.015334  0.012939  0.15078  -0.016829  4.117669  -0.01
C  C72  1  0.67224395  0.86180673  0.83550468  1  0.005841  0.005023  -0.082501  -0.176175  0.001688  3.94672  0.004
C  C73  1  0.32775465  0.13819670  0.16449515  1  0.00594  0.005022  -0.082483  -0.176141  0.001687  3.946733  0.004
C  C74  1  0.67414965  0.85212574  0.91769030  1  0.471524  -0.010076  0.043643  0.093375  -0.010968  3.950579  -0.006
C  C75  1  0.32585004  0.14787867  0.08230970  1  0.47143  -0.010073  0.043672  0.093411  -0.010965  3.95062  -0.006
C  C76  1  0.87990182  0.79832679  0.91866241  1  0.437433  -0.008821  0.048506  0.10837  -0.009863  3.930483  -0.005
C  C77  1  0.12009597  0.20167761  0.08133691  1  0.437161  -0.008817  0.048503  0.108277  -0.009859  3.930531  -0.005
C  C78  1  0.88748063  0.80705306  0.83708019  1  0.035607  0.00308  -0.072968  -0.153386  0.000563  3.901588  0.003
C  C79  1  0.11251797  0.19295035  0.16291843  1  0.035578  0.00308  -0.07291  -0.153138  0.000563  3.90155  0.003
C  C80  1  0.46984242  0.81166699  0.09065661  1  0.747864  0.008306  -0.02142  -0.024658  0.003047  3.769183  0.012
C  C81  1  0.53016135  0.18833939  0.90934322  1  0.748025  0.008304  -0.021325  -0.024427  0.003045  3.769067  0.012
C  C82  1  0.09108447  0.83700219  0.10344576  1  0.76972  0.009801  -0.016129  -0.012567  0.004134  3.747432  0.014
C  C83  1  0.90892148  0.16299930  0.89655414  1  0.769903  0.009796  -0.016087  -0.012409  0.004131  3.747103  0.014
C  C84  1  0.77315073  0.50542686  0.07017228  1  0.745289  0.018721  -0.010914  -0.010784  0.009918  3.746901  0.019
C  C85  1  0.22684681  0.49456878  0.92983313  1  0.745323  0.018723  -0.010901  -0.010836  0.009918  3.746807  0.019
C  C86  1  0.77827333  0.13643143  0.10570265  1  0.774276  0.022725  -0.019011  -0.023507  0.011815  3.763984  0.021
C  C87  1  0.22171004  0.86355821  0.89429536  1  0.774076  0.022727  -0.019178  -0.023723  0.011816  3.763944  0.021
C  C88  1  0.03819688  0.43969543  0.68690843  1  -0.108726  2.9e-05  -0.101428  -0.084801  -3e-06  4.064914  0.0
C  C89  1  0.96180051  0.56030604  0.31309170  1  -0.108667  2.9e-05  -0.10149  -0.084897  -3e-06  4.064936  0.0
C  C90  1  0.96900455  0.47218966  0.62125599  1  -0.024947  -0.000145  -0.098927  -0.146964  -0.000149  3.9965  0.0
C  C91  1  0.03099555  0.52781085  0.37874533  1  -0.024988  -0.000145  -0.098933  -0.146994  -0.000149  3.996605  0.0
C  C92  1  0.84210470  0.49870616  0.62731086  1  -0.009753  5.7e-05  -0.01221  0.068062  3.1e-05  4.049631  0.0
C  C93  1  0.15789350  0.50129433  0.37268978  1  -0.009754  5.7e-05  -0.012171  0.068101  3.1e-05  4.04955  0.0
C  C94  1  0.78527680  0.49297067  0.70251300  1  -0.023693  2e-06  -0.000372  -0.005095  -6e-06  3.918184  0.0
C  C95  1  0.21472371  0.50703279  0.29748933  1  -0.023991  2e-06  -0.00042  -0.005188  -6e-06  3.918159  0.0
C  C96  1  0.85744723  0.46127995  0.76988872  1  -0.037138  -9e-06  -0.011415  0.073439  -3.7e-05  4.032338  0.0
C  C97  1  0.14255424  0.53872351  0.23011424  1  -0.03723  -9e-06  -0.0114  0.07342  -3.7e-05  4.032151  0.0
C  C98  1  0.98336304  0.43372369  0.76040144  1  -0.049815  -0.000122  -0.094752  -0.13633  -0.000196  3.966879  0.0
C  C99  1  0.01663611  0.56627682  0.23960045  1  -0.049632  -0.000122  -0.094662  -0.136171  -0.000196  3.966764  0.0
C  C100  1  0.76711430  0.53086405  0.56102869  1  -0.090758  -0.000511  -0.092293  -0.13667  -0.000583  4.021668  0.0
C  C101  1  0.23288580  0.46913646  0.43897264  1  -0.090859  -0.000511  -0.09226  -0.136523  -0.000582  4.021567  0.0
C  C102  1  0.64478299  0.55804103  0.56906755  1  -0.016755  2.1e-05  -0.089098  -0.129847  -4.7e-05  4.01216  0.0
C  C103  1  0.35521711  0.44195948  0.43093437  1  -0.016917  2.1e-05  -0.089181  -0.130141  -4.7e-05  4.012329  0.0
C  C104  1  0.58604027  0.55496166  0.64409321  1  0.016749  -9.7e-05  -0.010874  0.067962  -0.000122  4.034436  0.0
C  C105  1  0.41395969  0.44503787  0.35590859  1  0.016723  -9.7e-05  -0.010897  0.067989  -0.000122  4.03441  0.0
C  C106  1  0.65762979  0.52076791  0.71077106  1  -0.058659  -4.4e-05  -0.000252  -0.002503  -7.3e-05  3.918902  0.0
C  C107  1  0.34236936  0.47923260  0.28923083  1  -0.058645  -4.4e-05  -0.000328  -0.002532  -7.3e-05  3.918848  0.0
C  C108  1  0.60241736  0.51889944  0.78686230  1  0.02227  5.2e-05  -0.010359  0.076979  2e-06  4.019017  0.0
C  C109  1  0.39758302  0.48110304  0.21314050  1  0.022334  5.2e-05  -0.010259  0.077039  2e-06  4.018899  0.0
C  C110  1  0.67712503  0.48766741  0.85355400  1  -0.074796  9.2e-05  -0.092213  -0.129092  -0.000111  3.993689  0.0
C  C111  1  0.32287765  0.51233801  0.14644806  1  -0.074795  9.2e-05  -0.09223  -0.129171  -0.000111  3.993664  0.0
C  C112  1  0.79949607  0.46034571  0.84544408  1  -0.039896  0.00016  -0.096785  -0.141044  -7e-06  4.0293  0.0
C  C113  1  0.20050553  0.53965873  0.15455781  1  -0.039426  0.00016  -0.096795  -0.141018  -7e-06  4.029183  0.0
C  C114  1  0.46233471  0.58822614  0.65514412  1  -0.096114  0.000133  -0.092601  -0.134486  7.4e-05  3.968002  0.0
C  C115  1  0.53766226  0.41177239  0.34485742  1  -0.096692  0.000133  -0.092617  -0.134662  7.4e-05  3.968085  0.0
C  C116  1  0.40967679  0.58717036  0.72991792  1  -0.088025  -6.1e-05  -0.101086  -0.093833  -8e-05  4.070243  0.0
C  C117  1  0.59031991  0.41282620  0.27008216  1  -0.088057  -6.2e-05  -0.101044  -0.093726  -8e-05  4.070201  0.0
C  C118  1  0.47826591  0.55236809  0.79486916  1  -0.02301  0.00031  -0.095816  -0.141628  0.000101  3.990821  0.0
C  C119  1  0.52173351  0.44762750  0.20513090  1  -0.022979  0.00031  -0.095881  -0.141601  0.000101  3.990676  0.0
C  C120  1  0.35670940  0.89830916  0.66640656  1  -0.007133  2e-06  -0.096997  -0.080055  -5.1e-05  4.044068  0.0
C  C121  1  0.64329151  0.10169034  0.33359226  1  -0.007211  2e-06  -0.096973  -0.080062  -5.1e-05  4.04409  0.0
C  C122  1  0.46580455  0.99320855  0.68204304  1  -0.079452  -0.000127  -0.09415  -0.135095  -0.000194  3.977956  0.0
C  C123  1  0.53419459  0.00679193  0.31795583  1  -0.079587  -0.000127  -0.09412  -0.134933  -0.000194  3.977872  0.0
C  C124  1  0.52528674  0.03479516  0.61678535  1  0.046859  1.2e-05  -0.011954  0.0678  0.0  4.045062  0.0
C  C125  1  0.47471335  0.96520532  0.38321296  1  0.04688  1.2e-05  -0.012017  0.067703  0.0  4.044963  0.0
C  C126  1  0.47164989  0.97882709  0.53357882  1  -0.068754  -3e-05  -0.001266  -0.00517  -2.3e-05  3.919459  0.0
C  C127  1  0.52835102  0.02117242  0.46642061  1  -0.007094  -3e-05  -0.001269  -0.005101  -2.3e-05  3.919384  0.0
C  C128  1  0.36000591  0.88120540  0.51786962  1  -0.064738  3.2e-05  -0.012913  0.067408  0.0  4.04144  0.0
C  C129  1  0.63999418  0.11879508  0.48212929  1  -0.064577  3.2e-05  -0.012877  0.067376  0.0  4.041528  0.0
C  C130  1  0.30446168  0.84248372  0.58528349  1  -0.098354  -6.4e-05  -0.094741  -0.139981  -7.5e-05  3.98605  0.0
C  C131  1  0.69553937  0.15751676  0.41471486  1  -0.098356  -6.4e-05  -0.094788  -0.140042  -7.5e-05  3.986128  0.0
C  C132  1  0.30790798  0.82752983  0.43379408  1  -0.016692  -1.6e-05  -0.094634  -0.132804  -3.4e-05  4.004025  0.0
C  C133  1  0.69209470  0.17246870  0.56620469  1  -0.016869  -1.6e-05  -0.094688  -0.132897  -3.4e-05  4.004043  0.0
C  C134  1  0.63695340  0.13275911  0.63067131  1  -0.067314  9.2e-05  -0.092287  -0.130203  -1.1e-05  4.005116  0.0
C  C135  1  0.36304628  0.86723842  0.36932660  1  -0.067362  9.2e-05  -0.092301  -0.13026  -1.1e-05  4.00516  0.0
N  N136  1  0.79121895  0.82963033  0.22618237  1  -1.239395  0.05391  -0.319105  -0.234042  0.025443  3.52841  0.042
N  N137  1  0.20877885  0.17036722  0.77381848  1  -1.239347  0.053913  -0.319134  -0.233938  0.025443  3.528413  0.042
N  N138  1  0.77610874  0.82164045  0.95969910  1  -1.212067  0.053152  -0.320923  -0.231166  0.023933  3.521007  0.043
N  N139  1  0.22389259  0.17836202  0.04030193  1  -1.212062  0.053154  -0.320913  -0.231144  0.023934  3.521039  0.043
N  N140  1  0.57927659  0.80431433  0.08665505  1  -1.341921  0.051836  -0.362623  -0.327893  0.023927  3.433053  0.03
N  N141  1  0.42072446  0.19567930  0.91334483  1  -1.342056  0.051838  -0.362727  -0.328077  0.023926  3.43325  0.03
N  N142  1  0.77171311  0.61626535  0.06951009  1  -1.322878  0.057264  -0.353127  -0.315909  0.026605  3.371292  0.031
N  N143  1  0.22829284  0.38372930  0.93049194  1  -1.32272  0.057258  -0.353156  -0.315903  0.026609  3.371235  0.031
N  N144  1  0.98045283  0.84099326  0.10190633  1  -1.348735  0.051717  -0.362643  -0.331308  0.024129  3.435656  0.03
N  N145  1  0.01955447  0.15900432  0.89809372  1  -1.348853  0.051713  -0.362698  -0.331452  0.024128  3.435479  0.03
N  N146  1  0.78250192  0.02943536  0.11448945  1  -1.349218  0.056082  -0.356647  -0.318874  0.025648  3.378923  0.028
N  N147  1  0.21749315  0.97055629  0.88551053  1  -1.348955  0.056075  -0.356506  -0.318664  0.025646  3.378616  0.028
