# generated using pymatgen
data_ZnH4(C2O3)2
_symmetry_space_group_name_H-M   'P 1'
_cell_length_a   16.39174485
_cell_length_b   16.39175043
_cell_length_c   16.39174240
_cell_angle_alpha   89.99990667
_cell_angle_beta   90.00045847
_cell_angle_gamma   89.99967228
_symmetry_Int_Tables_number   1
_chemical_formula_structural   ZnH4(C2O3)2
_chemical_formula_sum   'Zn24 H96 C96 O144'
_cell_volume   4404.28727883
_cell_formula_units_Z   24
loop_
 _symmetry_equiv_pos_site_id
 _symmetry_equiv_pos_as_xyz
  1  'x, y, z'
loop_
 _atom_site_type_symbol
 _atom_site_label
 _atom_site_symmetry_multiplicity
 _atom_site_fract_x
 _atom_site_fract_y
 _atom_site_fract_z
 _atom_site_occupancy
 _atom_site_pbe_bader_charge
 _atom_site_pbe_bader_spin_density
 _atom_site_pbe_cm5_charge
 _atom_site_pbe_ddec_charge
 _atom_site_pbe_ddec_spin_density
 _atom_site_pbe_ddec_sum_bond_order
 _atom_site_pbe_magmom
Zn  Zn0  1  0.49850111  0.49849974  0.24999881  1  1.384367  0  0.675441  0.971919  0  2.217723  0
Zn  Zn1  1  0.00150216  0.49849811  0.24999926  1  1.384235  0  0.675466  0.971923  0  2.217659  0
Zn  Zn2  1  0.49849765  0.00150279  0.25000165  1  1.384267  0  0.675483  0.971966  0  2.217469  0
Zn  Zn3  1  0.25000080  0.49849964  0.49849855  1  1.384214  0  0.675424  0.971877  0  2.217672  0
Zn  Zn4  1  0.00150053  0.00150055  0.25000210  1  1.384244  0  0.675419  0.971901  0  2.217749  0
Zn  Zn5  1  0.00150204  0.25000218  0.49849836  1  1.38416  0  0.675438  0.971908  0  2.217701  0
Zn  Zn6  1  0.24999978  0.00150024  0.49850261  1  1.384378  0  0.675404  0.971812  0  2.21777  0
Zn  Zn7  1  0.49849672  0.25000197  0.49849669  1  1.384208  0  0.675488  0.971994  0  2.217627  0
Zn  Zn8  1  0.25000084  0.00149821  0.00150236  1  1.384357  0  0.675416  0.971921  0  2.217725  0
Zn  Zn9  1  0.00150127  0.24999892  0.00150178  1  1.384221  0  0.675475  0.971943  0  2.217672  0
Zn  Zn10  1  0.25000064  0.49849577  0.00150013  1  1.384257  0  0.675502  0.972052  0  2.217479  0
Zn  Zn11  1  0.49849961  0.24999872  0.00149950  1  1.384242  0  0.675411  0.971852  0  2.217664  0
Zn  Zn12  1  0.50149729  0.50149778  0.74999996  1  1.384333  0  0.675383  0.971845  0  2.217816  0
Zn  Zn13  1  0.99849441  0.50150185  0.74999890  1  1.384189  0  0.675507  0.972012  0  2.217655  0
Zn  Zn14  1  0.50150136  0.99849717  0.75000017  1  1.384232  0  0.675453  0.971899  0  2.217739  0
Zn  Zn15  1  0.74999822  0.50150276  0.50150083  1  1.384231  0  0.675452  0.971938  0  2.21771  0
Zn  Zn16  1  0.99850092  0.99850002  0.74999850  1  1.384178  0  0.675406  0.971866  0  2.217688  0
Zn  Zn17  1  0.99850125  0.75000083  0.50149858  1  1.384214  0  0.675425  0.971857  0  2.217694  0
Zn  Zn18  1  0.74999923  0.99850216  0.50149921  1  1.384281  0  0.675409  0.97187  0  2.217726  0
Zn  Zn19  1  0.50150169  0.74999860  0.50149964  1  1.3843  0  0.675466  0.97199  0  2.217658  0
Zn  Zn20  1  0.74999939  0.99850053  0.99849945  1  1.384195  0  0.675418  0.971939  0  2.217665  0
Zn  Zn21  1  0.99850019  0.75000104  0.99849943  1  1.384186  0  0.675432  0.971924  0  2.217698  0
Zn  Zn22  1  0.74999959  0.50150175  0.99849925  1  1.384212  0  0.675469  0.972009  0  2.217549  0
Zn  Zn23  1  0.50150246  0.74999880  0.99849805  1  1.384224  0  0.675453  0.971907  0  2.217609  0
H  H24  1  0.47032985  0.59497141  0.37669106  1  0.670957  0  0.29574  0.388901  0  0.947229  0
H  H25  1  0.90502828  0.47032881  0.37669169  1  0.670951  0  0.295757  0.388984  0  0.947125  0
H  H26  1  0.47032611  0.90502636  0.12331079  1  0.670963  0  0.295682  0.388901  0  0.947208  0
H  H27  1  0.37668943  0.47032893  0.59497082  1  0.670981  0  0.295748  0.38896  0  0.947146  0
H  H28  1  0.02966873  0.90502986  0.37669210  1  0.670948  0  0.295754  0.388924  0  0.947219  0
H  H29  1  0.59497364  0.47032930  0.12330921  1  0.670938  0  0.295697  0.388869  0  0.947265  0
H  H30  1  0.02966990  0.37669196  0.59497073  1  0.670822  0  0.295757  0.388942  0  0.947143  0
H  H31  1  0.59496859  0.02967389  0.37669141  1  0.671115  0  0.295757  0.388959  0  0.947152  0
H  H32  1  0.02967166  0.59497166  0.12331111  1  0.670972  0  0.295737  0.388939  0  0.947171  0
H  H33  1  0.12330888  0.02967202  0.59497322  1  0.671072  0  0.295697  0.388891  0  0.947241  0
H  H34  1  0.90502670  0.02967077  0.12331081  1  0.670943  0  0.2957  0.38894  0  0.947171  0
H  H35  1  0.47032902  0.12331142  0.59497087  1  0.670823  0  0.295739  0.388992  0  0.947097  0
H  H36  1  0.37669010  0.02966982  0.90502913  1  0.670815  0  0.295756  0.38897  0  0.947129  0
H  H37  1  0.02966942  0.12330999  0.90502705  1  0.670952  0  0.29571  0.38888  0  0.947249  0
H  H38  1  0.12330764  0.47032574  0.90503019  1  0.671095  0  0.295741  0.38893  0  0.947196  0
H  H39  1  0.47032770  0.37668862  0.90502739  1  0.670958  0  0.295728  0.38897  0  0.947128  0
H  H40  1  0.59497102  0.37669045  0.47032974  1  0.67082  0  0.295741  0.388912  0  0.947193  0
H  H41  1  0.37669013  0.90502635  0.47033027  1  0.670939  0  0.295721  0.388915  0  0.947214  0
H  H42  1  0.12330859  0.59496989  0.47032707  1  0.671104  0  0.295743  0.388956  0  0.947155  0
H  H43  1  0.37668986  0.59497013  0.02967084  1  0.670835  0  0.295716  0.388899  0  0.947195  0
H  H44  1  0.59497242  0.12331091  0.02967027  1  0.670953  0  0.295705  0.388895  0  0.947229  0
H  H45  1  0.12330960  0.90502743  0.02967384  1  0.671085  0  0.295688  0.388935  0  0.947181  0
H  H46  1  0.90502838  0.37669114  0.02967069  1  0.670956  0  0.295728  0.3889  0  0.947226  0
H  H47  1  0.90502660  0.12331150  0.47032875  1  0.670946  0  0.295695  0.388892  0  0.947235  0
H  H48  1  0.52966978  0.40502733  0.62330953  1  0.670931  0  0.295708  0.388872  0  0.947286  0
H  H49  1  0.09497134  0.52966993  0.62331196  1  0.67083  0  0.295721  0.388935  0  0.947162  0
H  H50  1  0.52966985  0.09497054  0.87669164  1  0.670837  0  0.295693  0.388843  0  0.947264  0
H  H51  1  0.62330837  0.52967347  0.40502734  1  0.671091  0  0.295729  0.389008  0  0.947078  0
H  H52  1  0.97032967  0.09497254  0.62330972  1  0.670942  0  0.295701  0.388884  0  0.947267  0
H  H53  1  0.40502782  0.52967066  0.87669139  1  0.670946  0  0.29571  0.388879  0  0.947254  0
H  H54  1  0.97032851  0.62330922  0.40502926  1  0.670967  0  0.295737  0.388891  0  0.947236  0
H  H55  1  0.40502738  0.97032728  0.62330919  1  0.67083  0  0.295663  0.38882  0  0.947288  0
H  H56  1  0.97032736  0.40502952  0.87669132  1  0.67095  0  0.295766  0.388987  0  0.947107  0
H  H57  1  0.87668953  0.97033038  0.40502921  1  0.670825  0  0.295748  0.388953  0  0.94715  0
H  H58  1  0.09497354  0.97032797  0.87668979  1  0.670955  0  0.295708  0.38892  0  0.947193  0
H  H59  1  0.52966878  0.87669098  0.40502729  1  0.670798  0  0.295733  0.388979  0  0.94712  0
H  H60  1  0.62330892  0.97032709  0.09497269  1  0.671085  0  0.295719  0.388943  0  0.947176  0
H  H61  1  0.97033081  0.87668997  0.09497416  1  0.670932  0  0.295711  0.388905  0  0.947216  0
H  H62  1  0.87669138  0.52966995  0.09497163  1  0.670813  0  0.295743  0.388918  0  0.947203  0
H  H63  1  0.52967192  0.62330951  0.09496955  1  0.671111  0  0.295742  0.388924  0  0.947198  0
H  H64  1  0.40502921  0.62331012  0.52966964  1  0.670959  0  0.295731  0.388892  0  0.947232  0
H  H65  1  0.62330767  0.09497117  0.52967033  1  0.671078  0  0.29573  0.388915  0  0.947232  0
H  H66  1  0.87668920  0.40502763  0.52967231  1  0.670824  0  0.295708  0.388916  0  0.94719  0
H  H67  1  0.62330855  0.40502861  0.97033037  1  0.670819  0  0.295752  0.388925  0  0.947196  0
H  H68  1  0.40503147  0.87669088  0.97032850  1  0.670969  0  0.295781  0.388973  0  0.947107  0
H  H69  1  0.87669124  0.09497314  0.97033042  1  0.670794  0  0.29572  0.388943  0  0.947167  0
H  H70  1  0.09497430  0.62331004  0.97032930  1  0.670947  0  0.295716  0.388955  0  0.947145  0
H  H71  1  0.09497547  0.87669090  0.52967063  1  0.67094  0  0.295702  0.38889  0  0.947234  0
H  H72  1  0.40511797  0.51981672  0.37771699  1  0.66928  0  0.2976  0.393058  0  0.940148  0
H  H73  1  0.98018337  0.40511958  0.37771634  1  0.669321  0  0.297589  0.393005  0  0.940222  0
H  H74  1  0.40511807  0.98018326  0.12228556  1  0.669518  0  0.297572  0.392975  0  0.940261  0
H  H75  1  0.37771666  0.40512057  0.51981596  1  0.669284  0  0.297603  0.393035  0  0.940184  0
H  H76  1  0.09488244  0.98018333  0.37772209  1  0.668988  0  0.297564  0.393021  0  0.940192  0
H  H77  1  0.51981770  0.40511927  0.12228039  1  0.669023  0  0.297597  0.393044  0  0.940158  0
H  H78  1  0.09488413  0.37771979  0.51981485  1  0.668865  0  0.297556  0.393007  0  0.940212  0
H  H79  1  0.51981472  0.09488496  0.37771780  1  0.669167  0  0.297562  0.392964  0  0.940261  0
H  H80  1  0.09488213  0.51981721  0.12228043  1  0.669022  0  0.29756  0.392968  0  0.940272  0
H  H81  1  0.12228287  0.09488110  0.51981885  1  0.669643  0  0.297572  0.392998  0  0.940239  0
H  H82  1  0.98018141  0.09488019  0.12228371  1  0.66941  0  0.297596  0.393038  0  0.940188  0
H  H83  1  0.40511358  0.12228432  0.51981752  1  0.669517  0  0.297563  0.39302  0  0.940199  0
H  H84  1  0.37771817  0.09488244  0.98018521  1  0.669275  0  0.297602  0.393056  0  0.94015  0
H  H85  1  0.09488121  0.12227934  0.98018162  1  0.668988  0  0.297583  0.393023  0  0.940201  0
H  H86  1  0.12228078  0.40511544  0.98018516  1  0.669277  0  0.297562  0.39299  0  0.940221  0
H  H87  1  0.40511774  0.37771243  0.98018143  1  0.669502  0  0.297618  0.393034  0  0.940182  0
H  H88  1  0.51981647  0.37771989  0.40511551  1  0.668981  0  0.297566  0.392986  0  0.940241  0
H  H89  1  0.37771822  0.98018250  0.40512055  1  0.669042  0  0.297621  0.393077  0  0.940113  0
H  H90  1  0.12228303  0.51981507  0.40511807  1  0.66921  0  0.297564  0.392992  0  0.940236  0
H  H91  1  0.37771890  0.51981520  0.09488240  1  0.668891  0  0.297567  0.392979  0  0.940263  0
H  H92  1  0.51981839  0.12228434  0.09488207  1  0.669682  0  0.297609  0.393067  0  0.940135  0
H  H93  1  0.12228291  0.98018226  0.09488588  1  0.669557  0  0.297556  0.392995  0  0.940221  0
H  H94  1  0.98018232  0.37771761  0.09488248  1  0.669004  0  0.297589  0.393021  0  0.940204  0
H  H95  1  0.98018368  0.12228399  0.40511634  1  0.669253  0  0.297578  0.393062  0  0.940148  0
H  H96  1  0.59487921  0.48018324  0.62228178  1  0.66903  0  0.297586  0.39298  0  0.940238  0
H  H97  1  0.01981747  0.59488343  0.62228060  1  0.668986  0  0.297579  0.393006  0  0.940207  0
H  H98  1  0.59488277  0.01981609  0.87771747  1  0.669302  0  0.29757  0.392978  0  0.94026  0
H  H99  1  0.62228358  0.59488610  0.48018159  1  0.669576  0  0.297546  0.392964  0  0.94027  0
H  H100  1  0.90511840  0.01981846  0.62228095  1  0.669003  0  0.297598  0.39304  0  0.94018  0
H  H101  1  0.48018132  0.59488252  0.87771594  1  0.669641  0  0.297617  0.393089  0  0.940107  0
H  H102  1  0.90511550  0.62228321  0.48018331  1  0.669375  0  0.297619  0.393086  0  0.940098  0
H  H103  1  0.48018246  0.90511317  0.62228219  1  0.669202  0  0.297555  0.392936  0  0.940299  0
H  H104  1  0.90511201  0.48018336  0.87771773  1  0.669139  0  0.297545  0.392962  0  0.940257  0
H  H105  1  0.87771858  0.90511886  0.48018297  1  0.669013  0  0.297611  0.39307  0  0.940129  0
H  H106  1  0.01981700  0.90511855  0.87771689  1  0.669283  0  0.297601  0.393042  0  0.940168  0
H  H107  1  0.59487934  0.87771808  0.48018064  1  0.669065  0  0.29757  0.392981  0  0.940267  0
H  H108  1  0.62228390  0.90511691  0.01981600  1  0.669207  0  0.297583  0.393003  0  0.940218  0
H  H109  1  0.90512025  0.87771635  0.01982020  1  0.669036  0  0.297607  0.393028  0  0.940203  0
H  H110  1  0.87771824  0.59488208  0.01981788  1  0.668983  0  0.297591  0.393025  0  0.940199  0
H  H111  1  0.59488616  0.62228143  0.01981734  1  0.669295  0  0.297582  0.393028  0  0.940176  0
H  H112  1  0.48018194  0.62228129  0.59488326  1  0.66897  0  0.297594  0.393041  0  0.940173  0
H  H113  1  0.62228202  0.01981929  0.59488249  1  0.668997  0  0.29762  0.393094  0  0.940095  0
H  H114  1  0.87771538  0.48018367  0.59488131  1  0.669312  0  0.297569  0.392977  0  0.940257  0
H  H115  1  0.62227950  0.48018354  0.90511881  1  0.668985  0  0.297587  0.393016  0  0.940207  0
H  H116  1  0.48018611  0.87771806  0.90511548  1  0.669202  0  0.297573  0.39299  0  0.940223  0
H  H117  1  0.87771793  0.01981831  0.90511838  1  0.668999  0  0.297592  0.393041  0  0.940172  0
H  H118  1  0.01981974  0.62228418  0.90511995  1  0.6697  0  0.297584  0.392993  0  0.940245  0
H  H119  1  0.01981838  0.87771780  0.59488121  1  0.669016  0  0.297611  0.393059  0  0.94015  0
C  C120  1  0.30872564  0.48646864  0.22557234  1  0.805094  0  0.105886  0.171233  0  4.117034  0
C  C121  1  0.01352939  0.30872520  0.22557619  1  0.805431  0  0.10592  0.171249  0  4.117037  0
C  C122  1  0.30872841  0.01353619  0.27442599  1  0.805499  0  0.105935  0.17149  0  4.117933  0
C  C123  1  0.22557620  0.30872011  0.48646754  1  0.805339  0  0.105786  0.171189  0  4.117165  0
C  C124  1  0.19127275  0.01353230  0.22557836  1  0.805031  0  0.105985  0.171539  0  4.117268  0
C  C125  1  0.48647192  0.30872563  0.27441731  1  0.80494  0  0.105857  0.171121  0  4.116901  0
C  C126  1  0.19126709  0.22557350  0.48646442  1  0.804751  0  0.105929  0.171493  0  4.11702  0
C  C127  1  0.48647084  0.19127818  0.22557269  1  0.805503  0  0.105929  0.171352  0  4.117285  0
C  C128  1  0.19127404  0.48646527  0.27442208  1  0.801277  0  0.105835  0.171222  0  4.117328  0
C  C129  1  0.27442002  0.19127613  0.48647028  1  0.805346  0  0.105848  0.171183  0  4.117129  0
C  C130  1  0.01353358  0.19128010  0.27442100  1  0.805112  0  0.105802  0.171278  0  4.117359  0
C  C131  1  0.30872973  0.27442396  0.48646607  1  0.801437  0  0.105944  0.171467  0  4.117299  0
C  C132  1  0.22558135  0.19126812  0.01353012  1  0.805018  0  0.105955  0.171355  0  4.116846  0
C  C133  1  0.19127177  0.27442224  0.01353419  1  0.805415  0  0.105897  0.171281  0  4.117189  0
C  C134  1  0.27442633  0.30871364  0.01353022  1  0.801665  0  0.105924  0.171441  0  4.117656  0
C  C135  1  0.30872615  0.22557599  0.01353164  1  0.805858  0  0.105814  0.171224  0  4.117859  0
C  C136  1  0.48646680  0.22557219  0.30872550  1  0.801526  0  0.105877  0.171323  0  4.117094  0
C  C137  1  0.22557755  0.01353213  0.30872890  1  0.805146  0  0.105933  0.171287  0  4.116924  0
C  C138  1  0.27442273  0.48646745  0.30872566  1  0.805173  0  0.105882  0.171351  0  4.11718  0
C  C139  1  0.22557939  0.48646829  0.19127425  1  0.805475  0  0.105908  0.171423  0  4.117293  0
C  C140  1  0.48646680  0.27442247  0.19127059  1  0.805429  0  0.105918  0.171473  0  4.117355  0
C  C141  1  0.27442362  0.01353331  0.19128460  1  0.80176  0  0.105754  0.171089  0  4.117476  0
C  C142  1  0.01353132  0.22556815  0.19127118  1  0.805684  0  0.105882  0.171407  0  4.117433  0
C  C143  1  0.01353226  0.27441946  0.30872784  1  0.801317  0  0.10595  0.171426  0  4.11733  0
C  C144  1  0.69127276  0.51353193  0.77441971  1  0.805063  0  0.105857  0.17125  0  4.117324  0
C  C145  1  0.98647023  0.69127781  0.77442441  1  0.805662  0  0.105865  0.17127  0  4.117318  0
C  C146  1  0.69127548  0.98646926  0.72557278  1  0.805495  0  0.105952  0.17144  0  4.117259  0
C  C147  1  0.77442404  0.69128046  0.51353489  1  0.805266  0  0.105809  0.171156  0  4.11724  0
C  C148  1  0.80872626  0.98646705  0.77442224  1  0.80537  0  0.105916  0.171502  0  4.117497  0
C  C149  1  0.51353259  0.69127494  0.72557536  1  0.804969  0  0.105776  0.171157  0  4.117256  0
C  C150  1  0.80873193  0.77442829  0.51353251  1  0.805456  0  0.105982  0.171549  0  4.117208  0
C  C151  1  0.51353184  0.80872361  0.77442547  1  0.805765  0  0.105854  0.171148  0  4.117121  0
C  C152  1  0.80872071  0.51352858  0.72557059  1  0.801439  0  0.105881  0.171244  0  4.116881  0
C  C153  1  0.72557900  0.80872566  0.51353154  1  0.805094  0  0.105897  0.171236  0  4.117023  0
C  C154  1  0.98647275  0.80872474  0.72557716  1  0.805191  0  0.105885  0.171278  0  4.11723  0
C  C155  1  0.69127965  0.72557844  0.51353208  1  0.801695  0  0.105856  0.171357  0  4.117412  0
C  C156  1  0.77442682  0.80872391  0.98647109  1  0.805294  0  0.105915  0.171434  0  4.11715  0
C  C157  1  0.80872969  0.72557772  0.98646946  1  0.80528  0  0.105897  0.171325  0  4.117207  0
C  C158  1  0.72557817  0.69127717  0.98646733  1  0.805443  0  0.105824  0.171206  0  4.117277  0
C  C159  1  0.69127652  0.77442641  0.98646529  1  0.801563  0  0.105818  0.17123  0  4.117319  0
C  C160  1  0.51353038  0.77441862  0.69126839  1  0.805266  0  0.106027  0.171492  0  4.116896  0
C  C161  1  0.77442757  0.98646905  0.69127963  1  0.805394  0  0.105848  0.171217  0  4.117299  0
C  C162  1  0.72556835  0.51353190  0.69127799  1  0.805696  0  0.105866  0.171411  0  4.11754  0
C  C163  1  0.77441475  0.51353045  0.80872879  1  0.805463  0  0.105962  0.171415  0  4.11737  0
C  C164  1  0.51353038  0.72557200  0.80872391  1  0.801609  0  0.105876  0.171351  0  4.117307  0
C  C165  1  0.72558333  0.98647214  0.80872332  1  0.801193  0  0.105952  0.171324  0  4.117029  0
C  C166  1  0.98646647  0.77442266  0.80872088  1  0.801461  0  0.10575  0.171201  0  4.117553  0
C  C167  1  0.98647285  0.72557501  0.69126971  1  0.805678  0  0.106047  0.171532  0  4.117287  0
C  C168  1  0.50127869  0.69097401  0.22629160  1  0.798655  0  0.105133  0.171166  0  4.119058  0
C  C169  1  0.80903781  0.50128381  0.22628872  1  0.802767  0  0.105024  0.171034  0  4.119337  0
C  C170  1  0.50127977  0.80903152  0.27370806  1  0.802575  0  0.105145  0.171086  0  4.119335  0
C  C171  1  0.22628536  0.50128082  0.69096731  1  0.803055  0  0.105094  0.171314  0  4.119287  0
C  C172  1  0.99872021  0.80902892  0.22628801  1  0.802575  0  0.105018  0.170895  0  4.119048  0
C  C173  1  0.69097003  0.50128228  0.27371090  1  0.798766  0  0.105146  0.171306  0  4.119202  0
C  C174  1  0.99871398  0.22629334  0.69096940  1  0.802986  0  0.105094  0.17112  0  4.119059  0
C  C175  1  0.69096354  0.99871912  0.22628601  1  0.80255  0  0.10496  0.170982  0  4.119449  0
C  C176  1  0.99872074  0.69096767  0.27370954  1  0.802947  0  0.105232  0.17132  0  4.119229  0
C  C177  1  0.27371513  0.99871567  0.69096465  1  0.802711  0  0.105007  0.171163  0  4.119339  0
C  C178  1  0.80903292  0.99871691  0.27371036  1  0.799139  0  0.105244  0.171378  0  4.119065  0
C  C179  1  0.50128053  0.27371069  0.69096432  1  0.802792  0  0.105072  0.171095  0  4.119317  0
C  C180  1  0.22628990  0.99871693  0.80903245  1  0.798877  0  0.105123  0.171258  0  4.119466  0
C  C181  1  0.99871432  0.27371466  0.80903430  1  0.802761  0  0.105047  0.17093  0  4.119537  0
C  C182  1  0.27370848  0.50127998  0.80903548  1  0.802981  0  0.105135  0.171254  0  4.119403  0
C  C183  1  0.50128113  0.22628796  0.80903235  1  0.802719  0  0.105104  0.171207  0  4.119275  0
C  C184  1  0.69096868  0.22629254  0.50128547  1  0.803011  0  0.10522  0.171303  0  4.118976  0
C  C185  1  0.22628616  0.80903701  0.50128070  1  0.803002  0  0.105029  0.171107  0  4.119534  0
C  C186  1  0.27371220  0.69096589  0.50127854  1  0.798791  0  0.105023  0.171031  0  4.119429  0
C  C187  1  0.22629093  0.69096806  0.99871784  1  0.802549  0  0.105083  0.170963  0  4.119161  0
C  C188  1  0.69096870  0.27371050  0.99871699  1  0.7988  0  0.105047  0.171143  0  4.119267  0
C  C189  1  0.27371080  0.80902975  0.99872221  1  0.802435  0  0.105133  0.171035  0  4.119231  0
C  C190  1  0.80903376  0.22628692  0.99871811  1  0.80292  0  0.105152  0.171352  0  4.119286  0
C  C191  1  0.80902919  0.27371057  0.50128468  1  0.802407  0  0.105044  0.170975  0  4.119286  0
C  C192  1  0.49871666  0.30903083  0.77371022  1  0.798634  0  0.105046  0.170948  0  4.119127  0
C  C193  1  0.19096731  0.49871859  0.77371493  1  0.802647  0  0.104939  0.170789  0  4.119308  0
C  C194  1  0.49871681  0.19096294  0.72628705  1  0.802763  0  0.105028  0.171062  0  4.119272  0
C  C195  1  0.77371305  0.49871608  0.30903024  1  0.802245  0  0.105005  0.170921  0  4.119129  0
C  C196  1  0.00128490  0.19097165  0.77371320  1  0.798983  0  0.105188  0.171306  0  4.119175  0
C  C197  1  0.30902654  0.49871463  0.72629702  1  0.798444  0  0.105126  0.171106  0  4.118986  0
C  C198  1  0.00128687  0.77371028  0.30903669  1  0.803044  0  0.105081  0.171159  0  4.119234  0
C  C199  1  0.30903121  0.00127901  0.77370910  1  0.80261  0  0.105097  0.170988  0  4.119281  0
C  C200  1  0.00128193  0.30903717  0.72629045  1  0.802743  0  0.105073  0.171027  0  4.119381  0
C  C201  1  0.72628572  0.00128124  0.30903229  1  0.802758  0  0.105037  0.171068  0  4.119276  0
C  C202  1  0.19097220  0.00128304  0.72629024  1  0.802527  0  0.105123  0.171119  0  4.119166  0
C  C203  1  0.49871483  0.72629232  0.30903383  1  0.802738  0  0.105063  0.17098  0  4.119343  0
C  C204  1  0.77370668  0.00128181  0.19096754  1  0.802401  0  0.105024  0.170931  0  4.119189  0
C  C205  1  0.00128470  0.72628835  0.19096813  1  0.798603  0  0.104995  0.171002  0  4.119141  0
C  C206  1  0.72629237  0.49871754  0.19096878  1  0.802977  0  0.105173  0.17116  0  4.119176  0
C  C207  1  0.49871666  0.77371505  0.19096642  1  0.802946  0  0.105057  0.171237  0  4.11954  0
C  C208  1  0.30902912  0.77370986  0.49871452  1  0.802524  0  0.10513  0.171153  0  4.119075  0
C  C209  1  0.77371408  0.19096783  0.49871807  1  0.798788  0  0.105096  0.171191  0  4.119508  0
C  C210  1  0.72628682  0.30904017  0.49872145  1  0.802741  0  0.104915  0.170923  0  4.119448  0
C  C211  1  0.77371236  0.30903129  0.00128276  1  0.802572  0  0.105051  0.170994  0  4.11908  0
C  C212  1  0.30903519  0.72628702  0.00128422  1  0.802711  0  0.105059  0.171231  0  4.119373  0
C  C213  1  0.72629310  0.19096837  0.00128327  1  0.802622  0  0.10509  0.171035  0  4.119287  0
C  C214  1  0.19096770  0.77371121  0.00128188  1  0.79886  0  0.105076  0.171221  0  4.11918  0
C  C215  1  0.19096800  0.72629122  0.49871348  1  0.802966  0  0.105134  0.171192  0  4.119383  0
O  O216  1  0.46121622  0.53682391  0.36170914  1  -1.298553  0  -0.576837  -0.757766  0  2.183211  0
O  O217  1  0.96317947  0.46121188  0.36170938  1  -1.298621  0  -0.576845  -0.757802  0  2.183249  0
O  O218  1  0.46121044  0.96317880  0.13829203  1  -1.298871  0  -0.576758  -0.757708  0  2.183242  0
O  O219  1  0.36170973  0.46121468  0.53682259  1  -1.29858  0  -0.576828  -0.757745  0  2.183253  0
O  O220  1  0.03878102  0.96317495  0.36171076  1  -1.298348  0  -0.576794  -0.757704  0  2.18324  0
O  O221  1  0.53682616  0.46121755  0.13829091  1  -1.298282  0  -0.576778  -0.757677  0  2.183241  0
O  O222  1  0.03878283  0.36170884  0.53681894  1  -1.298031  0  -0.576799  -0.757754  0  2.183247  0
O  O223  1  0.53682399  0.03878780  0.36171046  1  -1.298746  0  -0.576759  -0.757659  0  2.183234  0
O  O224  1  0.03878745  0.53682286  0.13829130  1  -1.298344  0  -0.576774  -0.757691  0  2.183292  0
O  O225  1  0.13828994  0.03878819  0.53682570  1  -1.299092  0  -0.576748  -0.757645  0  2.183309  0
O  O226  1  0.96317612  0.03878677  0.13829296  1  -1.298689  0  -0.576774  -0.75775  0  2.183201  0
O  O227  1  0.46121440  0.13829403  0.53682264  1  -1.298672  0  -0.576802  -0.757849  0  2.183131  0
O  O228  1  0.36170776  0.03878171  0.96317907  1  -1.298438  0  -0.576834  -0.757811  0  2.183162  0
O  O229  1  0.03878334  0.13829001  0.96317648  1  -1.298326  0  -0.576796  -0.7577  0  2.183291  0
O  O230  1  0.13829105  0.46121314  0.96317539  1  -1.298779  0  -0.576768  -0.757718  0  2.183273  0
O  O231  1  0.46121241  0.36170789  0.96317676  1  -1.298849  0  -0.576809  -0.75775  0  2.1832  0
O  O232  1  0.53681981  0.36170931  0.46121640  1  -1.298164  0  -0.576792  -0.757719  0  2.183269  0
O  O233  1  0.36170921  0.96317516  0.46121887  1  -1.298278  0  -0.576813  -0.757725  0  2.183164  0
O  O234  1  0.13829004  0.53682414  0.46121222  1  -1.298696  0  -0.576787  -0.757715  0  2.183245  0
O  O235  1  0.36170996  0.53681775  0.03878395  1  -1.298106  0  -0.576774  -0.757704  0  2.183233  0
O  O236  1  0.53682486  0.13828995  0.03878376  1  -1.298947  0  -0.576778  -0.757697  0  2.183223  0
O  O237  1  0.13829262  0.96317554  0.03878820  1  -1.299033  0  -0.57673  -0.757739  0  2.183211  0
O  O238  1  0.96317663  0.36170904  0.03878406  1  -1.29831  0  -0.576818  -0.757742  0  2.183246  0
O  O239  1  0.96317530  0.13829388  0.46121584  1  -1.298511  0  -0.576782  -0.757763  0  2.183197  0
O  O240  1  0.53878097  0.46317300  0.63829085  1  -1.298294  0  -0.576798  -0.757635  0  2.18333  0
O  O241  1  0.03681955  0.53878442  0.63829183  1  -1.298168  0  -0.576776  -0.757735  0  2.183195  0
O  O242  1  0.53878491  0.03681567  0.86171040  1  -1.298519  0  -0.576768  -0.75765  0  2.18331  0
O  O243  1  0.63829112  0.53878894  0.46317740  1  -1.299093  0  -0.576725  -0.757732  0  2.183217  0
O  O244  1  0.96121678  0.03682623  0.63828922  1  -1.298272  0  -0.576774  -0.757678  0  2.183243  0
O  O245  1  0.46317408  0.53878363  0.86170907  1  -1.298928  0  -0.576791  -0.757737  0  2.183226  0
O  O246  1  0.96121741  0.63828990  0.46317556  1  -1.298632  0  -0.576831  -0.757752  0  2.183173  0
O  O247  1  0.46318112  0.96121094  0.63829380  1  -1.298475  0  -0.576699  -0.757559  0  2.18334  0
O  O248  1  0.96121218  0.46317893  0.86170747  1  -1.298524  0  -0.576774  -0.757751  0  2.18324  0
O  O249  1  0.86170908  0.96121726  0.46317734  1  -1.298177  0  -0.576842  -0.757806  0  2.183178  0
O  O250  1  0.03682289  0.96121502  0.86170825  1  -1.298542  0  -0.576795  -0.757738  0  2.183183  0
O  O251  1  0.53878889  0.86170898  0.46317796  1  -1.298228  0  -0.576786  -0.757756  0  2.183232  0
O  O252  1  0.63829125  0.96121336  0.03682275  1  -1.298689  0  -0.576771  -0.757724  0  2.183196  0
O  O253  1  0.96121445  0.86170934  0.03682351  1  -1.298324  0  -0.576815  -0.757731  0  2.183266  0
O  O254  1  0.86170919  0.53878377  0.03682216  1  -1.298178  0  -0.576822  -0.757758  0  2.183217  0
O  O255  1  0.53878538  0.63829207  0.03682505  1  -1.298789  0  -0.576783  -0.757713  0  2.183249  0
O  O256  1  0.46317555  0.63829004  0.53878298  1  -1.298298  0  -0.576815  -0.757725  0  2.183227  0
O  O257  1  0.63828980  0.03682602  0.53878356  1  -1.298409  0  -0.576799  -0.757743  0  2.183201  0
O  O258  1  0.86170714  0.46317948  0.53878899  1  -1.298468  0  -0.5768  -0.75774  0  2.183289  0
O  O259  1  0.63828967  0.46317855  0.96121665  1  -1.298178  0  -0.576833  -0.757765  0  2.183266  0
O  O260  1  0.46318026  0.86171001  0.96121562  1  -1.298521  0  -0.576832  -0.757741  0  2.183178  0
O  O261  1  0.86170822  0.03682259  0.96121423  1  -1.298154  0  -0.576798  -0.757776  0  2.183198  0
O  O262  1  0.03682360  0.63829214  0.96121105  1  -1.298991  0  -0.576784  -0.757736  0  2.183258  0
O  O263  1  0.03682250  0.86170852  0.53878353  1  -1.298263  0  -0.576787  -0.757727  0  2.183211  0
O  O264  1  0.37928298  0.48871166  0.19472355  1  -1.169068  0  -0.281955  -0.424642  0  2.444155  0
O  O265  1  0.01128464  0.37927535  0.19472339  1  -1.16927  0  -0.282013  -0.42472  0  2.444365  0
O  O266  1  0.37926832  0.01129398  0.30527656  1  -1.169196  0  -0.282008  -0.424771  0  2.444851  0
O  O267  1  0.19472267  0.37927520  0.48870874  1  -1.169167  0  -0.282002  -0.424792  0  2.444184  0
O  O268  1  0.12072554  0.01128627  0.19473084  1  -1.168878  0  -0.282044  -0.424776  0  2.444424  0
O  O269  1  0.48871443  0.37927999  0.30527365  1  -1.168932  0  -0.282026  -0.424712  0  2.444068  0
O  O270  1  0.12071826  0.19472038  0.48871103  1  -1.168525  0  -0.281954  -0.424722  0  2.444236  0
O  O271  1  0.48871168  0.12072991  0.19472551  1  -1.169414  0  -0.282054  -0.424791  0  2.444413  0
O  O272  1  0.12072523  0.48870438  0.30527514  1  -1.16891  0  -0.282002  -0.42474  0  2.4443  0
O  O273  1  0.30527479  0.12072470  0.48871427  1  -1.169065  0  -0.28201  -0.42472  0  2.444258  0
O  O274  1  0.01129254  0.12072264  0.30527683  1  -1.168872  0  -0.282047  -0.424895  0  2.444088  0
O  O275  1  0.37927553  0.30527769  0.48870892  1  -1.169031  0  -0.281951  -0.424716  0  2.444533  0
O  O276  1  0.19472272  0.12071442  0.01128319  1  -1.169178  0  -0.281995  -0.424748  0  2.444196  0
O  O277  1  0.12072580  0.30526906  0.01129373  1  -1.169135  0  -0.281984  -0.424652  0  2.444515  0
O  O278  1  0.30527092  0.37926673  0.01128952  1  -1.169348  0  -0.282141  -0.424916  0  2.444368  0
O  O279  1  0.37927028  0.19472125  0.01128997  1  -1.16938  0  -0.281974  -0.424676  0  2.444469  0
O  O280  1  0.48870732  0.19472734  0.37927508  1  -1.168999  0  -0.281976  -0.424667  0  2.444428  0
O  O281  1  0.19472389  0.01128469  0.37928321  1  -1.169138  0  -0.282029  -0.424778  0  2.444218  0
O  O282  1  0.30527696  0.48871050  0.37927411  1  -1.168955  0  -0.281969  -0.424706  0  2.444316  0
O  O283  1  0.19472759  0.48871103  0.12072702  1  -1.169139  0  -0.282042  -0.424763  0  2.44426  0
O  O284  1  0.48871268  0.30527646  0.12072652  1  -1.169025  0  -0.281997  -0.42474  0  2.444403  0
O  O285  1  0.30527424  0.01129617  0.12072663  1  -1.169342  0  -0.282004  -0.424766  0  2.444101  0
O  O286  1  0.01128854  0.19472343  0.12072348  1  -1.1694  0  -0.281942  -0.424697  0  2.444584  0
O  O287  1  0.01129169  0.30527517  0.37927247  1  -1.168996  0  -0.282023  -0.42473  0  2.444333  0
O  O288  1  0.62072030  0.51128708  0.80527460  1  -1.169151  0  -0.282  -0.424744  0  2.444046  0
O  O289  1  0.98871010  0.62072583  0.80527233  1  -1.169408  0  -0.28205  -0.424777  0  2.444245  0
O  O290  1  0.62072765  0.98871574  0.69472892  1  -1.169188  0  -0.282028  -0.424742  0  2.444583  0
O  O291  1  0.80527574  0.62072720  0.51129003  1  -1.169073  0  -0.281979  -0.42471  0  2.444205  0
O  O292  1  0.87927348  0.98871125  0.80527464  1  -1.168944  0  -0.282018  -0.424797  0  2.444175  0
O  O293  1  0.51128642  0.62072058  0.69472146  1  -1.168848  0  -0.281961  -0.424712  0  2.444139  0
O  O294  1  0.87927465  0.80527470  0.51128591  1  -1.169204  0  -0.281979  -0.424714  0  2.444578  0
O  O295  1  0.51129100  0.87927249  0.80527021  1  -1.169339  0  -0.282003  -0.424619  0  2.444521  0
O  O296  1  0.87927562  0.51129436  0.69472363  1  -1.169202  0  -0.281996  -0.424733  0  2.444249  0
O  O297  1  0.69472789  0.87927892  0.51128755  1  -1.169046  0  -0.282026  -0.424716  0  2.444067  0
O  O298  1  0.98871563  0.87927671  0.69472194  1  -1.169189  0  -0.281958  -0.424734  0  2.444213  0
O  O299  1  0.62072775  0.69472898  0.51128679  1  -1.169201  0  -0.282039  -0.424788  0  2.444195  0
O  O300  1  0.80527813  0.87927333  0.98871497  1  -1.169237  0  -0.28198  -0.424751  0  2.444242  0
O  O301  1  0.87928176  0.69472297  0.98871663  1  -1.168947  0  -0.281974  -0.424741  0  2.444332  0
O  O302  1  0.69472749  0.62072713  0.98870864  1  -1.169024  0  -0.281998  -0.424685  0  2.444287  0
O  O303  1  0.62072874  0.80527566  0.98870575  1  -1.169238  0  -0.281975  -0.424695  0  2.444393  0
O  O304  1  0.51128803  0.80527262  0.62071881  1  -1.169051  0  -0.282046  -0.424754  0  2.44431  0
O  O305  1  0.80527451  0.98871161  0.62072410  1  -1.16921  0  -0.282034  -0.42478  0  2.444133  0
O  O306  1  0.69472267  0.51129007  0.62072466  1  -1.169321  0  -0.282022  -0.424805  0  2.444419  0
O  O307  1  0.80527081  0.51128588  0.87927114  1  -1.169105  0  -0.282011  -0.424695  0  2.444649  0
O  O308  1  0.51128572  0.69472533  0.87927164  1  -1.169239  0  -0.28199  -0.42468  0  2.444393  0
O  O309  1  0.69472600  0.98871538  0.87927641  1  -1.169036  0  -0.282028  -0.424802  0  2.444062  0
O  O310  1  0.98870926  0.80527470  0.87927163  1  -1.169088  0  -0.281998  -0.424728  0  2.444216  0
O  O311  1  0.98871525  0.69472906  0.62072569  1  -1.169354  0  -0.282026  -0.424721  0  2.444631  0
O  O312  1  0.50566452  0.62012741  0.19624911  1  -1.170543  0  -0.283264  -0.427969  0  2.434075  0
O  O313  1  0.87987638  0.50566632  0.19624704  1  -1.170888  0  -0.283153  -0.427734  0  2.434518  0
O  O314  1  0.50566116  0.87987200  0.30375425  1  -1.170691  0  -0.283321  -0.42794  0  2.434383  0
O  O315  1  0.19624616  0.50566610  0.62013091  1  -1.170977  0  -0.283139  -0.427864  0  2.434531  0
O  O316  1  0.99433232  0.87987679  0.19624597  1  -1.170573  0  -0.283211  -0.427814  0  2.434162  0
O  O317  1  0.62012960  0.50566576  0.30375257  1  -1.170613  0  -0.283222  -0.427969  0  2.434308  0
O  O318  1  0.99433170  0.19625025  0.62012642  1  -1.170892  0  -0.283176  -0.427861  0  2.434125  0
O  O319  1  0.62012411  0.99433239  0.19624499  1  -1.170743  0  -0.283144  -0.427763  0  2.434528  0
O  O320  1  0.99433837  0.62013080  0.30375154  1  -1.170948  0  -0.283316  -0.427947  0  2.434423  0
O  O321  1  0.30375437  0.99433478  0.62012789  1  -1.170834  0  -0.283126  -0.4278  0  2.434627  0
O  O322  1  0.87987115  0.99433644  0.30375321  1  -1.170971  0  -0.283253  -0.427955  0  2.434387  0
O  O323  1  0.50566346  0.30375328  0.62012682  1  -1.170803  0  -0.283185  -0.427781  0  2.434526  0
O  O324  1  0.19624824  0.99432816  0.87986800  1  -1.17078  0  -0.28319  -0.4279  0  2.434476  0
O  O325  1  0.99433853  0.30375472  0.87987419  1  -1.17086  0  -0.283248  -0.427784  0  2.434644  0
O  O326  1  0.30375070  0.50566314  0.87987188  1  -1.171053  0  -0.283294  -0.427945  0  2.434391  0
O  O327  1  0.50566542  0.19624472  0.87987172  1  -1.170737  0  -0.283206  -0.427909  0  2.434484  0
O  O328  1  0.62012702  0.19624958  0.50566486  1  -1.170938  0  -0.283328  -0.428036  0  2.434221  0
O  O329  1  0.19624829  0.87987089  0.50566626  1  -1.171085  0  -0.283169  -0.427801  0  2.434695  0
O  O330  1  0.30375254  0.62012590  0.50566507  1  -1.17078  0  -0.283197  -0.427826  0  2.43451  0
O  O331  1  0.19624611  0.62012520  0.99433509  1  -1.170576  0  -0.283186  -0.427834  0  2.434362  0
O  O332  1  0.62012867  0.30375387  0.99433277  1  -1.170656  0  -0.283162  -0.427871  0  2.434375  0
O  O333  1  0.30375497  0.87987446  0.99433652  1  -1.170552  0  -0.283257  -0.427882  0  2.434318  0
O  O334  1  0.87987131  0.19624783  0.99433573  1  -1.171045  0  -0.283243  -0.427977  0  2.434491  0
O  O335  1  0.87987393  0.30375597  0.50566581  1  -1.170438  0  -0.283158  -0.42779  0  2.434204  0
O  O336  1  0.49433266  0.37987560  0.80375454  1  -1.170585  0  -0.283185  -0.427828  0  2.434291  0
O  O337  1  0.12012446  0.49433303  0.80375478  1  -1.170776  0  -0.283147  -0.427755  0  2.434328  0
O  O338  1  0.49433237  0.12012552  0.69624574  1  -1.170852  0  -0.283154  -0.427799  0  2.434492  0
O  O339  1  0.80375713  0.49433447  0.37987823  1  -1.170377  0  -0.283178  -0.427822  0  2.434123  0
O  O340  1  0.00566548  0.12012988  0.80375218  1  -1.170906  0  -0.283279  -0.428002  0  2.434308  0
O  O341  1  0.37987124  0.49433298  0.69624681  1  -1.170378  0  -0.283208  -0.427959  0  2.433995  0
O  O342  1  0.00566671  0.80375581  0.37987174  1  -1.171082  0  -0.283144  -0.427825  0  2.434544  0
O  O343  1  0.37987429  0.00566269  0.80375377  1  -1.170693  0  -0.283249  -0.427881  0  2.434406  0
O  O344  1  0.00566248  0.37987648  0.69624662  1  -1.170859  0  -0.283233  -0.427797  0  2.434493  0
O  O345  1  0.69624648  0.00566762  0.37987271  1  -1.170719  0  -0.28318  -0.427881  0  2.434454  0
O  O346  1  0.12012726  0.00566657  0.69624617  1  -1.170471  0  -0.283222  -0.427914  0  2.434232  0
O  O347  1  0.49433372  0.69624668  0.37987561  1  -1.170753  0  -0.283184  -0.427787  0  2.434407  0
O  O348  1  0.80375382  0.00566509  0.12012406  1  -1.170462  0  -0.2832  -0.427858  0  2.434321  0
O  O349  1  0.00566842  0.69624707  0.12012274  1  -1.170612  0  -0.283165  -0.427811  0  2.434212  0
O  O350  1  0.69625014  0.49433621  0.12012811  1  -1.170928  0  -0.283286  -0.427943  0  2.434399  0
O  O351  1  0.49433238  0.80375279  0.12013071  1  -1.171005  0  -0.283137  -0.427853  0  2.434585  0
O  O352  1  0.37987443  0.80375099  0.49433269  1  -1.170535  0  -0.283248  -0.427969  0  2.434159  0
O  O353  1  0.80375255  0.12013029  0.49433312  1  -1.170721  0  -0.283198  -0.4279  0  2.434584  0
O  O354  1  0.69624587  0.37987528  0.49433614  1  -1.170938  0  -0.283102  -0.427686  0  2.434608  0
O  O355  1  0.80375352  0.37987598  0.00566734  1  -1.170617  0  -0.283169  -0.427821  0  2.434249  0
O  O356  1  0.37987095  0.69624609  0.00566966  1  -1.170771  0  -0.283184  -0.42787  0  2.434554  0
O  O357  1  0.69624710  0.12012733  0.00566652  1  -1.170671  0  -0.28322  -0.427903  0  2.434352  0
O  O358  1  0.12012832  0.80375396  0.00566670  1  -1.170688  0  -0.283198  -0.427911  0  2.434375  0
O  O359  1  0.12012936  0.69624765  0.49433052  1  -1.170954  0  -0.283213  -0.427946  0  2.434554  0
