# generated using pymatgen
data_Zn4H22C29N2O17
_symmetry_space_group_name_H-M   'P 1'
_cell_length_a   18.43042779
_cell_length_b   18.02840815
_cell_length_c   18.23311126
_cell_angle_alpha   60.82190879
_cell_angle_beta   90.36477755
_cell_angle_gamma   60.76370363
_symmetry_Int_Tables_number   1
_chemical_formula_structural   Zn4H22C29N2O17
_chemical_formula_sum   'Zn8 H44 C58 N4 O34'
_cell_volume   4371.66700584
_cell_formula_units_Z   2
loop_
 _symmetry_equiv_pos_site_id
 _symmetry_equiv_pos_as_xyz
  1  'x, y, z'
loop_
 _atom_site_type_symbol
 _atom_site_label
 _atom_site_symmetry_multiplicity
 _atom_site_fract_x
 _atom_site_fract_y
 _atom_site_fract_z
 _atom_site_occupancy
 _atom_site_pbe_bader_charge
 _atom_site_pbe_bader_spin_density
 _atom_site_pbe_cm5_charge
 _atom_site_pbe_ddec_charge
 _atom_site_pbe_ddec_spin_density
 _atom_site_pbe_ddec_sum_bond_order
 _atom_site_pbe_magmom
Zn  Zn0  1  0.61871359  0.59061699  0.70793699  1  1.314894  0  0.680574  0.970461  0  2.341158  0
Zn  Zn1  1  0.78691792  0.59676953  0.69948147  1  1.320852  0  0.680668  0.970342  0  2.331841  0
Zn  Zn2  1  0.38042062  0.40494179  0.29646212  1  1.308053  0  0.679556  0.966144  0  2.348042  0
Zn  Zn3  1  0.21090441  0.40426907  0.29754617  1  1.316658  0  0.681992  0.980837  0  2.306882  0
Zn  Zn4  1  0.79315529  0.41250289  0.70498361  1  1.311873  0  0.674998  0.96988  0  2.359959  0
Zn  Zn5  1  0.21033074  0.58485513  0.12157890  1  1.3132  0  0.672444  0.959293  0  2.395478  0
Zn  Zn6  1  0.79013183  0.41600296  0.87655352  1  1.303453  0  0.673518  0.961222  0  2.391184  0
Zn  Zn7  1  0.20636884  0.58979941  0.29060665  1  1.316849  0  0.673914  0.96551  0  2.355244  0
H  H8  1  0.51731608  0.91884720  0.65861036  1  0.026262  0  0.092246  0.061055  0  0.987173  0
H  H9  1  0.43175236  0.91554811  0.58387502  1  0.021353  0  0.090105  0.060287  0  0.995437  0
H  H10  1  0.34115773  0.08412083  0.48177271  1  0.025471  0  0.089662  0.062529  0  0.989468  0
H  H11  1  0.42743813  0.08446834  0.56937246  1  0.016991  0  0.092835  0.061187  0  0.980079  0
H  H12  1  0.64888451  0.90807446  0.49804744  1  0.035079  0  0.092308  0.094188  0  1.000429  0
H  H13  1  0.57777512  0.90423525  0.43837436  1  0.020989  0  0.095976  0.101022  0  0.968354  0
H  H14  1  0.49362461  0.08284061  0.34641679  1  0.05175  0  0.093942  0.095168  0  0.982039  0
H  H15  1  0.56117815  0.08697886  0.40979556  1  0.052391  0  0.093548  0.097656  0  1.013759  0
H  H16  1  0.65581434  0.33765652  0.06149769  1  0.157856  0  0.124578  0.141681  0  0.974243  0
H  H17  1  0.98024909  0.36251528  0.04806215  1  0.13948  0  0.124616  0.141786  0  0.975117  0
H  H18  1  0.37598977  0.66497112  0.36040563  1  0.150847  0  0.124596  0.139294  0  0.982225  0
H  H19  1  0.99850897  0.66076791  0.40112109  1  0.149063  0  0.124401  0.141674  0  0.973125  0
H  H20  1  0.35185476  0.64419282  0.94967054  1  0.095901  0  0.116874  0.122632  0  0.977858  0
H  H21  1  0.00602016  0.65717617  0.94335929  1  0.097924  0  0.116191  0.122495  0  0.979273  0
H  H22  1  0.62365878  0.34280909  0.62953213  1  0.111351  0  0.11664  0.122107  0  0.975221  0
H  H23  1  0.99462765  0.35091805  0.59072582  1  0.109316  0  0.116597  0.122702  0  0.977491  0
H  H24  1  0.44544934  0.64410238  0.85015593  1  0.122212  0  0.117568  0.124185  0  0.979963  0
H  H25  1  0.90611476  0.66563093  0.84096178  1  0.095686  0  0.116547  0.121945  0  0.985312  0
H  H26  1  0.53027864  0.33459994  0.53711362  1  0.111774  0  0.11667  0.120584  0  0.987005  0
H  H27  1  0.09163370  0.34975807  0.49458437  1  0.11466  0  0.117774  0.124383  0  0.978061  0
H  H28  1  0.95005994  0.10160902  0.06473385  1  0.10153  0  0.112266  0.118959  0  0.986327  0
H  H29  1  0.04695493  0.90880753  0.16192410  1  0.10089  0  0.112885  0.119321  0  0.986173  0
H  H30  1  0.05216701  0.90018511  0.93059491  1  0.099978  0  0.108843  0.114169  0  0.9928  0
H  H31  1  0.95443126  0.09300119  0.83334140  1  0.077789  0  0.109418  0.115336  0  0.992556  0
H  H32  1  0.62609302  0.83242681  0.79524257  1  0.016804  0  0.081277  0.106371  0  1.005663  0
H  H33  1  0.66883717  0.74414649  0.76434419  1  0.015902  0  0.077088  0.104046  0  1.047519  0
H  H34  1  0.73726955  0.77221151  0.79772115  1  0.019819  0  0.079416  0.106466  0  1.022941  0
H  H35  1  0.69067632  0.87090707  0.63295468  1  0.041176  0  0.089441  0.085667  0  1.00039  0
H  H36  1  0.64424034  0.95406848  0.66810317  1  0.033971  0  0.089055  0.085774  0  1.016634  0
H  H37  1  0.43125289  0.76783919  0.61951769  1  -0.012616  0  0.07589  0.104938  0  1.034296  0
H  H38  1  0.32971732  0.88027787  0.53913641  1  0.014382  0  0.080824  0.105344  0  1.021371  0
H  H39  1  0.38667268  0.77750570  0.52591321  1  0.023445  0  0.077016  0.1082  0  1.028939  0
H  H40  1  0.40946939  0.91226726  0.42545833  1  0.007149  0  0.089289  0.088404  0  1.028487  0
H  H41  1  0.50849802  0.80515712  0.50653741  1  0.015921  0  0.080528  0.069248  0  1.034206  0
H  H42  1  0.27609560  0.01399181  0.41881051  1  0.017445  0  0.081109  0.111647  0  1.042585  0
H  H43  1  0.21183659  0.14826318  0.36853492  1  0.030777  0  0.078274  0.107149  0  1.014607  0
H  H44  1  0.23484930  0.09969917  0.30171320  1  0.036196  0  0.079556  0.109818  0  1.028059  0
H  H45  1  0.32486672  0.16764168  0.31384630  1  0.007051  0  0.082714  0.075705  0  1.01539  0
H  H46  1  0.38944339  0.04213549  0.34096056  1  0.014062  0  0.088659  0.081302  0  0.994506  0
H  H47  1  0.64914684  0.04769021  0.54046254  1  0.046301  0  0.087904  0.117595  0  1.019052  0
H  H48  1  0.57278301  0.17481439  0.44792292  1  0.039997  0  0.086561  0.12338  0  1.023453  0
H  H49  1  0.62095607  0.15281587  0.54677984  1  0.009352  0  0.07972  0.102411  0  1.012956  0
H  H50  1  0.46224592  0.20455009  0.52212671  1  0.026331  0  0.082327  0.071336  0  1.004909  0
H  H51  1  0.53660451  0.09484276  0.62558671  1  0.007394  0  0.085257  0.072221  0  0.990826  0
C  C52  1  0.88592349  0.50238092  0.60837636  1  1.568891  0  0.232326  0.613328  0  4.174805  0
C  C53  1  0.61184249  0.50629682  0.60540506  1  1.621289  0  0.232654  0.61206  0  4.189544  0
C  C54  1  0.11182947  0.50101888  0.11044484  1  1.602199  0  0.233096  0.613728  0  4.169541  0
C  C55  1  0.39119349  0.49559964  0.11594411  1  1.599483  0  0.231943  0.613955  0  4.176615  0
C  C56  1  0.61243933  0.49235460  0.89113010  1  1.56464  0  0.230891  0.602105  0  4.17178  0
C  C57  1  0.87719580  0.51711340  0.87999581  1  1.584228  0  0.233652  0.603906  0  4.168092  0
C  C58  1  0.38739358  0.49594258  0.39046025  1  1.577669  0  0.232658  0.606454  0  4.166948  0
C  C59  1  0.11103864  0.50257007  0.38710789  1  1.59139  0  0.232718  0.608331  0  4.164817  0
C  C60  1  0.88916988  0.22295483  0.88581768  1  1.546075  0  0.228656  0.604089  0  4.167303  0
C  C61  1  0.11363866  0.77897877  0.10946496  1  1.561972  0  0.22769  0.599563  0  4.173942  0
C  C62  1  0.60989679  0.78047553  0.61584826  1  1.514827  0  0.23684  0.603285  0  4.080779  0
C  C63  1  0.38840146  0.21520875  0.39047761  1  1.513648  0  0.23894  0.604721  0  4.074299  0
C  C64  1  0.54930056  0.94289462  0.60951960  1  -0.026405  0  -0.074219  -0.023684  0  3.688707  0
C  C65  1  0.45227734  0.93175618  0.52436378  1  0.010595  0  -0.081341  -0.031961  0  3.701872  0
C  C66  1  0.39285469  0.05235427  0.45530819  1  -0.000703  0  -0.084719  -0.040744  0  3.743929  0
C  C67  1  0.48513516  0.06421213  0.54643199  1  0.019544  0  -0.075988  -0.035921  0  3.716836  0
C  C68  1  0.57967798  0.93731831  0.47493457  1  -0.008604  0  -0.16166  -0.171011  0  3.870066  0
C  C69  1  0.52215579  0.05565584  0.41452853  1  -0.034422  0  -0.164432  -0.173229  0  3.86808  0
C  C70  1  0.54856368  0.89737510  0.55511886  1  0.039478  0  -0.012091  -0.040617  0  3.767876  0
C  C71  1  0.44750357  0.09760291  0.45032230  1  0.0587  0  -0.012026  -0.032125  0  3.754965  0
C  C72  1  0.58908496  0.40475919  0.03627606  1  -0.015774  0  -0.064911  -0.13512  0  3.920771  0
C  C73  1  0.98582894  0.42718201  0.02452939  1  0.018801  0  -0.067697  -0.139037  0  3.927662  0
C  C74  1  0.42998631  0.59374606  0.41916018  1  0.06163  0  -0.062975  -0.127369  0  3.920137  0
C  C75  1  0.99767495  0.59279864  0.44198342  1  -0.039068  0  -0.065832  -0.134998  0  3.918498  0
C  C76  1  0.53466905  0.40429819  0.08855330  1  0.19352  0  0.090147  0.065517  0  3.917217  0
C  C77  1  0.04425017  0.42198750  0.07802286  1  0.200281  0  0.090315  0.063279  0  3.94944  0
C  C78  1  0.48659223  0.59601457  0.46740904  1  0.209585  0  0.087431  0.053051  0  3.913386  0
C  C79  1  0.94094374  0.59382554  0.49181173  1  0.216722  0  0.089942  0.064838  0  3.912089  0
C  C80  1  0.44914994  0.49037046  0.05889406  1  0.047425  0  0.001497  -0.063791  0  3.931143  0
C  C81  1  0.05222658  0.50415535  0.05094624  1  -0.03046  0  -0.000473  -0.069446  0  3.929607  0
C  C82  1  0.55553069  0.50667460  0.54498554  1  0.012342  0  0.007052  -0.045714  0  3.917443  0
C  C83  1  0.93958127  0.50689653  0.54687336  1  0.055353  0  0.002212  -0.060082  0  3.923824  0
C  C84  1  0.41809004  0.57711134  0.97267175  1  0.023179  0  -0.069144  -0.074184  0  3.951279  0
C  C85  1  0.00045242  0.59272990  0.96501788  1  0.071791  0  -0.068425  -0.070334  0  3.941869  0
C  C86  1  0.56985201  0.41268392  0.56973194  1  -0.024569  0  -0.070362  -0.083856  0  3.949897  0
C  C87  1  0.99516892  0.41870691  0.54773600  1  -0.083723  0  -0.069674  -0.077168  0  3.950452  0
C  C88  1  0.47014823  0.57747526  0.91780201  1  -0.081779  0  -0.068367  -0.081277  0  3.944418  0
C  C89  1  0.94426980  0.59792280  0.90851829  1  -0.075299  0  -0.069078  -0.086631  0  3.946333  0
C  C90  1  0.51716206  0.40821253  0.51906302  1  -0.030187  0  -0.063764  -0.071444  0  3.935103  0
C  C91  1  0.04965236  0.41761933  0.49526139  1  0.024622  0  -0.068654  -0.079993  0  3.943184  0
C  C92  1  0.55611364  0.49154938  0.94982297  1  0.041235  0  -0.004094  -0.007836  0  3.957157  0
C  C93  1  0.93621613  0.51533898  0.93852030  1  0.060901  0  -0.00346  -0.007396  0  3.955457  0
C  C94  1  0.44578174  0.49905529  0.44467094  1  -0.024592  0  -0.005527  -0.013304  0  3.958343  0
C  C95  1  0.05179126  0.50431179  0.44296049  1  0.007241  0  -0.004808  -0.012334  0  3.957437  0
C  C96  1  0.97268063  0.05673047  0.03610367  1  0.08995  0  -0.076216  -0.088221  0  3.958981  0
C  C97  1  0.02642441  0.94997313  0.08995950  1  -0.041794  0  -0.075827  -0.085775  0  3.959924  0
C  C98  1  0.05524683  0.89366312  0.05172826  1  -0.04467  0  -0.012209  -0.030408  0  3.967275  0
C  C99  1  0.94686552  0.10820086  0.94350026  1  -0.082483  0  -0.013328  -0.031066  0  3.964889  0
C  C100  1  0.02933930  0.94509832  0.95915164  1  -0.039506  0  -0.079393  -0.090599  0  3.969067  0
C  C101  1  0.97525093  0.05184786  0.90528712  1  -0.002876  0  -0.079981  -0.093059  0  3.972329  0
C  C102  1  0.64211785  0.89606500  0.66480466  1  -0.042685  0  -0.172118  -0.139693  0  3.919582  0
C  C103  1  0.67026239  0.80607025  0.76053064  1  -0.061079  0  -0.252806  -0.353441  0  3.980277  0
C  C104  1  0.44343128  0.86706620  0.49652873  1  0.016351  0  -0.175847  -0.140038  0  3.919123  0
C  C105  1  0.39541744  0.82020555  0.54799595  1  -0.032796  0  -0.254151  -0.354991  0  3.978859  0
C  C106  1  0.34498110  0.08862106  0.36343246  1  0.001641  0  -0.172199  -0.131978  0  3.953299  0
C  C107  1  0.26283069  0.08694124  0.36310846  1  -0.071619  0  -0.25623  -0.358417  0  3.981064  0
C  C108  1  0.51870049  0.12417756  0.55473525  1  -0.029422  0  -0.167503  -0.122887  0  3.951261  0
C  C109  1  0.59450243  0.12443506  0.52042241  1  -0.08282  0  -0.251218  -0.361693  0  3.963022  0
N  N110  1  0.56853975  0.30585777  0.17456335  1  0.407357  0  0.060268  0.517813  0  4.226564  0
N  N111  1  0.10358920  0.32139192  0.16218171  1  0.413817  0  0.060627  0.516764  0  4.233666  0
N  N112  1  0.47660248  0.69523882  0.42909700  1  0.387337  0  0.062566  0.516714  0  4.200953  0
N  N113  1  0.87732760  0.69345720  0.47926644  1  0.432098  0  0.060248  0.518668  0  4.226282  0
O  O114  1  0.74795752  0.50286107  0.74682074  1  -1.214185  0  -0.57219  -1.033263  0  2.529629  0
O  O115  1  0.25121095  0.49674574  0.25100003  1  -1.218921  0  -0.572897  -1.034655  0  2.532045  0
O  O116  1  0.87271242  0.55562073  0.63973804  1  -1.147063  0  -0.308994  -0.537882  0  2.343046  0
O  O117  1  0.57213194  0.56932937  0.62727904  1  -1.151119  0  -0.304669  -0.534815  0  2.342282  0
O  O118  1  0.13437582  0.43758089  0.19383241  1  -1.1721  0  -0.306624  -0.543051  0  2.34352  0
O  O119  1  0.42814105  0.44790260  0.19843718  1  -1.162299  0  -0.310924  -0.539504  0  2.331992  0
O  O120  1  0.57233520  0.55535405  0.80808439  1  -1.16836  0  -0.308125  -0.537549  0  2.339214  0
O  O121  1  0.85100460  0.58377266  0.79694039  1  -1.168788  0  -0.303532  -0.532088  0  2.33092  0
O  O122  1  0.42274455  0.41677466  0.38773701  1  -1.167128  0  -0.308763  -0.539801  0  2.319637  0
O  O123  1  0.13513698  0.43672673  0.36802198  1  -1.163716  0  -0.308626  -0.539094  0  2.332495  0
O  O124  1  0.69353336  0.43769465  0.63276674  1  -1.165134  0  -0.307203  -0.533094  0  2.325748  0
O  O125  1  0.86155994  0.44207257  0.62611472  1  -1.150721  0  -0.307071  -0.534139  0  2.317771  0
O  O126  1  0.30923881  0.55118751  0.07495182  1  -1.15966  0  -0.307761  -0.533465  0  2.328362  0
O  O127  1  0.13286134  0.56468116  0.07085458  1  -1.163491  0  -0.307398  -0.530623  0  2.337784  0
O  O128  1  0.85942775  0.45012373  0.91952622  1  -1.173462  0  -0.312187  -0.541863  0  2.345909  0
O  O129  1  0.69533982  0.43009714  0.92937293  1  -1.160472  0  -0.310866  -0.53753  0  2.320904  0
O  O130  1  0.13184112  0.56697329  0.36383750  1  -1.171459  0  -0.312907  -0.542666  0  2.315226  0
O  O131  1  0.30758455  0.57301070  0.35176238  1  -1.174194  0  -0.309936  -0.538047  0  2.312276  0
O  O132  1  0.86628909  0.26579495  0.80193420  1  -1.183084  0  -0.315916  -0.551355  0  2.332029  0
O  O133  1  0.14170493  0.73262179  0.07044125  1  -1.16782  0  -0.315623  -0.547852  0  2.342867  0
O  O134  1  0.68868874  0.73844766  0.61406836  1  -1.167993  0  -0.304298  -0.532985  0  2.363099  0
O  O135  1  0.58006861  0.73075727  0.66661516  1  -1.183643  0  -0.315471  -0.558488  0  2.382947  0
O  O136  1  0.30740202  0.26083718  0.38583580  1  -1.178512  0  -0.313797  -0.553408  0  2.345138  0
O  O137  1  0.42411949  0.26167307  0.34912520  1  -1.171105  0  -0.30489  -0.535581  0  2.382733  0
O  O138  1  0.86729103  0.26912410  0.92516284  1  -1.180426  0  -0.312469  -0.543513  0  2.348382  0
O  O139  1  0.13103597  0.73619573  0.19308999  1  -1.170955  0  -0.311535  -0.541381  0  2.337838  0
O  O140  1  0.64241291  0.26246685  0.22376748  1  -0.431308  0  -0.132491  -0.32449  0  1.844962  0
O  O141  1  0.52169013  0.27256600  0.18892267  1  -0.438852  0  -0.124108  -0.31517  0  1.885953  0
O  O142  1  0.06975938  0.28767484  0.21635305  1  -0.437842  0  -0.115764  -0.310245  0  1.869109  0
O  O143  1  0.18236951  0.27686033  0.16895950  1  -0.436517  0  -0.109269  -0.300429  0  1.907572  0
O  O144  1  0.40199577  0.77475959  0.38373329  1  -0.437791  0  -0.122048  -0.319701  0  1.880631  0
O  O145  1  0.54452635  0.69182734  0.44244099  1  -0.442175  0  -0.120319  -0.316693  0  1.902775  0
O  O146  1  0.90727238  0.73841763  0.48710451  1  -0.444047  0  -0.136116  -0.328549  0  1.844775  0
O  O147  1  0.79882983  0.72595545  0.45824644  1  -0.439367  0  -0.123481  -0.313386  0  1.87849  0
