# generated using pymatgen
data_V2Cu2H21C21(NO)6
_symmetry_space_group_name_H-M   'P 1'
_cell_length_a   9.56262216
_cell_length_b   11.36941570
_cell_length_c   12.02311785
_cell_angle_alpha   71.22753494
_cell_angle_beta   81.94282597
_cell_angle_gamma   75.43871185
_symmetry_Int_Tables_number   1
_chemical_formula_structural   V2Cu2H21C21(NO)6
_chemical_formula_sum   'V4 Cu4 H42 C42 N12 O12'
_cell_volume   1195.37391642
_cell_formula_units_Z   2
loop_
 _symmetry_equiv_pos_site_id
 _symmetry_equiv_pos_as_xyz
  1  'x, y, z'
loop_
 _atom_site_type_symbol
 _atom_site_label
 _atom_site_symmetry_multiplicity
 _atom_site_fract_x
 _atom_site_fract_y
 _atom_site_fract_z
 _atom_site_occupancy
 _atom_site_hle17_bader_spin_density
 _atom_site_hle17_ddec_charge
 _atom_site_hle17_ddec_spin_density
 _atom_site_hle17_ddec_sum_bond_order
 _atom_site_hle17_magmom
 _atom_site_hse06_10hf_bader_spin_density
 _atom_site_hse06_10hf_ddec_charge
 _atom_site_hse06_10hf_ddec_spin_density
 _atom_site_hse06_10hf_ddec_sum_bond_order
 _atom_site_hse06_10hf_magmom
 _atom_site_hse06_bader_spin_density
 _atom_site_hse06_ddec_charge
 _atom_site_hse06_ddec_spin_density
 _atom_site_hse06_ddec_sum_bond_order
 _atom_site_hse06_magmom
 _atom_site_pbe_bader_spin_density
 _atom_site_pbe_cm5_charge
 _atom_site_pbe_ddec_charge
 _atom_site_pbe_ddec_spin_density
 _atom_site_pbe_ddec_sum_bond_order
 _atom_site_pbe_magmom
V  V0  1  0.01383451  0.08652455  0.15598043  1  0  1.967565  0  3.036587  0  0  2.022022  0  3.439866  0  0  2.121288  0  3.404244  0  0  1.411562  1.940956  0  3.490553  0
V  V1  1  0.98617233  0.91347025  0.84401464  1  0  1.967328  0  3.036806  0  0  2.021736  0  3.440209  0  0  2.121024  0  3.404509  0  0  1.411395  1.94059  0  3.490989  0
V  V2  1  0.11312283  0.78163158  0.12229099  1  0  1.992907  0  3.050253  0  0  2.053818  0  3.435062  0  0  2.151091  0  3.406224  0  0  1.429049  1.971244  0  3.486073  0
V  V3  1  0.88687955  0.21836416  0.87770347  1  0  1.992782  0  3.050235  0  0  2.053708  0  3.435077  0  0  2.150939  0  3.406245  0  0  1.428904  1.971056  0  3.486165  0
Cu  Cu4  1  0.36731975  0.17311448  0.06186757  1  0  0.539385  0  1.741585  0  0  0.407885  0  2.208544  0  0  0.412495  0  2.166568  0  0  0.523492  0.410317  0  2.233214  0
Cu  Cu5  1  0.63268065  0.82688516  0.93813422  1  0  0.539429  0  1.741571  0  0  0.407942  0  2.208551  0  0  0.412534  0  2.166548  0  0  0.523526  0.410366  0  2.23323  0
Cu  Cu6  1  0.00498417  0.52725000  0.27781246  1  0  0.542344  0  1.666639  0  0  0.414108  0  2.118932  0  0  0.433785  0  2.072682  0  0  0.476976  0.403182  0  2.146696  0
Cu  Cu7  1  0.99501646  0.47274866  0.72218629  1  0  0.542336  0  1.666636  0  0  0.414073  0  2.118898  0  0  0.433769  0  2.072687  0  0  0.476949  0.403176  0  2.146722  0
H  H8  1  0.69930189  0.04682107  0.08855030  1  0  0.10998  0  0.971261  0  0  0.11572  0  1.039231  0  0  0.118525  0  1.037276  0  0  0.118039  0.11353  0  1.041285  0
H  H9  1  0.30070192  0.95317761  0.91145056  1  0  0.109962  0  0.971307  0  0  0.115699  0  1.03928  0  0  0.118504  0  1.037325  0  0  0.118022  0.113507  0  1.041337  0
H  H10  1  0.05367826  0.13699554  0.63590778  1  0  0.130634  0  0.97689  0  0  0.136803  0  1.042772  0  0  0.140277  0  1.040418  0  0  0.126412  0.134572  0  1.043859  0
H  H11  1  0.94631793  0.86300412  0.36409615  1  0  0.130617  0  0.976808  0  0  0.136751  0  1.042761  0  0  0.140232  0  1.040408  0  0  0.126394  0.134523  0  1.043845  0
H  H12  1  0.09029485  0.38541340  0.99679757  1  0  0.110644  0  0.968817  0  0  0.121439  0  1.025005  0  0  0.123266  0  1.024911  0  0  0.11833  0.12019  0  1.025075  0
H  H13  1  0.90970613  0.61458811  0.00320107  1  0  0.110682  0  0.968758  0  0  0.121448  0  1.024987  0  0  0.123273  0  1.024896  0  0  0.118363  0.1202  0  1.025057  0
H  H14  1  0.67176622  0.59085607  0.69340858  1  0  0.080249  0  0.970725  0  0  0.089058  0  1.040102  0  0  0.092356  0  1.037598  0  0  0.093413  0.086393  0  1.042569  0
H  H15  1  0.32823288  0.40914451  0.30659140  1  0  0.080247  0  0.970751  0  0  0.089064  0  1.040121  0  0  0.092364  0  1.037614  0  0  0.093419  0.086399  0  1.042585  0
H  H16  1  0.50415653  0.64608864  0.84452537  1  0  0.077252  0  0.942544  0  0  0.087007  0  1.017135  0  0  0.088978  0  1.014521  0  0  0.109485  0.085467  0  1.019043  0
H  H17  1  0.49584210  0.35391384  0.15547407  1  0  0.077293  0  0.942484  0  0  0.087034  0  1.017111  0  0  0.089009  0  1.014503  0  0  0.10951  0.085493  0  1.019019  0
H  H18  1  0.32740030  0.73852675  0.80963543  1  0  0.106073  0  0.917863  0  0  0.121284  0  0.976092  0  0  0.122869  0  0.974305  0  0  0.12156  0.120204  0  0.977343  0
H  H19  1  0.67259963  0.26147480  0.19036582  1  0  0.106013  0  0.917959  0  0  0.121286  0  0.976112  0  0  0.122876  0  0.974331  0  0  0.121553  0.120204  0  0.977364  0
H  H20  1  0.11569083  0.63447658  0.86714319  1  0  0.113747  0  0.975247  0  0  0.117556  0  1.048097  0  0  0.120044  0  1.046814  0  0  0.124581  0.116059  0  1.048588  0
H  H21  1  0.88431039  0.36552399  0.13285654  1  0  0.113746  0  0.975237  0  0  0.117557  0  1.048092  0  0  0.120046  0  1.046808  0  0  0.124573  0.116057  0  1.048584  0
H  H22  1  0.64281204  0.61626517  0.29468100  1  0  0.08374  0  0.923075  0  0  0.097064  0  0.991024  0  0  0.098762  0  0.989266  0  0  0.110504  0.095878  0  0.992095  0
H  H23  1  0.35718649  0.38373350  0.70531964  1  0  0.083717  0  0.923024  0  0  0.097052  0  0.990989  0  0  0.09875  0  0.989233  0  0  0.110519  0.095866  0  0.992064  0
H  H24  1  0.45372019  0.65424019  0.27497430  1  0  0.102035  0  0.951997  0  0  0.116066  0  1.014938  0  0  0.117419  0  1.013804  0  0  0.111665  0.115072  0  1.015723  0
H  H25  1  0.54627762  0.34576134  0.72502636  1  0  0.101996  0  0.951966  0  0  0.116048  0  1.014911  0  0  0.117402  0  1.013776  0  0  0.111641  0.115053  0  1.015697  0
H  H26  1  0.72947920  0.60712644  0.48195133  1  0  0.077962  0  0.971368  0  0  0.088618  0  1.039214  0  0  0.091029  0  1.03825  0  0  0.092719  0.086399  0  1.040848  0
H  H27  1  0.27052015  0.39287319  0.51804975  1  0  0.077985  0  0.971401  0  0  0.088661  0  1.039223  0  0  0.091071  0  1.038261  0  0  0.092728  0.086437  0  1.040858  0
H  H28  1  0.53309747  0.39246382  0.91677647  1  0  0.120823  0  0.969128  0  0  0.132709  0  1.027255  0  0  0.136532  0  1.022623  0  0  0.133176  0.129767  0  1.031009  0
H  H29  1  0.46690245  0.60753770  0.08322312  1  0  0.120831  0  0.969115  0  0  0.132722  0  1.027239  0  0  0.136546  0  1.022606  0  0  0.133167  0.129805  0  1.030958  0
H  H30  1  0.13803381  0.24763578  0.26574322  1  0  0.108723  0  0.972491  0  0  0.116613  0  1.039424  0  0  0.120893  0  1.033672  0  0  0.133441  0.113436  0  1.043672  0
H  H31  1  0.86196401  0.75236578  0.73425992  1  0  0.108683  0  0.972432  0  0  0.116577  0  1.039366  0  0  0.120857  0  1.03361  0  0  0.133422  0.11341  0  1.043604  0
H  H32  1  0.21732277  0.71392246  0.63325228  1  0  0.102545  0  0.963616  0  0  0.112385  0  1.026064  0  0  0.114946  0  1.025199  0  0  0.098674  0.110343  0  1.027085  0
H  H33  1  0.78267692  0.28608003  0.36674786  1  0  0.102511  0  0.963629  0  0  0.112351  0  1.02609  0  0  0.11491  0  1.025227  0  0  0.098655  0.110307  0  1.027109  0
H  H34  1  0.41798015  0.09150054  0.29702026  1  0  0.074608  0  1.003027  0  0  0.08207  0  1.077639  0  0  0.086097  0  1.074119  0  0  0.089402  0.079  0  1.080284  0
H  H35  1  0.58201531  0.90850196  0.70298120  1  0  0.074564  0  1.003027  0  0  0.08203  0  1.077643  0  0  0.08606  0  1.074119  0  0  0.089404  0.078961  0  1.080282  0
H  H36  1  0.94533745  0.39767488  0.54637415  1  0  0.083529  0  0.990061  0  0  0.091166  0  1.062819  0  0  0.095506  0  1.057959  0  0  0.105977  0.088071  0  1.066471  0
H  H37  1  0.05465874  0.60232477  0.45362896  1  0  0.083531  0  0.98998  0  0  0.091154  0  1.062771  0  0  0.095495  0  1.057907  0  0  0.105973  0.088061  0  1.066419  0
H  H38  1  0.78053198  0.79205296  0.21901475  1  0  0.132445  0  0.992872  0  0  0.142664  0  1.05119  0  0  0.145895  0  1.049347  0  0  0.118337  0.140243  0  1.053047  0
H  H39  1  0.21946890  0.20794478  0.78098758  1  0  0.132431  0  0.99293  0  0  0.142679  0  1.051196  0  0  0.145913  0  1.049359  0  0  0.118343  0.140258  0  1.053053  0
H  H40  1  0.27468117  0.72326014  0.42335675  1  0  0.087576  0  0.96222  0  0  0.099245  0  1.023333  0  0  0.100837  0  1.0241  0  0  0.099018  0.097338  0  1.024227  0
H  H41  1  0.72531769  0.27674139  0.57664296  1  0  0.087532  0  0.962227  0  0  0.099198  0  1.023347  0  0  0.100787  0  1.024117  0  0  0.099009  0.097288  0  1.024242  0
H  H42  1  0.32432285  0.93355059  0.66803575  1  0  0.093261  0  0.979164  0  0  0.103662  0  1.043388  0  0  0.105871  0  1.04282  0  0  0.097103  0.10183  0  1.044171  0
H  H43  1  0.67567285  0.06645095  0.33196516  1  0  0.093227  0  0.979187  0  0  0.103675  0  1.043356  0  0  0.105883  0  1.042789  0  0  0.097113  0.101842  0  1.044139  0
H  H44  1  0.18893424  0.01222862  0.37541854  1  0  0.085396  0  0.936003  0  0  0.093583  0  1.010032  0  0  0.094359  0  1.009529  0  0  0.114703  0.093169  0  1.009739  0
H  H45  1  0.81105935  0.98777292  0.62458261  1  0  0.08535  0  0.936008  0  0  0.093557  0  1.009995  0  0  0.094331  0  1.009496  0  0  0.11471  0.093143  0  1.0097  0
H  H46  1  0.14751417  0.96215816  0.53117549  1  0  0.111035  0  0.935481  0  0  0.12553  0  0.994844  0  0  0.127721  0  0.992871  0  0  0.116109  0.12417  0  0.995668  0
H  H47  1  0.85248178  0.03784243  0.46882652  1  0  0.111078  0  0.935447  0  0  0.125569  0  0.994787  0  0  0.127759  0  0.992816  0  0  0.116125  0.124209  0  0.995607  0
H  H48  1  0.32365444  0.89705564  0.20536358  1  0  0.100155  0  0.971312  0  0  0.105687  0  1.042209  0  0  0.108416  0  1.038761  0  0  0.133255  0.103707  0  1.044656  0
H  H49  1  0.67635078  0.10294591  0.79463789  1  0  0.100111  0  0.971311  0  0  0.105679  0  1.042188  0  0  0.108393  0  1.038763  0  0  0.133237  0.103695  0  1.044643  0
C  C50  1  0.63296003  0.97858904  0.13301524  1  0  -0.020212  0  3.756772  0  0  -0.053614  0  4.028056  0  0  -0.052561  0  4.04607  0  0  -0.006748  -0.05441  0  4.016807  0
C  C51  1  0.36704215  0.02140775  0.86698724  1  0  -0.020219  0  3.756765  0  0  -0.053598  0  4.027999  0  0  -0.052548  0  4.046018  0  0  -0.006746  -0.054406  0  4.01678  0
C  C52  1  0.05563997  0.20071205  0.54678550  1  0  -0.038705  0  3.625499  0  0  -0.0794  0  3.874404  0  0  -0.077656  0  3.8938  0  0  0.012989  -0.079531  0  3.860853  0
C  C53  1  0.94436173  0.79928665  0.45321809  1  0  -0.038624  0  3.625497  0  0  -0.079297  0  3.874402  0  0  -0.077561  0  3.89378  0  0  0.013013  -0.079426  0  3.860845  0
C  C54  1  0.18475857  0.42517289  0.96294629  1  0  -0.006363  0  3.748377  0  0  -0.032811  0  3.997667  0  0  -0.030665  0  4.016046  0  0  -0.007641  -0.034343  0  3.985798  0
C  C55  1  0.81524241  0.57482863  0.03705317  1  0  -0.006328  0  3.748153  0  0  -0.032741  0  3.99744  0  0  -0.030605  0  4.015843  0  0  -0.007675  -0.034276  0  3.985571  0
C  C56  1  0.44068941  0.65203868  0.67731042  1  0  0.061293  0  3.754115  0  0  0.082509  0  3.986975  0  0  0.08079  0  4.012903  0  0  -0.013537  0.08389  0  3.969249  0
C  C57  1  0.55930922  0.34796381  0.32268985  1  0  0.061287  0  3.754036  0  0  0.082527  0  3.986906  0  0  0.080817  0  4.012838  0  0  -0.013532  0.083907  0  3.969177  0
C  C58  1  0.58435387  0.62116513  0.63400435  1  0  -0.104082  0  3.747359  0  0  -0.120712  0  3.986968  0  0  -0.123946  0  4.01035  0  0  -0.090964  -0.118658  0  3.971708  0
C  C59  1  0.41564476  0.37883736  0.36599592  1  0  -0.104127  0  3.747434  0  0  -0.120778  0  3.987044  0  0  -0.124012  0  4.010424  0  0  -0.091013  -0.118725  0  3.971784  0
C  C60  1  0.40591730  0.65129134  0.80399081  1  0  -0.042425  0  3.630473  0  0  -0.105693  0  3.871267  0  0  -0.101  0  3.881164  0  0  -0.042829  -0.108797  0  3.864735  0
C  C61  1  0.59408133  0.34871115  0.19600946  1  0  -0.042336  0  3.630408  0  0  -0.105651  0  3.87123  0  0  -0.10099  0  3.88117  0  0  -0.042796  -0.108758  0  3.8647  0
C  C62  1  0.19558730  0.54694343  0.89836234  1  0  -0.079173  0  3.698815  0  0  -0.118153  0  3.959847  0  0  -0.117416  0  3.979364  0  0  0.001174  -0.118757  0  3.946703  0
C  C63  1  0.80441368  0.45305810  0.10163713  1  0  -0.079275  0  3.698713  0  0  -0.118261  0  3.959762  0  0  -0.117523  0  3.979272  0  0  0.001146  -0.118859  0  3.946609  0
C  C64  1  0.53914566  0.67978698  0.30876864  1  0  -0.049747  0  3.632655  0  0  -0.11363  0  3.873029  0  0  -0.109711  0  3.883989  0  0  -0.047994  -0.116058  0  3.865239  0
C  C65  1  0.46085263  0.32021263  0.69123091  1  0  -0.049583  0  3.632359  0  0  -0.113525  0  3.872811  0  0  -0.109608  0  3.883772  0  0  -0.047974  -0.115956  0  3.865028  0
C  C66  1  0.61688306  0.62991859  0.51511966  1  0  -0.100505  0  3.737746  0  0  -0.118125  0  3.978183  0  0  -0.120786  0  4.001585  0  0  -0.089949  -0.116306  0  3.962749  0
C  C67  1  0.38311499  0.37008198  0.48488044  1  0  -0.100496  0  3.737735  0  0  -0.118126  0  3.978159  0  0  -0.120787  0  4.001562  0  0  -0.089945  -0.116301  0  3.96272  0
C  C68  1  0.41579416  0.42380628  0.92569106  1  0  0.136861  0  3.631785  0  0  0.078355  0  3.892964  0  0  0.090414  0  3.905686  0  0  0.134326  0.070718  0  3.884358  0
C  C69  1  0.58420682  0.57619524  0.07430841  1  0  0.136796  0  3.631749  0  0  0.07829  0  3.89293  0  0  0.090349  0  3.90565  0  0  0.134303  0.070636  0  3.884313  0
C  C70  1  0.10168175  0.25726169  0.35302233  1  0  0.162815  0  3.624068  0  0  0.105649  0  3.876779  0  0  0.119526  0  3.888444  0  0  0.142894  0.096655  0  3.869518  0
C  C71  1  0.89831525  0.74273892  0.64698121  1  0  0.162872  0  3.623942  0  0  0.105702  0  3.876685  0  0  0.119582  0  3.888352  0  0  0.142905  0.096699  0  3.869429  0
C  C72  1  0.32951627  0.68790263  0.60058987  1  0  -0.105637  0  3.728399  0  0  -0.125235  0  3.976293  0  0  -0.127494  0  3.998104  0  0  -0.091046  -0.123367  0  3.961178  0
C  C73  1  0.67048236  0.31209986  0.39941122  1  0  -0.105657  0  3.728444  0  0  -0.125286  0  3.976379  0  0  -0.127543  0  3.99819  0  0  -0.091057  -0.123419  0  3.961262  0
C  C74  1  0.45394873  0.05093582  0.38628414  1  0  -0.109431  0  3.760289  0  0  -0.127996  0  4.004536  0  0  -0.131784  0  4.028356  0  0  -0.098614  -0.125472  0  3.988633  0
C  C75  1  0.54604696  0.94906570  0.61371510  1  0  -0.109468  0  3.760338  0  0  -0.128047  0  4.004597  0  0  -0.131833  0  4.028414  0  0  -0.098693  -0.125518  0  3.988689  0
C  C76  1  0.50618148  0.66817856  0.43792277  1  0  0.074581  0  3.739908  0  0  0.093428  0  3.976379  0  0  0.092562  0  4.001375  0  0  -0.011008  0.094165  0  3.959187  0
C  C77  1  0.49381657  0.33182202  0.56207816  1  0  0.07447  0  3.739891  0  0  0.093332  0  3.976377  0  0  0.092468  0  4.001373  0  0  -0.011029  0.094067  0  3.959183  0
C  C78  1  0.00283836  0.32928674  0.50109905  1  0  -0.024534  0  3.779934  0  0  -0.049704  0  4.03264  0  0  -0.049672  0  4.053081  0  0  -0.010465  -0.050247  0  4.020275  0
C  C79  1  0.99715759  0.67071387  0.49890461  1  0  -0.024579  0  3.780041  0  0  -0.049733  0  4.032745  0  0  -0.04971  0  4.053213  0  0  -0.01045  -0.05027  0  4.020376  0
C  C80  1  0.35516366  0.01254218  0.48031063  1  0  0.063163  0  3.758142  0  0  0.082139  0  3.995309  0  0  0.080679  0  4.020899  0  0  -0.017941  0.082712  0  3.978221  0
C  C81  1  0.64482946  0.98746127  0.51969081  1  0  0.063258  0  3.758058  0  0  0.082197  0  3.995283  0  0  0.080736  0  4.020872  0  0  -0.017881  0.08277  0  3.978193  0
C  C82  1  0.67446979  0.85345318  0.19894456  1  0  -0.068132  0  3.659442  0  0  -0.107738  0  3.914611  0  0  -0.10614  0  3.933091  0  0  0.000879  -0.108873  0  3.903011  0
C  C83  1  0.32553061  0.14654643  0.80105474  1  0  -0.068107  0  3.659379  0  0  -0.107715  0  3.914501  0  0  -0.106128  0  3.932996  0  0  0.000876  -0.108852  0  3.902897  0
C  C84  1  0.36217749  0.69516748  0.48231249  1  0  -0.108928  0  3.743667  0  0  -0.127095  0  3.98894  0  0  -0.130374  0  4.012871  0  0  -0.089825  -0.125034  0  3.97356  0
C  C85  1  0.63782138  0.30483405  0.51768804  1  0  -0.108791  0  3.743678  0  0  -0.126944  0  3.988941  0  0  -0.130223  0  4.012874  0  0  -0.089782  -0.124884  0  3.973561  0
C  C86  1  0.40185033  0.96233317  0.59461298  1  0  -0.107407  0  3.749335  0  0  -0.125078  0  3.990271  0  0  -0.127758  0  4.014232  0  0  -0.093489  -0.123192  0  3.974321  0
C  C87  1  0.59814432  0.03766837  0.40538887  1  0  -0.107448  0  3.749353  0  0  -0.125162  0  3.990323  0  0  -0.127842  0  4.014285  0  0  -0.093562  -0.123276  0  3.974377  0
C  C88  1  0.19894549  0.02802503  0.45897436  1  0  -0.050544  0  3.626743  0  0  -0.113245  0  3.86908  0  0  -0.108851  0  3.87884  0  0  -0.046703  -0.115387  0  3.860846  0
C  C89  1  0.80104940  0.97197556  0.54102776  1  0  -0.05055  0  3.626749  0  0  -0.113211  0  3.869054  0  0  -0.108814  0  3.878813  0  0  -0.046727  -0.115353  0  3.860816  0
C  C90  1  0.43561701  0.90567937  0.19215828  1  0  0.157251  0  3.622967  0  0  0.097759  0  3.885543  0  0  0.111089  0  3.896631  0  0  0.13962  0.089485  0  3.878068  0
C  C91  1  0.56438362  0.09431930  0.80784295  1  0  0.157257  0  3.622904  0  0  0.097716  0  3.885507  0  0  0.111052  0  3.896609  0  0  0.139604  0.089442  0  3.878033  0
N  N92  1  0.32278307  0.34913089  0.97942882  1  0  -0.356146  0  3.447033  0  0  -0.279789  0  3.769499  0  0  -0.292694  0  3.775548  0  0  -0.406394  -0.271768  0  3.764742  0
N  N93  1  0.67721815  0.65086968  0.02057092  1  0  -0.356152  0  3.44704  0  0  -0.279814  0  3.769522  0  0  -0.292713  0  3.775555  0  0  -0.40639  -0.271794  0  3.764777  0
N  N94  1  0.11648434  0.15760278  0.45219118  1  0  -0.035033  0  3.544678  0  0  0.059703  0  3.756927  0  0  0.044932  0  3.783576  0  0  -0.232784  0.069689  0  3.73763  0
N  N95  1  0.88351137  0.84239876  0.54781055  1  0  -0.03507  0  3.544641  0  0  0.059652  0  3.756896  0  0  0.04488  0  3.783544  0  0  -0.232785  0.06964  0  3.7376  0
N  N96  1  0.03233772  0.36395804  0.37984189  1  0  -0.396538  0  3.549011  0  0  -0.310881  0  3.86773  0  0  -0.329286  0  3.877544  0  0  -0.424129  -0.298898  0  3.860988  0
N  N97  1  0.96766034  0.63604258  0.62016236  1  0  -0.396525  0  3.549109  0  0  -0.310863  0  3.867786  0  0  -0.32928  0  3.877635  0  0  -0.424116  -0.298896  0  3.861101  0
N  N98  1  0.54876850  0.80910578  0.23535338  1  0  -0.050586  0  3.56279  0  0  0.045393  0  3.777031  0  0  0.030468  0  3.803942  0  0  -0.238514  0.055257  0  3.758464  0
N  N99  1  0.45123344  0.19089195  0.76464883  1  0  -0.050655  0  3.562671  0  0  0.045334  0  3.77695  0  0  0.030411  0  3.803859  0  0  -0.238515  0.055199  0  3.75838  0
N  N100  1  0.34180367  0.54437944  0.87618608  1  0  -0.049941  0  3.567357  0  0  0.044841  0  3.779603  0  0  0.029055  0  3.808958  0  0  -0.238936  0.055305  0  3.759643  0
N  N101  1  0.65819731  0.45562209  0.12381421  1  0  -0.04989  0  3.567298  0  0  0.044895  0  3.779559  0  0  0.02912  0  3.808921  0  0  -0.238925  0.055358  0  3.759601  0
N  N102  1  0.48349215  0.01036248  0.12984150  1  0  -0.371179  0  3.494203  0  0  -0.290155  0  3.809766  0  0  -0.303816  0  3.817215  0  0  -0.408984  -0.281795  0  3.80415  0
N  N103  1  0.51651225  0.98963811  0.87016036  1  0  -0.371165  0  3.494337  0  0  -0.290156  0  3.809943  0  0  -0.303809  0  3.817374  0  0  -0.408973  -0.281795  0  3.804325  0
O  O104  1  0.98957401  0.68906059  0.18625199  1  0  -0.917101  0  1.821149  0  0  -0.879427  0  2.186292  0  0  -0.917751  0  2.164663  0  0  -0.657671  -0.850262  0  2.202631  0
O  O105  1  0.01043515  0.31093317  0.81373482  1  0  -0.917064  0  1.821094  0  0  -0.87942  0  2.186253  0  0  -0.917736  0  2.164662  0  0  -0.657579  -0.85024  0  2.202643  0
O  O106  1  0.15712549  0.15235088  0.13431291  1  0  -0.881195  0  1.533824  0  0  -0.864168  0  1.857493  0  0  -0.895128  0  1.83775  0  0  -0.636452  -0.841348  0  1.873621  0
O  O107  1  0.84287537  0.84764680  0.86568445  1  0  -0.881206  0  1.533921  0  0  -0.864146  0  1.857542  0  0  -0.895103  0  1.837794  0  0  -0.636455  -0.841306  0  1.873693  0
O  O108  1  0.07392283  0.91598716  0.17727324  1  0  -1.042176  0  1.605864  0  0  -1.051808  0  1.907374  0  0  -1.099585  0  1.898272  0  0  -0.703588  -1.012006  0  1.919663  0
O  O109  1  0.92608742  0.08400668  0.82272091  1  0  -1.04205  0  1.605813  0  0  -1.051692  0  1.907352  0  0  -1.099452  0  1.898234  0  0  -0.703552  -1.011835  0  1.91964  0
O  O110  1  0.91917838  0.11001514  0.27507783  1  0  -0.819112  0  1.294623  0  0  -0.819447  0  1.551882  0  0  -0.849227  0  1.542449  0  0  -0.616411  -0.7966  0  1.562113  0
O  O111  1  0.08082974  0.88997866  0.72491324  1  0  -0.819012  0  1.294642  0  0  -0.819319  0  1.551889  0  0  -0.849106  0  1.542463  0  0  -0.616263  -0.796447  0  1.56213  0
O  O112  1  0.27734864  0.69969565  0.15285040  1  0  -0.817862  0  1.301515  0  0  -0.814181  0  1.546541  0  0  -0.841931  0  1.534762  0  0  -0.61296  -0.792464  0  1.560208  0
O  O113  1  0.72265562  0.30030106  0.84714520  1  0  -0.817813  0  1.301522  0  0  -0.814135  0  1.546561  0  0  -0.841868  0  1.534792  0  0  -0.612951  -0.792389  0  1.560243  0
O  O114  1  0.89751305  0.16125136  0.03376755  1  0  -1.037834  0  1.60994  0  0  -1.0554  0  1.91948  0  0  -1.103469  0  1.911238  0  0  -0.703202  -1.01478  0  1.930301  0
O  O115  1  0.10249706  0.83874723  0.96622429  1  0  -1.037781  0  1.609942  0  0  -1.055327  0  1.919477  0  0  -1.103417  0  1.911232  0  0  -0.70322  -1.014704  0  1.930295  0
