# generated using pymatgen
data_Cu2H16C15SI2N3
_symmetry_space_group_name_H-M   'P 1'
_cell_length_a   9.70463019
_cell_length_b   10.07942492
_cell_length_c   10.83960885
_cell_angle_alpha   91.65220721
_cell_angle_beta   96.53819442
_cell_angle_gamma   116.86970830
_symmetry_Int_Tables_number   1
_chemical_formula_structural   Cu2H16C15SI2N3
_chemical_formula_sum   'Cu4 H32 C30 S2 I4 N6'
_cell_volume   935.80925068
_cell_formula_units_Z   2
loop_
 _symmetry_equiv_pos_site_id
 _symmetry_equiv_pos_as_xyz
  1  'x, y, z'
loop_
 _atom_site_type_symbol
 _atom_site_label
 _atom_site_symmetry_multiplicity
 _atom_site_fract_x
 _atom_site_fract_y
 _atom_site_fract_z
 _atom_site_occupancy
 _atom_site_hle17_bader_spin_density
 _atom_site_hle17_ddec_charge
 _atom_site_hle17_ddec_spin_density
 _atom_site_hle17_ddec_sum_bond_order
 _atom_site_hle17_magmom
 _atom_site_hse06_10hf_bader_spin_density
 _atom_site_hse06_10hf_ddec_charge
 _atom_site_hse06_10hf_ddec_spin_density
 _atom_site_hse06_10hf_ddec_sum_bond_order
 _atom_site_hse06_10hf_magmom
 _atom_site_hse06_bader_spin_density
 _atom_site_hse06_ddec_charge
 _atom_site_hse06_ddec_spin_density
 _atom_site_hse06_ddec_sum_bond_order
 _atom_site_hse06_magmom
 _atom_site_pbe_bader_spin_density
 _atom_site_pbe_cm5_charge
 _atom_site_pbe_ddec_charge
 _atom_site_pbe_ddec_spin_density
 _atom_site_pbe_ddec_sum_bond_order
 _atom_site_pbe_magmom
Cu  Cu0  1  0.05574145  0.15494847  0.01770625  1  0  0.377532  0  2.151233  0  0  0.295728  0  2.645227  0  0  0.299748  0  2.593244  0  0  0.376596  0.295411  0  2.676264  0
Cu  Cu1  1  0.94425577  0.84505011  0.98229672  1  0  0.377677  0  2.151156  0  0  0.295859  0  2.645115  0  0  0.299885  0  2.593143  0  0  0.376655  0.295558  0  2.676216  0
Cu  Cu2  1  0.36341544  0.00154596  0.99765895  1  0  0.208153  0  2.273206  0  0  0.146938  0  2.749502  0  0  0.158141  0  2.699651  0  0  0.186858  0.140326  0  2.780243  0
Cu  Cu3  1  0.63658489  0.99845486  0.00234070  1  0  0.20823  0  2.273224  0  0  0.146934  0  2.749516  0  0  0.158087  0  2.69965  0  0  0.186852  0.140335  0  2.780255  0
H  H4  1  0.16050436  0.47474320  0.07054175  1  0  0.072909  0  0.981189  0  0  0.082792  0  1.046921  0  0  0.085192  0  1.044639  0  0  0.098907  0.081298  0  1.047837  0
H  H5  1  0.83949702  0.52525762  0.92945800  1  0  0.072858  0  0.981184  0  0  0.082762  0  1.046902  0  0  0.085173  0  1.044587  0  0  0.09889  0.081267  0  1.047824  0
H  H6  1  0.10301786  0.64320277  0.20250313  1  0  0.119786  0  0.963422  0  0  0.126408  0  1.030097  0  0  0.130981  0  1.027923  0  0  0.10127  0.122517  0  1.032698  0
H  H7  1  0.89698403  0.35679917  0.79749578  1  0  0.119814  0  0.963407  0  0  0.126464  0  1.030053  0  0  0.131035  0  1.027881  0  0  0.101294  0.122573  0  1.032655  0
H  H8  1  0.02386326  0.75895384  0.31097649  1  0  0.088645  0  0.988963  0  0  0.099142  0  1.053467  0  0  0.10197  0  1.052705  0  0  0.089534  0.0966  0  1.054733  0
H  H9  1  0.97614027  0.24105146  0.68902729  1  0  0.088615  0  0.989013  0  0  0.099106  0  1.05353  0  0  0.101929  0  1.052772  0  0  0.089529  0.096563  0  1.054797  0
H  H10  1  0.94514013  0.89465035  0.45382384  1  0  0.083045  0  0.97415  0  0  0.093105  0  1.038644  0  0  0.09611  0  1.037086  0  0  0.096795  0.090742  0  1.040325  0
H  H11  1  0.05485764  0.10534935  0.54618014  1  0  0.083088  0  0.974055  0  0  0.093121  0  1.03858  0  0  0.096142  0  1.037002  0  0  0.096805  0.090759  0  1.040259  0
H  H12  1  0.76406372  0.76136278  0.60598723  1  0  0.090235  0  0.959192  0  0  0.101304  0  1.020821  0  0  0.104241  0  1.019855  0  0  0.09203  0.098734  0  1.022255  0
H  H13  1  0.23593035  0.23863356  0.39401354  1  0  0.090238  0  0.959254  0  0  0.101306  0  1.020877  0  0  0.104245  0  1.01991  0  0  0.092037  0.098741  0  1.02231  0
H  H14  1  0.65904270  0.48483634  0.60710690  1  0  0.083333  0  0.9546  0  0  0.097199  0  1.010546  0  0  0.099832  0  1.010032  0  0  0.097027  0.095463  0  1.010472  0
H  H15  1  0.34095708  0.51516114  0.39289353  1  0  0.083337  0  0.954616  0  0  0.097203  0  1.010551  0  0  0.099836  0  1.010038  0  0  0.097032  0.095449  0  1.010497  0
H  H16  1  0.73904825  0.34623410  0.46036472  1  0  0.097154  0  0.974895  0  0  0.102959  0  1.045369  0  0  0.106693  0  1.042508  0  0  0.102511  0.100285  0  1.047309  0
H  H17  1  0.26095467  0.65376561  0.53963515  1  0  0.097171  0  0.97489  0  0  0.10297  0  1.045369  0  0  0.106702  0  1.04251  0  0  0.102519  0.100294  0  1.047309  0
H  H18  1  0.59532252  0.08676502  0.27202619  1  0  0.096499  0  0.95283  0  0  0.105028  0  1.026923  0  0  0.107525  0  1.025015  0  0  0.093641  0.103521  0  1.027318  0
H  H19  1  0.40467992  0.91323804  0.72797372  1  0  0.096502  0  0.9528  0  0  0.105036  0  1.026892  0  0  0.107536  0  1.024976  0  0  0.093643  0.103528  0  1.027286  0
H  H20  1  0.54039689  0.89301369  0.25766499  1  0  0.084517  0  0.961553  0  0  0.100616  0  1.024474  0  0  0.10237  0  1.023679  0  0  0.082605  0.09969  0  1.024232  0
H  H21  1  0.45960451  0.10698936  0.74233482  1  0  0.084498  0  0.961524  0  0  0.100613  0  1.02444  0  0  0.102363  0  1.023641  0  0  0.082619  0.099689  0  1.024192  0
H  H22  1  0.76929638  0.12192614  0.47063333  1  0  0.069781  0  0.958574  0  0  0.084905  0  1.026319  0  0  0.08578  0  1.026833  0  0  0.08508  0.084172  0  1.026212  0
H  H23  1  0.23070760  0.87807580  0.52936578  1  0  0.069789  0  0.958585  0  0  0.084918  0  1.026316  0  0  0.085793  0  1.026828  0  0  0.085069  0.084184  0  1.026208  0
H  H24  1  0.74216168  0.93708394  0.44944371  1  0  0.059149  0  0.966593  0  0  0.076885  0  1.032164  0  0  0.076994  0  1.03371  0  0  0.082214  0.076352  0  1.031939  0
H  H25  1  0.25783865  0.06291688  0.55055501  1  0  0.059148  0  0.966586  0  0  0.076889  0  1.032151  0  0  0.076988  0  1.033707  0  0  0.08221  0.076349  0  1.031934  0
H  H26  1  0.45948701  0.83622423  0.46675469  1  0  0.055634  0  0.933616  0  0  0.079126  0  0.9874  0  0  0.079321  0  0.988236  0  0  0.084822  0.078909  0  0.987027  0
H  H27  1  0.54051490  0.16377771  0.53324606  1  0  0.055685  0  0.933586  0  0  0.079168  0  0.987371  0  0  0.079363  0  0.988206  0  0  0.084835  0.078951  0  0.986997  0
H  H28  1  0.58138054  0.94598814  0.60250815  1  0  0.062804  0  0.960495  0  0  0.081812  0  1.022038  0  0  0.082264  0  1.023625  0  0  0.078022  0.081972  0  1.019594  0
H  H29  1  0.41862293  0.05401492  0.39749187  1  0  0.062793  0  0.960524  0  0  0.081812  0  1.022049  0  0  0.082264  0  1.023636  0  0  0.078027  0.081971  0  1.019606  0
H  H30  1  0.53484463  0.43578427  0.82038993  1  0  0.143406  0  0.950566  0  0  0.159805  0  1.012705  0  0  0.162244  0  1.01097  0  0  0.099077  0.157215  0  1.015011  0
H  H31  1  0.46515044  0.56420984  0.17960902  1  0  0.143399  0  0.950543  0  0  0.159766  0  1.012694  0  0  0.162207  0  1.010958  0  0  0.09904  0.157173  0  1.015005  0
H  H32  1  0.47574200  0.58055410  0.83170025  1  0  0.155917  0  0.936859  0  0  0.1717  0  0.997837  0  0  0.174463  0  0.996424  0  0  0.102784  0.16905  0  0.999677  0
H  H33  1  0.52424888  0.41943554  0.16830002  1  0  0.155905  0  0.936898  0  0  0.171657  0  0.997883  0  0  0.174427  0  0.996465  0  0  0.102772  0.169007  0  0.999727  0
H  H34  1  0.39150918  0.44053938  0.70186577  1  0  0.144245  0  0.953033  0  0  0.162648  0  1.010822  0  0  0.163342  0  1.012835  0  0  0.109025  0.161805  0  1.009657  0
H  H35  1  0.60848848  0.55945585  0.29813162  1  0  0.14416  0  0.953073  0  0  0.162524  0  1.010889  0  0  0.163217  0  1.012903  0  0  0.108965  0.161681  0  1.009726  0
C  C36  1  0.89290123  0.22571433  0.21283827  1  0  0.346358  0  3.790835  0  0  0.329318  0  4.068003  0  0  0.346564  0  4.079956  0  0  0.23334  0.31742  0  4.060183  0
C  C37  1  0.10710070  0.77428984  0.78716163  1  0  0.346311  0  3.790803  0  0  0.329308  0  4.067947  0  0  0.346555  0  4.079906  0  0  0.233328  0.317413  0  4.060129  0
C  C38  1  0.07423016  0.42940003  0.13417727  1  0  0.182987  0  3.683645  0  0  0.14954  0  3.936193  0  0  0.16121  0  3.948752  0  0  0.04778  0.141876  0  3.927733  0
C  C39  1  0.92577383  0.57060192  0.86582368  1  0  0.183078  0  3.683559  0  0  0.149628  0  3.936111  0  0  0.161305  0  3.948677  0  0  0.047865  0.141963  0  3.927662  0
C  C40  1  0.04190815  0.52310583  0.20867950  1  0  -0.220167  0  3.684229  0  0  -0.238063  0  3.93829  0  0  -0.249079  0  3.956372  0  0  -0.093915  -0.23229  0  3.92745  0
C  C41  1  0.95809428  0.47689723  0.79132041  1  0  -0.220216  0  3.684262  0  0  -0.23816  0  3.938346  0  0  -0.249183  0  3.956434  0  0  -0.093963  -0.232388  0  3.927511  0
C  C42  1  0.93160181  0.45657324  0.29015853  1  0  0.271011  0  3.74903  0  0  0.262973  0  3.995988  0  0  0.277331  0  4.011521  0  0  0.136601  0.253772  0  3.985635  0
C  C43  1  0.06840116  0.54343093  0.70984239  1  0  0.270983  0  3.74907  0  0  0.262988  0  3.996037  0  0  0.277351  0  4.011563  0  0  0.13659  0.253786  0  3.985689  0
C  C44  1  0.88757557  0.54175619  0.37672930  1  0  0.001295  0  3.764618  0  0  0.020835  0  3.992466  0  0  0.016461  0  4.015785  0  0  -0.009491  0.023496  0  3.975968  0
C  C45  1  0.11242635  0.45824575  0.62327238  1  0  0.001306  0  3.764674  0  0  0.020793  0  3.992583  0  0  0.016417  0  4.015898  0  0  -0.009528  0.023455  0  3.976088  0
C  C46  1  0.94519788  0.69703870  0.37615630  1  0  -0.089568  0  3.724815  0  0  -0.108305  0  3.964662  0  0  -0.109451  0  3.985772  0  0  -0.085234  -0.106609  0  3.949644  0
C  C47  1  0.05480196  0.30296324  0.62384426  1  0  -0.089576  0  3.724945  0  0  -0.108303  0  3.964826  0  0  -0.109444  0  3.985934  0  0  -0.085236  -0.106606  0  3.94981  0
C  C48  1  0.89978163  0.77452745  0.45735265  1  0  -0.07428  0  3.774423  0  0  -0.08896  0  4.030844  0  0  -0.091855  0  4.051586  0  0  -0.093235  -0.087419  0  4.016922  0
C  C49  1  0.10021611  0.22547225  0.54264856  1  0  -0.074241  0  3.774232  0  0  -0.088889  0  4.030638  0  0  -0.091795  0  4.051375  0  0  -0.093191  -0.087348  0  4.016722  0
C  C50  1  0.79715134  0.69957656  0.54113294  1  0  -0.055694  0  3.741872  0  0  -0.072134  0  3.991507  0  0  -0.072167  0  4.011551  0  0  -0.089937  -0.071924  0  3.978376  0
C  C51  1  0.20284587  0.30042202  0.45886819  1  0  -0.055748  0  3.741959  0  0  -0.072195  0  3.991598  0  0  -0.072231  0  4.01165  0  0  -0.089972  -0.071989  0  3.978471  0
C  C52  1  0.73906151  0.54479718  0.54213389  1  0  -0.081438  0  3.790475  0  0  -0.092424  0  4.040056  0  0  -0.096084  0  4.062344  0  0  -0.09498  -0.089679  0  4.024226  0
C  C53  1  0.26093881  0.45520142  0.45786754  1  0  -0.081453  0  3.790567  0  0  -0.092431  0  4.040133  0  0  -0.096091  0  4.062422  0  0  -0.095009  -0.089668  0  4.024309  0
C  C54  1  0.78350276  0.46663717  0.46070371  1  0  -0.087783  0  3.724922  0  0  -0.11106  0  3.975234  0  0  -0.111118  0  3.99435  0  0  -0.084079  -0.110881  0  3.96203  0
C  C55  1  0.21649758  0.53336365  0.53929594  1  0  -0.087814  0  3.724944  0  0  -0.111064  0  3.975253  0  0  -0.111121  0  3.99437  0  0  -0.084068  -0.110881  0  3.962041  0
C  C56  1  0.63532121  0.00336823  0.29524547  1  0  -0.136544  0  3.642003  0  0  -0.168541  0  3.895591  0  0  -0.169387  0  3.906999  0  0  -0.155936  -0.168789  0  3.887859  0
C  C57  1  0.36468019  0.99663482  0.70475434  1  0  -0.136556  0  3.642034  0  0  -0.16859  0  3.895694  0  0  -0.169422  0  3.907074  0  0  -0.155975  -0.168831  0  3.887949  0
C  C58  1  0.68362133  0.00759442  0.43420018  1  0  -0.107203  0  3.707188  0  0  -0.149413  0  3.967779  0  0  -0.150437  0  3.982782  0  0  -0.17582  -0.148461  0  3.958381  0
C  C59  1  0.31638161  0.99240753  0.56579883  1  0  -0.107171  0  3.707221  0  0  -0.149373  0  3.967796  0  0  -0.150391  0  3.982794  0  0  -0.175796  -0.148423  0  3.958399  0
C  C60  1  0.54232483  0.95175396  0.50427958  1  0  -0.098108  0  3.671672  0  0  -0.132563  0  3.923385  0  0  -0.13414  0  3.938795  0  0  -0.168291  -0.131674  0  3.913529  0
C  C61  1  0.45767918  0.04825022  0.49572051  1  0  -0.098235  0  3.671695  0  0  -0.132693  0  3.923419  0  0  -0.134271  0  3.938825  0  0  -0.168319  -0.131796  0  3.913558  0
C  C62  1  0.31480041  0.36878840  0.87145589  1  0  0.414544  0  3.668159  0  0  0.403239  0  3.948025  0  0  0.41604  0  3.963681  0  0  0.202158  0.393764  0  3.938858  0
C  C63  1  0.68519353  0.63119679  0.12854455  1  0  0.41462  0  3.668004  0  0  0.403293  0  3.947834  0  0  0.416098  0  3.963499  0  0  0.202165  0.393818  0  3.938705  0
C  C64  1  0.43641772  0.46207427  0.80195869  1  0  -0.366673  0  3.733943  0  0  -0.431155  0  3.949805  0  0  -0.434496  0  3.95331  0  0  -0.213871  -0.428525  0  3.94966  0
C  C65  1  0.56357783  0.53791872  0.19803843  1  0  -0.366583  0  3.733995  0  0  -0.430925  0  3.949765  0  0  -0.434271  0  3.953267  0  0  -0.213765  -0.428295  0  3.949647  0
S  S66  1  0.78469644  0.02964922  0.19840220  1  0  0.029885  0  2.762362  0  0  0.036777  0  3.164807  0  0  0.037618  0  3.150649  0  0  0.007759  0.03692  0  3.170846  0
S  S67  1  0.21530600  0.97035383  0.80159772  1  0  0.029949  0  2.762372  0  0  0.036819  0  3.164856  0  0  0.037638  0  3.150717  0  0  0.007791  0.036958  0  3.17089  0
I  I68  1  0.18398303  0.01477190  0.15583443  1  0  -0.387205  0  1.752907  0  0  -0.33902  0  2.217389  0  0  -0.35553  0  2.174152  0  0  -0.172746  -0.326964  0  2.241866  0
I  I69  1  0.81601678  0.98522780  0.84416606  1  0  -0.38724  0  1.752933  0  0  -0.339036  0  2.217403  0  0  -0.355527  0  2.174147  0  0  -0.172752  -0.326981  0  2.241877  0
I  I70  1  0.61336927  0.24867451  0.99141723  1  0  -0.426002  0  1.589942  0  0  -0.375007  0  1.99458  0  0  -0.393343  0  1.964862  0  0  -0.201753  -0.359557  0  2.012541  0
I  I71  1  0.38663211  0.75132631  0.00858345  1  0  -0.426012  0  1.589929  0  0  -0.37501  0  1.994554  0  0  -0.393344  0  1.964839  0  0  -0.201768  -0.359563  0  2.012511  0
N  N72  1  0.00221382  0.27958318  0.13482037  1  0  -0.371922  0  3.321571  0  0  -0.304931  0  3.616656  0  0  -0.31955  0  3.62042  0  0  -0.363044  -0.294983  0  3.61387  0
N  N73  1  0.99778912  0.72041876  0.86517864  1  0  -0.371935  0  3.321564  0  0  -0.304935  0  3.616602  0  0  -0.319563  0  3.620382  0  0  -0.363052  -0.294997  0  3.613858  0
N  N74  1  0.85875268  0.30662975  0.29060259  1  0  -0.399406  0  3.083093  0  0  -0.357922  0  3.342219  0  0  -0.375575  0  3.357017  0  0  -0.306809  -0.347019  0  3.333008  0
N  N75  1  0.14125133  0.69337442  0.70939750  1  0  -0.399376  0  3.083066  0  0  -0.357937  0  3.342198  0  0  -0.37559  0  3.356996  0  0  -0.306819  -0.347035  0  3.332988  0
N  N76  1  0.21714922  0.29237283  0.92741227  1  0  -0.436843  0  3.078024  0  0  -0.40126  0  3.404672  0  0  -0.410187  0  3.403438  0  0  -0.377289  -0.396513  0  3.405522  0
N  N77  1  0.78284998  0.70762129  0.07258339  1  0  -0.436985  0  3.077877  0  0  -0.401419  0  3.404579  0  0  -0.410349  0  3.403345  0  0  -0.377323  -0.396685  0  3.405501  0
