# generated using pymatgen
data_LaH11C12O7
_symmetry_space_group_name_H-M   'P 1'
_cell_length_a   8.29356199
_cell_length_b   8.72579421
_cell_length_c   9.56191039
_cell_angle_alpha   84.42660200
_cell_angle_beta   78.26902982
_cell_angle_gamma   61.60066343
_symmetry_Int_Tables_number   1
_chemical_formula_structural   LaH11C12O7
_chemical_formula_sum   'La2 H22 C24 O14'
_cell_volume   595.98515351
_cell_formula_units_Z   2
loop_
 _symmetry_equiv_pos_site_id
 _symmetry_equiv_pos_as_xyz
  1  'x, y, z'
loop_
 _atom_site_type_symbol
 _atom_site_label
 _atom_site_symmetry_multiplicity
 _atom_site_fract_x
 _atom_site_fract_y
 _atom_site_fract_z
 _atom_site_occupancy
 _atom_site_pbe_bader_spin_density
 _atom_site_pbe_cm5_charge
 _atom_site_pbe_ddec_charge
 _atom_site_pbe_ddec_spin_density
 _atom_site_pbe_ddec_sum_bond_order
 _atom_site_pbe_magmom
La  La0  1  0.29746154  0.40518891  0.99993332  1  0  1.414776  1.928175  0  2.321166  0
La  La1  1  0.70254331  0.59480870  0.00006631  1  0  1.414785  1.92826  0  2.321041  0
H  H2  1  0.00037132  0.80128736  0.00179679  1  0  0.314703  0.409723  0  0.909655  0
H  H3  1  0.19834711  0.80131333  0.99825983  1  0  0.314622  0.410183  0  0.909177  0
H  H4  1  0.99962549  0.19871155  0.99820307  1  0  0.314691  0.40977  0  0.909615  0
H  H5  1  0.80164854  0.19868298  0.00173837  1  0  0.314611  0.410159  0  0.909221  0
H  H6  1  0.79568947  0.27933526  0.69035145  1  0  0.105374  0.111487  0  1.01962  0
H  H7  1  0.92471953  0.27895835  0.30987061  1  0  0.105142  0.110849  0  1.019207  0
H  H8  1  0.20431923  0.72065714  0.30964482  1  0  0.105378  0.111461  0  1.019522  0
H  H9  1  0.07528611  0.72103274  0.69012945  1  0  0.105186  0.110848  0  1.019231  0
H  H10  1  0.39549801  0.00037048  0.60764809  1  0  0.104094  0.115591  0  1.00841  0
H  H11  1  0.60450886  0.99962061  0.39235489  1  0  0.104126  0.115629  0  1.008364  0
H  H12  1  0.19320061  0.32793461  0.52365510  1  0  0.104605  0.130837  0  1.002436  0
H  H13  1  0.47871763  0.32734825  0.47644426  1  0  0.10447  0.130465  0  1.00377  0
H  H14  1  0.80681826  0.67204476  0.47635309  1  0  0.104581  0.130767  0  1.002544  0
H  H15  1  0.52129187  0.67263763  0.52354616  1  0  0.104478  0.130475  0  1.003762  0
H  H16  1  0.95637807  0.43485784  0.61463743  1  0  0.10563  0.126183  0  1.016186  0
H  H17  1  0.60865118  0.43428628  0.38583251  1  0  0.105941  0.126277  0  1.015668  0
H  H18  1  0.04363133  0.56513065  0.38536533  1  0  0.10567  0.126196  0  1.016303  0
H  H19  1  0.39136309  0.56570482  0.61416396  1  0  0.105969  0.126308  0  1.015754  0
H  H20  1  0.61868730  0.11678301  0.70466963  1  0  0.108189  0.142151  0  1.019935  0
H  H21  1  0.26425254  0.11697242  0.29525763  1  0  0.108035  0.142018  0  1.020133  0
H  H22  1  0.38132082  0.88320809  0.29532476  1  0  0.108201  0.142199  0  1.019859  0
H  H23  1  0.73575302  0.88302128  0.70474326  1  0  0.108029  0.141993  0  1.020116  0
C  C24  1  0.09588097  0.15865575  0.64589149  1  0  -0.007401  0.153085  0  3.976743  0
C  C25  1  0.74547658  0.15812939  0.35425564  1  0  -0.007315  0.153188  0  3.977754  0
C  C26  1  0.90411836  0.84134055  0.35411549  1  0  -0.007394  0.153067  0  3.976963  0
C  C27  1  0.25453458  0.84186301  0.64574021  1  0  -0.007372  0.153104  0  3.977727  0
C  C28  1  0.92474030  0.15680270  0.67839740  1  0  -0.093862  -0.207565  0  3.949664  0
C  C29  1  0.91842840  0.15635172  0.32176241  1  0  -0.09342  -0.206015  0  3.950283  0
C  C30  1  0.07526701  0.84319491  0.32160075  1  0  -0.09383  -0.207524  0  3.949381  0
C  C31  1  0.08158109  0.84363416  0.67823534  1  0  -0.093527  -0.206097  0  3.950168  0
C  C32  1  0.91587927  0.00013530  0.69590204  1  0  -0.009418  0.155468  0  4.003296  0
C  C33  1  0.08412680  0.99986230  0.30410051  1  0  -0.009458  0.155483  0  4.003351  0
C  C34  1  0.26106655  0.00029230  0.63146016  1  0  -0.092138  -0.198921  0  3.899098  0
C  C35  1  0.73894307  0.99968837  0.36854221  1  0  -0.092215  -0.198983  0  3.899329  0
C  C36  1  0.09710770  0.33233962  0.62298494  1  0  -0.156527  -0.352642  0  3.903803  0
C  C37  1  0.57047510  0.33185705  0.37720210  1  0  -0.156607  -0.351937  0  3.904757  0
C  C38  1  0.90290488  0.66764495  0.37701971  1  0  -0.156588  -0.352582  0  3.903981  0
C  C39  1  0.42953432  0.66813144  0.62279021  1  0  -0.156669  -0.351888  0  3.904654  0
C  C40  1  0.15758251  0.37977629  0.74408237  1  0  0.219667  0.662236  0  4.113539  0
C  C41  1  0.46261539  0.37968879  0.25597166  1  0  0.218706  0.660761  0  4.119213  0
C  C42  1  0.84242376  0.62021350  0.25592606  1  0  0.219592  0.662057  0  4.113704  0
C  C43  1  0.53738279  0.62030491  0.74402737  1  0  0.218751  0.660759  0  4.119374  0
C  C44  1  0.73072935  0.99993868  0.74245108  1  0  -0.162972  -0.391092  0  3.919347  0
C  C45  1  0.26927420  0.00006154  0.25754541  1  0  -0.163018  -0.391292  0  3.919534  0
C  C46  1  0.69598319  0.99997035  0.90482242  1  0  0.245754  0.698111  0  4.075277  0
C  C47  1  0.30401225  0.00003378  0.09517723  1  0  0.24578  0.698171  0  4.075118  0
O  O48  1  0.32916719  0.33154140  0.73946089  1  0  -0.356721  -0.599335  0  2.203193  0
O  O49  1  0.33937345  0.33141893  0.26039430  1  0  -0.356528  -0.599112  0  2.20637  0
O  O50  1  0.67083584  0.66845490  0.26054439  1  0  -0.356724  -0.599285  0  2.203088  0
O  O51  1  0.66063663  0.66856826  0.73960010  1  0  -0.356589  -0.599212  0  2.206339  0
O  O52  1  0.03581405  0.46808367  0.85176937  1  0  -0.404531  -0.675184  0  2.286248  0
O  O53  1  0.49598773  0.46825687  0.14841928  1  0  -0.403988  -0.674606  0  2.288565  0
O  O54  1  0.96418983  0.53190351  0.14824075  1  0  -0.40446  -0.675067  0  2.286239  0
O  O55  1  0.50401400  0.53174204  0.85158078  1  0  -0.403945  -0.674535  0  2.288708  0
O  O56  1  0.76185141  0.85403222  0.97025760  1  0  -0.374331  -0.642898  0  2.245802  0
O  O57  1  0.38388258  0.85401733  0.02995285  1  0  -0.374482  -0.643922  0  2.247405  0
O  O58  1  0.23814656  0.14596929  0.02974079  1  0  -0.374352  -0.64289  0  2.245757  0
O  O59  1  0.61612105  0.14598027  0.97004175  1  0  -0.374474  -0.643886  0  2.247632  0
O  O60  1  0.13504262  0.73016604  0.99962160  1  0  -0.629355  -0.82349  0  2.120457  0
O  O61  1  0.86495114  0.26983157  0.00038100  1  0  -0.629324  -0.823533  0  2.12037  0
