# generated using pymatgen
data_CuP2H32C20N6(Cl3O4)2
_symmetry_space_group_name_H-M   'P 1'
_cell_length_a   10.24974416
_cell_length_b   12.75083039
_cell_length_c   14.37504718
_cell_angle_alpha   101.49218857
_cell_angle_beta   99.23793967
_cell_angle_gamma   113.22999298
_symmetry_Int_Tables_number   1
_chemical_formula_structural   CuP2H32C20N6(Cl3O4)2
_chemical_formula_sum   'Cu2 P4 H64 C40 N12 Cl12 O16'
_cell_volume   1631.05986978
_cell_formula_units_Z   2
loop_
 _symmetry_equiv_pos_site_id
 _symmetry_equiv_pos_as_xyz
  1  'x, y, z'
loop_
 _atom_site_type_symbol
 _atom_site_label
 _atom_site_symmetry_multiplicity
 _atom_site_fract_x
 _atom_site_fract_y
 _atom_site_fract_z
 _atom_site_occupancy
 _atom_site_hle17_ddec_charge
 _atom_site_hle17_ddec_spin_density
 _atom_site_hle17_ddec_sum_bond_order
 _atom_site_hle17_magmom
 _atom_site_hse06_10hf_ddec_charge
 _atom_site_hse06_10hf_ddec_spin_density
 _atom_site_hse06_10hf_ddec_sum_bond_order
 _atom_site_hse06_10hf_magmom
 _atom_site_hse06_ddec_charge
 _atom_site_hse06_ddec_spin_density
 _atom_site_hse06_ddec_sum_bond_order
 _atom_site_hse06_magmom
 _atom_site_pbe_cm5_charge
 _atom_site_pbe_ddec_charge
 _atom_site_pbe_ddec_spin_density
 _atom_site_pbe_ddec_sum_bond_order
 _atom_site_pbe_magmom
Cu  Cu0  1  0.22180572  0.96981777  0.73915210  1  1.047297  0.738991  1.663455  0.537  1.05039  0.838586  2.048287  0.674  1.134578  0.907713  1.991737  0.762  0.740062  0.989584  0.780945  2.095234  0.609
Cu  Cu1  1  0.77819416  0.03018554  0.26085029  1  1.047295  -0.739019  1.663552  -0.538  1.050398  -0.838575  2.048372  -0.674  1.134568  -0.907704  1.991873  -0.762  0.74004  0.989576  -0.780974  2.095388  -0.609
P  P2  1  0.22640114  0.17826726  0.65692577  1  1.363114  -0.000998  4.76929  -0.004  1.201168  0.003257  5.263307  0.0  1.252786  0.002674  5.23582  0.001  0.513521  1.164751  0.00348  5.282172  0.0
P  P3  1  0.77359387  0.82173070  0.34307441  1  1.363132  0.000991  4.769118  0.004  1.201173  -0.003259  5.263159  0.0  1.25279  -0.002675  5.235669  -0.001  0.513558  1.164768  -0.00348  5.282001  0.0
P  P4  1  0.24381648  0.77178297  0.82563976  1  1.365272  0.001357  4.755637  -0.002  1.201923  0.003725  5.250288  0.001  1.253158  0.002868  5.222785  0.001  0.511896  1.165995  0.004269  5.269025  0.001
P  P5  1  0.75618685  0.22822302  0.17436072  1  1.365384  -0.001354  4.755261  0.002  1.202008  -0.003727  5.2499  -0.001  1.253252  -0.002863  5.222382  -0.001  0.511985  1.166083  -0.004269  5.268626  -0.001
H  H6  1  0.47472935  0.98282886  0.09802341  1  0.053502  3.7e-05  0.943824  0.0  0.063975  3e-05  1.017188  0.0  0.064999  3.1e-05  1.016114  0.0  0.09515  0.063198  1.9e-05  1.018007  0.0
H  H7  1  0.52527506  0.01717001  0.90197525  1  0.053457  -3.1e-05  0.943811  0.0  0.063953  -3e-05  1.017167  0.0  0.064977  -3.1e-05  1.01609  0.0  0.095148  0.063179  -1.8e-05  1.017985  0.0
H  H8  1  0.29632168  0.40453463  0.64462283  1  0.068521  7.9e-05  0.950005  0.0  0.082588  3.9e-05  1.021141  0.0  0.083  1.1e-05  1.02118  0.0  0.107209  0.082296  9.7e-05  1.021036  0.0
H  H9  1  0.70367779  0.59546423  0.35537386  1  0.068523  -7.7e-05  0.950088  0.0  0.082573  -3.9e-05  1.021237  0.0  0.082985  -1.1e-05  1.021278  0.0  0.107206  0.082282  -9.7e-05  1.021125  0.0
H  H10  1  0.47751709  0.69096628  0.94293462  1  0.04963  0.000238  0.922296  0.0  0.06641  8.4e-05  0.988576  0.0  0.067407  3.5e-05  0.987157  0.0  0.094171  0.06548  0.000167  0.989847  0.0
H  H11  1  0.52248235  0.30903436  0.05706377  1  0.049626  -0.000237  0.922304  0.0  0.066405  -8.4e-05  0.988591  0.0  0.067401  -3.4e-05  0.987174  0.0  0.094159  0.065479  -0.000167  0.989862  0.0
H  H12  1  0.40507142  0.46424172  0.82443575  1  0.048068  -2.6e-05  0.924084  0.0  0.059675  -1.4e-05  0.993542  0.0  0.060544  -9e-06  0.99228  0.0  0.092053  0.059091  -1.1e-05  0.994361  0.0
H  H13  1  0.59492752  0.53575981  0.17556274  1  0.04802  1.2e-05  0.924091  0.0  0.059662  1.5e-05  0.993556  0.0  0.060532  8e-06  0.992293  0.0  0.092041  0.059085  1.1e-05  0.994373  0.0
H  H14  1  0.53642663  0.78806696  0.86857938  1  0.074551  2e-06  0.963136  0.0  0.088484  -6e-06  1.032341  0.0  0.089133  -4e-06  1.032492  0.0  0.102195  0.08788  -8e-06  1.03246  0.0
H  H15  1  0.46357576  0.21193546  0.13142037  1  0.074512  3e-06  0.963283  0.0  0.088505  6e-06  1.03241  0.0  0.089157  5e-06  1.032563  0.0  0.102173  0.0879  8e-06  1.032536  0.0
H  H16  1  0.07570639  0.37197126  0.72860408  1  0.06441  0.000194  0.975877  0.0  0.072545  8.8e-05  1.051377  0.0  0.07305  4e-05  1.051398  0.0  0.093433  0.072208  0.000158  1.051427  0.0
H  H17  1  0.92430240  0.62803385  0.27139688  1  0.064353  -0.000184  0.97597  0.0  0.072558  -8.7e-05  1.051402  0.0  0.073063  -4e-05  1.051422  0.0  0.093461  0.072222  -0.000158  1.051445  0.0
H  H18  1  0.87904094  0.58591877  0.82110920  1  0.073685  6.3e-05  0.944004  0.0  0.082934  -1e-05  1.017214  0.0  0.084285  -1.2e-05  1.01572  0.0  0.098731  0.082073  1.6e-05  1.018128  0.0
H  H19  1  0.12096246  0.41408188  0.17889035  1  0.07366  -6.9e-05  0.944075  0.0  0.082915  1e-05  1.017295  0.0  0.084266  1.2e-05  1.0158  0.0  0.098738  0.08205  -1.6e-05  1.018206  0.0
H  H20  1  0.95530703  0.19549959  0.62230782  1  0.080236  -1.4e-05  0.967547  0.0  0.094295  -1.2e-05  1.034411  0.0  0.09498  -8e-06  1.034666  0.0  0.105593  0.093738  -1.6e-05  1.03449  0.0
H  H21  1  0.04468650  0.80449926  0.37768956  1  0.080209  1.8e-05  0.967565  0.0  0.094288  1.2e-05  1.034409  0.0  0.094973  8e-06  1.034663  0.0  0.105589  0.093734  1.6e-05  1.034486  0.0
H  H22  1  0.60240124  0.31313313  0.66670988  1  0.067376  0.000115  0.935277  0.0  0.07799  1.4e-05  1.009162  0.0  0.078717  0.0  1.008593  0.0  0.096069  0.077534  5.1e-05  1.009542  0.0
H  H23  1  0.39759133  0.68686215  0.33328885  1  0.067412  -0.000122  0.935391  0.0  0.078002  -1.4e-05  1.009274  0.0  0.078732  -0.0  1.008706  0.0  0.09607  0.07754  -5.1e-05  1.009656  0.0
H  H24  1  0.50674393  0.19858382  0.71779647  1  0.09385  -3.8e-05  0.930764  0.0  0.110211  -3.9e-05  0.989596  0.0  0.110928  -4.3e-05  0.989218  0.0  0.114784  0.109939  -1.8e-05  0.989708  0.0
H  H25  1  0.49325107  0.80141414  0.28220579  1  0.093887  3.8e-05  0.930784  0.0  0.110262  3.9e-05  0.989575  0.0  0.110983  4.3e-05  0.989195  0.0  0.114784  0.109983  1.8e-05  0.989678  0.0
H  H26  1  0.22563033  0.82433944  0.01242728  1  0.067888  0.000115  0.97565  0.0  0.079818  0.000165  1.050782  0.0  0.081072  0.000122  1.049644  0.0  0.097618  0.078851  0.000196  1.051708  0.0
H  H27  1  0.77437256  0.17566209  0.98757306  1  0.067882  -0.000117  0.975648  0.0  0.079806  -0.000164  1.050788  0.0  0.081064  -0.000122  1.049653  0.0  0.097626  0.07884  -0.000196  1.051717  0.0
H  H28  1  0.77547073  0.49248522  0.64293044  1  0.054525  6.4e-05  0.938092  0.0  0.065513  1.5e-05  1.009585  0.0  0.065958  3e-06  1.008633  0.0  0.095401  0.06511  3.4e-05  1.010439  0.0
H  H29  1  0.22453122  0.50751276  0.35706847  1  0.054463  -7.3e-05  0.938145  0.0  0.06551  -1.5e-05  1.009591  0.0  0.065955  -3e-06  1.00864  0.0  0.095403  0.06511  -3.5e-05  1.010446  0.0
H  H30  1  0.88767917  0.07657526  0.51080053  1  0.081342  0.000514  0.939988  0.001  0.096835  8e-05  1.00285  0.0  0.097739  2.5e-05  1.002528  0.0  0.102244  0.096355  0.000202  1.003011  0.0
H  H31  1  0.11231982  0.92342092  0.48919911  1  0.081379  -0.000506  0.940048  -0.001  0.096867  -8e-05  1.002912  0.0  0.097774  -2.5e-05  1.002588  0.0  0.102261  0.096391  -0.000202  1.003073  0.0
H  H32  1  0.26864685  0.17181462  0.47522966  1  0.064913  3.3e-05  0.975863  0.0  0.073722  9.8e-05  1.055614  0.0  0.07476  7.3e-05  1.055  0.0  0.097101  0.073178  0.000119  1.055801  0.0
H  H33  1  0.73135505  0.82818335  0.52477551  1  0.064895  -4.4e-05  0.975941  0.0  0.073725  -9.7e-05  1.055653  0.0  0.074762  -7.4e-05  1.055038  0.0  0.097111  0.073183  -0.00012  1.055838  0.0
H  H34  1  0.47318740  0.44147870  0.62277465  1  0.05367  0.000142  0.929023  0.0  0.065928  1.3e-05  1.00095  0.0  0.066683  -1.2e-05  0.999673  0.0  0.08993  0.06521  8.9e-05  1.002354  0.0
H  H35  1  0.52681212  0.55851482  0.37722389  1  0.053691  -0.000142  0.929041  0.0  0.06599  -1.3e-05  1.000919  0.0  0.066745  1.3e-05  0.999641  0.0  0.089946  0.065271  -8.9e-05  1.002324  0.0
H  H36  1  0.94298056  0.70042585  0.76360162  1  0.091017  5.2e-05  0.934511  0.0  0.10848  2.7e-05  0.991686  0.0  0.109087  8e-06  0.991389  0.0  0.114837  0.108233  5.1e-05  0.991733  0.0
H  H37  1  0.05701987  0.29957480  0.23639689  1  0.090947  -5.4e-05  0.934583  0.0  0.108474  -2.7e-05  0.991682  0.0  0.109082  -8e-06  0.991382  0.0  0.114809  0.10822  -5.1e-05  0.991729  0.0
H  H38  1  0.02303879  0.34361184  0.52768754  1  0.042781  2.3e-05  0.938534  0.0  0.055069  1.2e-05  1.00939  0.0  0.056188  6e-06  1.007286  0.0  0.093743  0.054118  3.1e-05  1.011093  0.0
H  H39  1  0.97695726  0.65638434  0.47230757  1  0.042684  -2e-05  0.9385  0.0  0.054995  -1.2e-05  1.009372  0.0  0.056117  -6e-06  1.007268  0.0  0.093751  0.054053  -3.2e-05  1.01107  0.0
H  H40  1  0.27947020  0.71192735  0.03118517  1  0.051827  3e-06  0.931109  0.0  0.068491  -2.5e-05  0.999878  0.0  0.06905  -2.1e-05  0.999547  0.0  0.093902  0.067859  -1.7e-05  1.000381  0.0
H  H41  1  0.72053074  0.28807240  0.96881324  1  0.05183  -1.5e-05  0.931098  0.0  0.068484  2.5e-05  0.999884  0.0  0.069047  2.1e-05  0.999555  0.0  0.093885  0.067862  1.7e-05  1.000376  0.0
H  H42  1  0.19989629  0.32685726  0.43964459  1  0.041626  1.6e-05  0.92375  0.0  0.057078  4e-06  0.989963  0.0  0.05812  -4e-06  0.988682  0.0  0.090857  0.056057  2.9e-05  0.991412  0.0
H  H43  1  0.80010518  0.67313982  0.56035410  1  0.041607  -1.2e-05  0.923773  0.0  0.05704  -5e-06  0.989954  0.0  0.058084  5e-06  0.98867  0.0  0.090842  0.056017  -3e-05  0.991401  0.0
H  H44  1  0.06370115  0.50205673  0.87684195  1  0.060131  -4.1e-05  0.922451  0.0  0.072266  -3.4e-05  0.991958  0.0  0.073417  -2.6e-05  0.99062  0.0  0.095223  0.071276  -2.9e-05  0.993148  0.0
H  H45  1  0.93630418  0.49794926  0.12315737  1  0.060224  5.3e-05  0.922278  0.0  0.072297  3.4e-05  0.99184  0.0  0.073451  2.6e-05  0.9905  0.0  0.095232  0.071315  2.9e-05  0.99303  0.0
H  H46  1  0.24080376  0.56915592  0.85590929  1  0.069313  2.3e-05  0.943806  0.0  0.087967  1.6e-05  1.006296  0.0  0.087899  5e-06  1.006852  0.0  0.110671  0.088042  3.9e-05  1.005884  0.0
H  H47  1  0.75920205  0.43085097  0.14409024  1  0.06928  -1.9e-05  0.943842  0.0  0.08793  -1.6e-05  1.006322  0.0  0.08787  -5e-06  1.006873  0.0  0.110679  0.088012  -3.9e-05  1.00591  0.0
H  H48  1  0.50062011  0.58470540  0.77657719  1  0.066909  0.000135  0.930019  0.0  0.079107  7e-05  0.996094  0.0  0.078992  3.2e-05  0.996303  0.0  0.100215  0.079299  0.000115  0.995829  0.0
H  H49  1  0.49938084  0.41529435  0.22341982  1  0.06697  -0.000154  0.929972  0.0  0.079177  -7e-05  0.996094  0.0  0.079074  -3.3e-05  0.996272  0.0  0.100254  0.079375  -0.000115  0.995831  0.0
H  H50  1  0.13188106  0.49469368  0.67608757  1  0.044069  -4.5e-05  0.934886  0.0  0.056053  -8e-06  1.006975  0.0  0.057011  -3e-06  1.005268  0.0  0.08982  0.055286  -1.5e-05  1.008309  0.0
H  H51  1  0.86812233  0.50530875  0.32391159  1  0.044094  4.7e-05  0.934845  0.0  0.056096  8e-06  1.006954  0.0  0.057057  4e-06  1.00524  0.0  0.089836  0.055313  1.4e-05  1.008302  0.0
H  H52  1  0.71069042  0.38728708  0.84544795  1  0.0602  0.0001  0.923224  0.0  0.073768  3.5e-05  0.988459  0.0  0.074243  1.3e-05  0.987409  0.0  0.099549  0.073352  6.3e-05  0.989428  0.0
H  H53  1  0.28930805  0.61271178  0.15455140  1  0.060193  -9e-05  0.92323  0.0  0.073764  -3.5e-05  0.988467  0.0  0.074239  -1.3e-05  0.987417  0.0  0.099536  0.07335  -6.3e-05  0.989435  0.0
H  H54  1  0.95384851  0.56138418  0.62154175  1  0.047554  3.9e-05  0.933113  0.0  0.059652  9e-06  1.000985  0.0  0.06028  9e-06  1.000097  0.0  0.092074  0.059212  1.9e-05  1.001606  0.0
H  H55  1  0.04615294  0.43861468  0.37845656  1  0.047584  -5.1e-05  0.933128  0.0  0.059675  -9e-06  1.001022  0.0  0.060304  -9e-06  1.000133  0.0  0.092084  0.05924  -1.9e-05  1.001637  0.0
H  H56  1  0.83423358  0.23715862  0.47597317  1  0.070622  0.000162  0.936372  0.0  0.082374  0.000105  1.00038  0.0  0.082477  6.6e-05  1.000235  0.0  0.101259  0.082634  0.000151  1.000105  0.0
H  H57  1  0.16576154  0.76283400  0.52401913  1  0.070592  -0.000168  0.936254  0.0  0.082356  -0.000106  1.000319  0.0  0.082459  -6.6e-05  1.000175  0.0  0.101263  0.08262  -0.000151  1.000046  0.0
H  H58  1  0.53186106  0.34726109  0.86739947  1  0.05291  4.9e-05  0.931013  0.0  0.061331  1.2e-05  1.003272  0.0  0.062819  1.2e-05  1.00126  0.0  0.092125  0.0603  2.1e-05  1.004767  0.0
H  H59  1  0.46813886  0.65274045  0.13260191  1  0.05294  -3.5e-05  0.931005  0.0  0.061364  -1.2e-05  1.003261  0.0  0.062853  -1.1e-05  1.001249  0.0  0.092138  0.060334  -2.2e-05  1.004755  0.0
H  H60  1  0.13085142  0.20504337  0.32903083  1  0.066516  0.000129  0.945119  0.0  0.078266  9.2e-05  1.012157  0.0  0.078874  6.5e-05  1.011243  0.0  0.099776  0.077992  0.00011  1.012601  0.0
H  H61  1  0.86915256  0.79494926  0.67097017  1  0.066547  -0.000115  0.94511  0.0  0.078251  -9.2e-05  1.012153  0.0  0.07886  -6.4e-05  1.011238  0.0  0.099808  0.077977  -0.00011  1.012598  0.0
H  H62  1  0.65272513  0.96401525  0.01703142  1  0.06134  3.2e-05  0.943244  0.0  0.073585  2e-05  1.01144  0.0  0.074671  1.8e-05  1.01048  0.0  0.095394  0.072785  2.4e-05  1.012158  0.0
H  H63  1  0.34727927  0.03598362  0.98297002  1  0.061456  -3.5e-05  0.943259  0.0  0.073711  -2e-05  1.011406  0.0  0.074797  -1.9e-05  1.010445  0.0  0.095429  0.072913  -2.4e-05  1.012129  0.0
H  H64  1  0.71706086  0.85653785  0.03506518  1  0.063014  3.3e-05  0.953113  0.0  0.074008  3.5e-05  1.021133  0.0  0.074084  3e-05  1.021399  0.0  0.094276  0.073895  3.6e-05  1.020989  0.0
H  H65  1  0.28293863  0.14345744  0.96493506  1  0.063084  -4.1e-05  0.95313  0.0  0.074048  -3.5e-05  1.021171  0.0  0.074123  -3e-05  1.021437  0.0  0.094289  0.07394  -3.5e-05  1.021026  0.0
H  H66  1  0.41428441  0.89018553  0.17558311  1  0.062057  5e-06  0.946798  0.0  0.073837  9e-06  1.015046  0.0  0.074296  1.3e-05  1.014818  0.0  0.096408  0.073292  -1e-05  1.015593  0.0
H  H67  1  0.58571897  0.10981690  0.82441605  1  0.062035  5e-06  0.946776  0.0  0.073817  -9e-06  1.015034  0.0  0.074276  -1.3e-05  1.014806  0.0  0.096418  0.073277  1e-05  1.015583  0.0
H  H68  1  0.08452846  0.05975208  0.42109968  1  0.06876  0.000327  0.926048  0.0  0.084601  8.3e-05  0.990676  0.0  0.08491  5.7e-05  0.990733  0.0  0.100602  0.08456  0.000139  0.990488  0.0
H  H69  1  0.91547197  0.94024499  0.57890516  1  0.068769  -0.000329  0.925966  0.0  0.084593  -8.2e-05  0.990622  0.0  0.084899  -5.8e-05  0.99068  0.0  0.10061  0.084555  -0.000139  0.990433  0.0
C  C70  1  0.37672196  0.82651192  0.69118943  1  0.530767  -0.003227  3.930794  -0.007  0.489232  0.000215  4.222405  -0.002  0.520776  -0.000144  4.226115  -0.002  0.226262  0.467799  0.000579  4.219526  -0.002
C  C71  1  0.62328568  0.17350923  0.30880864  1  0.530756  0.003213  3.930858  0.007  0.489175  -0.000213  4.222418  0.002  0.52072  0.000147  4.226128  0.002  0.226158  0.467746  -0.000576  4.21952  0.002
C  C72  1  0.97024389  0.16904153  0.54901352  1  -0.003749  -0.000115  3.648064  -0.001  -0.068077  0.00014  3.906371  0.0  -0.06445  7.7e-05  3.917794  0.0  -0.069967  -0.070693  0.000284  3.898443  0.0
C  C73  1  0.02975262  0.83095554  0.45098529  1  -0.003797  9.2e-05  3.648025  0.001  -0.068103  -0.000145  3.906328  0.0  -0.064477  -7.3e-05  3.91775  0.0  -0.069948  -0.070714  -0.000283  3.898403  0.0
C  C74  1  0.09655781  0.13402244  0.79513139  1  0.537302  -0.00392  3.906466  -0.007  0.495907  0.000119  4.198977  -0.002  0.527982  -0.000131  4.201523  -0.002  0.227949  0.474159  0.000441  4.196799  -0.002
C  C75  1  0.90343774  0.86596750  0.20487510  1  0.537242  0.003942  3.906689  0.007  0.495817  -0.000121  4.199217  0.002  0.527893  0.00013  4.201757  0.002  0.227898  0.474066  -0.000441  4.19704  0.002
C  C76  1  0.48240465  0.80472463  0.63005496  1  0.184433  0.009229  3.514442  0.01  0.189456  0.005993  3.799095  0.007  0.195691  0.004091  3.804158  0.005  0.091557  0.184725  0.007225  3.79571  0.009
C  C77  1  0.51759668  0.19528314  0.36994629  1  0.184312  -0.009236  3.514528  -0.01  0.189556  -0.005991  3.798895  -0.007  0.195802  -0.004095  3.803928  -0.005  0.091715  0.184826  -0.007226  3.795504  -0.009
C  C78  1  0.31818016  0.80101160  0.01915660  1  -0.010929  1e-06  3.711363  0.0  -0.076622  0.000109  3.974922  0.0  -0.072993  7.5e-05  3.986723  0.0  -0.073023  -0.079179  0.000133  3.967193  0.0
C  C79  1  0.68182126  0.19898905  0.98084202  1  -0.010963  2.3e-05  3.711374  0.0  -0.07666  -0.000109  3.974994  0.0  -0.073053  -8.2e-05  3.986825  0.0  -0.073029  -0.079219  -0.000134  3.967265  0.0
C  C80  1  0.02451650  0.18136440  0.87234513  1  0.17887  0.00873  3.514554  0.01  0.182131  0.005554  3.803206  0.007  0.187978  0.003779  3.808622  0.005  0.090267  0.177762  0.006881  3.799603  0.008
C  C81  1  0.97547852  0.81863178  0.12765613  1  0.178707  -0.008728  3.514859  -0.01  0.182066  -0.005554  3.803349  -0.007  0.187912  -0.003769  3.808767  -0.005  0.09026  0.177695  -0.00688  3.799748  -0.008
C  C82  1  0.15264114  0.15434227  0.46311097  1  -0.002148  -5e-05  3.676193  0.0  -0.065034  0.000172  3.941252  0.0  -0.060833  0.000133  3.952585  0.0  -0.069664  -0.067869  0.000241  3.9327  0.0
C  C83  1  0.84735781  0.84565570  0.53689176  1  -0.002167  9.4e-05  3.67629  0.001  -0.06511  -0.000177  3.941364  0.0  -0.060905  -0.000123  3.952691  0.0  -0.069732  -0.067946  -0.00024  3.932808  0.0
C  C84  1  0.40487969  0.40854193  0.67228389  1  0.003047  0.000569  3.691539  0.0  -0.061029  0.000397  3.957563  0.0  -0.056605  0.000218  3.969706  0.0  -0.067856  -0.063976  0.000672  3.94884  0.001
C  C85  1  0.59511731  0.59145604  0.32771583  1  0.002932  -0.000591  3.691603  0.0  -0.061124  -0.000395  3.957653  0.0  -0.056705  -0.000221  3.969799  0.0  -0.067892  -0.064077  -0.000672  3.948956  -0.001
C  C86  1  0.49992696  0.78093771  0.93559495  1  0.008802  6e-06  3.690544  0.0  -0.056845  0.000153  3.953253  0.0  -0.052231  0.000102  3.963674  0.0  -0.068808  -0.059976  0.00021  3.946356  0.0
C  C87  1  0.50007199  0.21906204  0.06440461  1  0.008833  -3.2e-05  3.690747  0.0  -0.056863  -0.00015  3.953428  0.0  -0.052253  -0.000108  3.963852  0.0  -0.068789  -0.059993  -0.00021  3.946538  0.0
C  C88  1  0.12325870  0.54312194  0.82629693  1  0.004424  0.001002  3.684934  0.001  -0.05817  0.000588  3.948427  0.001  -0.054102  0.000361  3.960434  0.0  -0.064872  -0.060889  0.000897  3.939731  0.001
C  C89  1  0.87674614  0.45688317  0.17370218  1  0.0044  -0.001016  3.684786  -0.001  -0.058159  -0.000591  3.948344  -0.001  -0.054099  -0.000357  3.96035  0.0  -0.064848  -0.060888  -0.000897  3.93966  -0.001
C  C90  1  0.61989642  0.87358329  0.02485202  1  0.061658  9.6e-05  3.62524  0.0  0.008038  9.9e-05  3.893641  0.0  0.014643  8.7e-05  3.898429  0.0  -0.081652  0.003572  0.000113  3.890168  0.0
C  C91  1  0.38010404  0.12641379  0.97514865  1  0.061435  -6.5e-05  3.625448  0.0  0.00786  -0.0001  3.893767  0.0  0.014471  -8.6e-05  3.898545  0.0  -0.08167  0.003395  -0.000113  3.890296  0.0
C  C92  1  0.44452855  0.89251851  0.10604521  1  0.062256  9.5e-05  3.632637  0.0  0.005538  0.000123  3.909032  0.0  0.012054  0.000123  3.914034  0.0  -0.080653  0.001171  0.000107  3.905688  0.0
C  C93  1  0.55547335  0.10748302  0.89395571  1  0.062368  -0.000129  3.632489  0.0  0.005607  -0.000124  3.908912  0.0  0.012133  -0.000117  3.913914  0.0  -0.080644  0.001238  -0.000106  3.905579  0.0
C  C94  1  0.94799631  0.24899977  0.48895244  1  0.077614  0.001211  3.613661  0.001  0.024804  0.000475  3.882671  0.001  0.032321  0.000251  3.886838  0.0  -0.073305  0.019744  0.000824  3.879408  0.001
C  C95  1  0.05199976  0.75099463  0.51104237  1  0.077891  -0.001206  3.613294  -0.001  0.024986  -0.00047  3.882467  -0.001  0.032491  -0.000257  3.886655  0.0  -0.073294  0.019919  -0.000823  3.879215  -0.001
C  C96  1  0.12113868  0.23206443  0.40392480  1  0.061194  0.000713  3.653291  0.001  0.002312  0.000217  3.933262  0.0  0.008791  0.000115  3.938537  0.0  -0.076303  -0.002047  0.000411  3.929435  0.0
C  C97  1  0.87886234  0.76792819  0.59607376  1  0.061133  -0.000766  3.653227  -0.001  0.002412  -0.000211  3.933002  0.0  0.008891  -0.000124  3.938277  0.0  -0.076282  -0.001938  -0.00041  3.929169  0.0
C  C98  1  0.06638563  0.45384303  0.72462096  1  0.044487  0.001232  3.655735  0.001  -0.01213  0.000384  3.927309  0.0  -0.006379  0.000168  3.934252  0.0  -0.085666  -0.015829  0.000789  3.922046  0.001
C  C99  1  0.93361973  0.54615940  0.27537913  1  0.044568  -0.001254  3.655632  -0.001  -0.012183  -0.00038  3.927277  0.0  -0.00643  -0.00017  3.934221  0.0  -0.085697  -0.015877  -0.000787  3.922063  -0.001
C  C100  1  0.94860797  0.61890199  0.77258276  1  -0.003111  8.4e-05  3.657344  0.0  -0.065836  2e-06  3.920113  0.0  -0.061025  -3.9e-05  3.930021  0.0  -0.06851  -0.069036  0.000141  3.912676  0.0
C  C101  1  0.05139295  0.38109954  0.22741526  1  -0.003  -7.8e-05  3.657398  0.0  -0.065796  -1e-06  3.920221  0.0  -0.060981  3.7e-05  3.930125  0.0  -0.068474  -0.06897  -0.000141  3.91275  0.0
C  C102  1  0.89405892  0.52395430  0.67365835  1  0.060739  0.000784  3.648099  0.001  0.00374  0.000136  3.923627  0.0  0.010257  4.3e-05  3.929789  0.0  -0.07808  -0.000515  0.000404  3.919014  0.0
C  C103  1  0.10594400  0.47604545  0.32634099  1  0.060785  -0.000728  3.648147  -0.001  0.003697  -0.000137  3.923727  0.0  0.010214  -3.9e-05  3.929888  0.0  -0.078071  -0.000567  -0.000403  3.919109  0.0
C  C104  1  0.47837615  0.49307734  0.77634837  1  0.058502  0.001069  3.64548  0.001  0.004548  0.000345  3.915281  0.0  0.010813  0.000159  3.92173  0.0  -0.076498  0.000429  0.000689  3.910196  0.001
C  C105  1  0.52162282  0.50692241  0.22364911  1  0.058574  -0.000995  3.645427  -0.001  0.004487  -0.000346  3.915358  0.0  0.010751  -0.000154  3.921818  0.0  -0.076534  0.000364  -0.000688  3.910283  -0.001
C  C106  1  0.52808511  0.28889473  0.71455532  1  -0.00374  8.4e-05  3.657951  0.0  -0.067391  8e-06  3.923087  0.0  -0.063086  -5.5e-05  3.934713  0.0  -0.068191  -0.07033  0.000184  3.914687  0.0
C  C107  1  0.47190892  0.71110144  0.28544513  1  -0.003814  -6e-05  3.658165  0.0  -0.067412  -8e-06  3.923252  0.0  -0.063121  5.4e-05  3.934889  0.0  -0.068185  -0.070328  -0.000184  3.914827  0.0
C  C108  1  0.59940020  0.37811202  0.81691096  1  0.060582  0.00093  3.636989  0.001  0.003734  0.000215  3.913534  0.0  0.009957  7.5e-05  3.919775  0.0  -0.077986  -0.000425  0.000552  3.909093  0.001
C  C109  1  0.40059824  0.62188862  0.18308939  1  0.060545  -0.000981  3.637095  -0.001  0.003654  -0.000215  3.913647  0.0  0.00988  -7.6e-05  3.91989  0.0  -0.078019  -0.000515  -0.00055  3.909206  -0.001
N  N110  1  0.32756848  0.75042852  0.74047332  1  -0.75365  -0.000614  3.058198  0.0  -0.700545  -0.000407  3.356946  0.0  -0.728782  -0.000907  3.358662  0.0  -0.393218  -0.681833  5.2e-05  3.356014  0.001
N  N111  1  0.67243233  0.24957836  0.25953328  1  -0.753629  0.00063  3.058503  0.0  -0.700561  0.000409  3.357404  0.0  -0.728805  0.000907  3.35913  0.0  -0.39319  -0.68186  -4.8e-05  3.356464  -0.001
N  N112  1  0.36674272  0.79893724  0.92866292  1  -0.464259  0.002393  3.331023  0.003  -0.365331  0.000971  3.595688  0.001  -0.387041  0.000565  3.608044  0.001  -0.336064  -0.349879  0.001586  3.586412  0.002
N  N113  1  0.63325967  0.20106519  0.07133612  1  -0.464221  -0.00238  3.331056  -0.003  -0.365291  -0.000973  3.595738  -0.001  -0.386997  -0.000561  3.608095  -0.001  -0.33603  -0.349832  -0.001584  3.586444  -0.002
N  N114  1  0.15054949  0.20747091  0.74456320  1  -0.760877  0.002607  3.08869  0.004  -0.70715  0.000571  3.386828  0.001  -0.735814  -0.000315  3.388382  0.0  -0.392854  -0.688044  0.001574  3.385999  0.003
N  N115  1  0.84944551  0.79252883  0.25543451  1  -0.760901  -0.002616  3.089115  -0.004  -0.707171  -0.000568  3.387263  -0.001  -0.735828  0.000314  3.388808  0.0  -0.392906  -0.688076  -0.001569  3.386444  -0.003
N  N116  1  0.10107517  0.64851753  0.82045687  1  -0.446772  0.010539  3.323479  0.013  -0.352483  0.003633  3.582202  0.005  -0.375443  0.002009  3.59618  0.003  -0.330392  -0.335335  0.006367  3.57114  0.008
N  N117  1  0.89893018  0.35148669  0.17954075  1  -0.446916  -0.010527  3.323471  -0.013  -0.352534  -0.00363  3.582063  -0.005  -0.375509  -0.00201  3.596084  -0.003  -0.330507  -0.335398  -0.006359  3.571002  -0.008
N  N118  1  0.38878910  0.28880958  0.67025888  1  -0.447292  0.012035  3.329844  0.015  -0.354321  0.003813  3.593751  0.005  -0.377845  0.001947  3.608051  0.003  -0.327874  -0.336713  0.007004  3.582239  0.009
N  N119  1  0.61120589  0.71118838  0.32974339  1  -0.447211  -0.01201  3.329754  -0.015  -0.354245  -0.003814  3.593609  -0.005  -0.377767  -0.001944  3.607928  -0.003  -0.327825  -0.336651  -0.006997  3.582091  -0.009
N  N120  1  0.11985048  0.17946467  0.55831587  1  -0.45201  0.014114  3.325189  0.017  -0.356554  0.004195  3.587046  0.006  -0.379921  0.00223  3.601575  0.003  -0.329988  -0.339105  0.007203  3.575821  0.009
N  N121  1  0.88014796  0.82053597  0.44168657  1  -0.452024  -0.01408  3.325237  -0.017  -0.356548  -0.004194  3.587069  -0.006  -0.379913  -0.002224  3.601609  -0.003  -0.32999  -0.339106  -0.007194  3.575845  -0.009
Cl  Cl122  1  0.94627778  0.07688934  0.93591780  1  -0.052806  9.8e-05  1.375725  0.0  -0.044016  0.000219  1.618625  0.0  -0.045861  8.1e-05  1.607934  0.0  0.008982  -0.042403  0.000491  1.625754  0.0
Cl  Cl123  1  0.05371625  0.92310684  0.06408473  1  -0.052752  -0.000101  1.375838  0.0  -0.043989  -0.000219  1.618703  0.0  -0.045834  -8.2e-05  1.608012  0.0  0.00898  -0.042375  -0.000492  1.625826  0.0
Cl  Cl124  1  0.88480920  0.21160081  0.80841147  1  -0.062926  0.001729  1.320098  0.002  -0.050889  0.001014  1.559095  0.001  -0.053288  0.000472  1.549673  0.0  0.023623  -0.049603  0.001571  1.565866  0.002
Cl  Cl125  1  0.11518781  0.78839538  0.19158863  1  -0.062886  -0.001732  1.320175  -0.002  -0.050879  -0.001013  1.559135  -0.001  -0.053279  -0.000473  1.549713  0.0  0.023624  -0.049589  -0.001571  1.565906  -0.002
Cl  Cl126  1  0.16332918  0.31584188  0.96091121  1  -0.071621  0.001677  1.241226  0.002  -0.062835  0.00164  1.45633  0.002  -0.064064  0.001065  1.446679  0.001  0.001415  -0.062318  0.002129  1.463034  0.002
Cl  Cl127  1  0.83666829  0.68415520  0.03909189  1  -0.071556  -0.001681  1.241288  -0.002  -0.062789  -0.00164  1.456354  -0.002  -0.064018  -0.001066  1.446703  -0.001  0.001441  -0.062275  -0.002131  1.463063  -0.002
Cl  Cl128  1  0.49443709  0.87473238  0.53507131  1  -0.040894  0.000253  1.325546  0.0  -0.033885  0.000356  1.557496  0.0  -0.034371  0.000153  1.546681  0.0  0.017325  -0.033715  0.00055  1.565092  0.0
Cl  Cl129  1  0.50556528  0.12527183  0.46492874  1  -0.040886  -0.000258  1.325503  0.0  -0.033934  -0.000357  1.557397  0.0  -0.034427  -0.000153  1.54658  0.0  0.017276  -0.033771  -0.000551  1.564996  0.0
Cl  Cl130  1  0.65947387  0.87063565  0.71819057  1  -0.0817  0.000674  1.292775  0.001  -0.070827  0.000286  1.524551  0.0  -0.073748  1.8e-05  1.515522  0.0  0.009231  -0.069036  0.000724  1.530663  0.001
Cl  Cl131  1  0.34052805  0.12936411  0.28180865  1  -0.081627  -0.000674  1.292799  -0.001  -0.070812  -0.000285  1.524528  0.0  -0.073736  -1.8e-05  1.515496  0.0  0.009218  -0.069025  -0.000724  1.530639  -0.001
Cl  Cl132  1  0.42750670  0.64981954  0.57752378  1  -0.084122  0.002784  1.273655  0.003  -0.074176  0.002445  1.502759  0.002  -0.076468  0.001541  1.493087  0.002  -0.000215  -0.073509  0.00335  1.510321  0.003
Cl  Cl133  1  0.57248131  0.35018376  0.42247720  1  -0.084087  -0.002782  1.273762  -0.003  -0.074184  -0.002446  1.502805  -0.002  -0.07648  -0.001541  1.493128  -0.002  -0.000254  -0.073516  -0.003352  1.510366  -0.003
O  O134  1  0.24880841  0.06550918  0.64622725  1  -0.783838  0.066002  2.051955  0.086  -0.740572  0.041884  2.361093  0.059  -0.775442  0.031755  2.338561  0.047  -0.369916  -0.716009  0.048274  2.37661  0.065
O  O135  1  0.75118315  0.93448789  0.35377167  1  -0.783807  -0.065988  2.051902  -0.086  -0.740525  -0.041875  2.361009  -0.059  -0.775394  -0.031755  2.338495  -0.047  -0.369886  -0.715956  -0.048264  2.376499  -0.065
O  O136  1  0.09176189  0.03233629  0.79392600  1  -0.558005  0.064903  2.121387  0.087  -0.530081  0.044646  2.40352  0.065  -0.568038  0.03358  2.396261  0.052  -0.310804  -0.504286  0.050688  2.408315  0.071
O  O137  1  0.90823749  0.96766613  0.20607965  1  -0.557962  -0.064934  2.121101  -0.087  -0.530081  -0.04465  2.403273  -0.065  -0.568044  -0.033588  2.396023  -0.052  -0.310803  -0.504279  -0.050695  2.408074  -0.071
O  O138  1  0.19050795  0.86793850  0.82805967  1  -0.782731  0.05934  2.038644  0.077  -0.735809  0.03893  2.341038  0.054  -0.771  0.029852  2.320886  0.044  -0.368322  -0.711646  0.044358  2.355339  0.059
O  O139  1  0.80949295  0.13206304  0.17194253  1  -0.782737  -0.059334  2.038608  -0.077  -0.735783  -0.038927  2.340959  -0.054  -0.77096  -0.029853  2.320789  -0.044  -0.3683  -0.711616  -0.044352  2.355256  -0.059
O  O140  1  0.36168014  0.91996449  0.68677567  1  -0.559068  0.07061  2.157525  0.094  -0.530793  0.048332  2.443858  0.071  -0.570097  0.036466  2.438787  0.056  -0.30944  -0.504566  0.054774  2.447728  0.076
O  O141  1  0.63832521  0.08003794  0.31322581  1  -0.559071  -0.070669  2.156991  -0.094  -0.530882  -0.048357  2.443408  -0.071  -0.570199  -0.036481  2.438344  -0.056  -0.309459  -0.504637  -0.054803  2.447259  -0.077
O  O142  1  0.97369661  0.21902541  0.39384558  1  -0.33384  0.001762  2.276101  0.001  -0.274884  0.001109  2.54655  0.001  -0.291787  0.0011  2.54564  0.001  -0.232874  -0.262377  0.001151  2.546904  0.001
O  O143  1  0.02630491  0.78096811  0.60615111  1  -0.333876  -0.001754  2.275959  -0.001  -0.274945  -0.001108  2.546417  -0.001  -0.291849  -0.001101  2.545508  -0.001  -0.232883  -0.262437  -0.001149  2.546776  -0.001
O  O144  1  0.91383927  0.42087392  0.68358244  1  -0.318731  0.000986  2.189888  0.001  -0.253468  5.7e-05  2.439048  0.0  -0.2688  -5e-06  2.440045  0.0  -0.245165  -0.242166  0.000397  2.437554  0.001
O  O145  1  0.08616658  0.57912762  0.31641825  1  -0.318799  -0.00099  2.189829  -0.001  -0.253437  -5.8e-05  2.439007  0.0  -0.268768  5e-06  2.440002  0.0  -0.245171  -0.242131  -0.000396  2.437505  -0.001
O  O146  1  0.61745960  0.49520865  0.81512179  1  -0.314746  0.00097  2.201108  0.001  -0.248247  8.2e-05  2.446762  0.0  -0.263544  -1e-06  2.446998  0.0  -0.242159  -0.237021  0.000441  2.445751  0.001
O  O147  1  0.38253986  0.50479021  0.18487699  1  -0.314797  -0.000972  2.201146  -0.001  -0.248222  -8.2e-05  2.446817  0.0  -0.26352  -0.0  2.447059  0.0  -0.242142  -0.236991  -0.00044  2.445817  -0.001
O  O148  1  0.57157734  0.86919721  0.11340876  1  -0.333605  0.001324  2.248905  0.001  -0.271771  0.001157  2.514219  0.001  -0.288384  0.001158  2.51289  0.001  -0.234225  -0.259717  0.001106  2.514998  0.001
O  O149  1  0.42842460  0.13080077  0.88659084  1  -0.333609  -0.001323  2.248879  -0.001  -0.271775  -0.001158  2.514196  -0.001  -0.288394  -0.001155  2.512861  -0.001  -0.234237  -0.259723  -0.001105  2.514977  -0.001
