# generated using pymatgen
data_Mn2H36C38N6O11
_symmetry_space_group_name_H-M   'P 1'
_cell_length_a   8.72204422
_cell_length_b   11.63146716
_cell_length_c   17.95693922
_cell_angle_alpha   89.99973335
_cell_angle_beta   90.00015227
_cell_angle_gamma   101.04386118
_symmetry_Int_Tables_number   1
_chemical_formula_structural   Mn2H36C38N6O11
_chemical_formula_sum   'Mn4 H72 C76 N12 O22'
_cell_volume   1787.99753593
_cell_formula_units_Z   2
loop_
 _symmetry_equiv_pos_site_id
 _symmetry_equiv_pos_as_xyz
  1  'x, y, z'
loop_
 _atom_site_type_symbol
 _atom_site_label
 _atom_site_symmetry_multiplicity
 _atom_site_fract_x
 _atom_site_fract_y
 _atom_site_fract_z
 _atom_site_occupancy
 _atom_site_pbe_bader_charge
 _atom_site_pbe_bader_spin_density
 _atom_site_pbe_cm5_charge
 _atom_site_pbe_ddec_charge
 _atom_site_pbe_ddec_spin_density
 _atom_site_pbe_ddec_sum_bond_order
 _atom_site_pbe_magmom
Mn  Mn0  1  0.04628514  0.88240852  0.08887520  1  1.507222  4.552386  0.59302  0.920471  4.686362  2.367413  4.482
Mn  Mn1  1  0.95371590  0.11759149  0.58887641  1  1.507202  4.552402  0.593016  0.920484  4.686374  2.367382  4.482
Mn  Mn2  1  0.53005266  0.87539074  0.93466109  1  1.513718  4.534133  0.602025  0.929762  4.661518  2.375812  4.462
Mn  Mn3  1  0.46994827  0.12461048  0.43466105  1  1.51372  4.534137  0.602027  0.929761  4.661521  2.375834  4.462
H  H4  1  0.27890998  0.82734958  0.85169753  1  0.636057  0.001359  0.284238  0.366386  0.001205  0.991654  0.002
H  H5  1  0.72109067  0.17264781  0.35169823  1  0.636084  0.001359  0.284246  0.366391  0.001205  0.991631  0.002
H  H6  1  0.19660374  0.85613228  0.93078998  1  0.658471  0.002559  0.291544  0.382299  0.00112  0.965675  0.003
H  H7  1  0.80339673  0.14386721  0.43078976  1  0.658467  0.002559  0.291544  0.382292  0.00112  0.965679  0.003
H  H8  1  0.79509637  0.85129925  0.17073824  1  0.626959  0.000958  0.280767  0.360321  0.001003  1.004403  0.001
H  H9  1  0.20490679  0.14870285  0.67073783  1  0.626706  0.000958  0.280784  0.360378  0.001003  1.004318  0.001
H  H10  1  0.70947632  0.86730565  0.09029906  1  0.665883  0.002449  0.291461  0.382979  0.000939  0.962047  0.003
H  H11  1  0.29052517  0.13269610  0.59029881  1  0.665962  0.002449  0.291441  0.382972  0.000939  0.962064  0.003
H  H12  1  0.74451899  0.87651175  0.79974236  1  0.628973  0.000144  0.289712  0.334666  -0.000345  1.017676  0.0
H  H13  1  0.25548076  0.12348774  0.29974260  1  0.628971  0.000144  0.289704  0.334651  -0.000345  1.017697  0.0
H  H14  1  0.07221170  0.91924584  0.83261940  1  0.044247  0.000761  0.109065  0.066479  0.000184  0.986556  0.0
H  H15  1  0.92778818  0.08075343  0.33262009  1  0.04426  0.000761  0.109055  0.066441  0.000184  0.986579  0.0
H  H16  1  0.01996654  0.11240686  0.88102193  1  0.052007  0.00061  0.095739  0.108921  0.000251  1.015347  0.0
H  H17  1  0.98003237  0.88759208  0.38102247  1  0.052015  0.00061  0.095734  0.108924  0.000251  1.015363  0.0
H  H18  1  0.82877335  0.07677129  0.84113152  1  0.041939  0.000355  0.100687  0.123388  -0.000142  1.003368  0.0
H  H19  1  0.17122793  0.92322880  0.34113369  1  0.041938  0.000355  0.100704  0.123392  -0.000142  1.003393  0.0
H  H20  1  0.56315449  0.92586879  0.19239311  1  0.051607  0.00082  0.09917  0.118291  0.000245  0.996205  0.0
H  H21  1  0.43684760  0.07413316  0.69239378  1  0.051601  0.00082  0.099138  0.118224  0.000245  0.996178  0.0
H  H22  1  0.35679221  0.91429763  0.20783605  1  0.075926  0.000817  0.102429  0.126166  4.5e-05  1.007035  0.0
H  H23  1  0.64321020  0.08570071  0.70783696  1  0.075898  0.000817  0.102429  0.126145  4.5e-05  1.007045  0.0
H  H24  1  0.56064886  0.13096949  0.13718446  1  0.042633  0.000979  0.091753  0.096823  0.000492  1.009642  0.0
H  H25  1  0.43934959  0.86903282  0.63718496  1  0.042629  0.000979  0.09177  0.096812  0.000492  1.009708  0.0
H  H26  1  0.36349899  0.11358320  0.17023008  1  0.07006  0.000206  0.103377  0.121863  -0.000175  0.986089  0.0
H  H27  1  0.63649754  0.88641538  0.67023022  1  0.070095  0.000206  0.103386  0.121881  -0.000175  0.986044  0.0
H  H28  1  0.20189780  0.10424122  0.00001947  1  0.091806  0.001179  0.116516  0.085143  0.000359  1.017463  0.0
H  H29  1  0.79810380  0.89576288  0.50001868  1  0.091775  0.001179  0.116496  0.085108  0.000359  1.017537  0.0
H  H30  1  0.20898324  0.31991069  0.99270669  1  0.072351  0.000805  0.105141  0.113034  0.000479  1.035959  0.0
H  H31  1  0.79101786  0.68009452  0.49270651  1  0.072347  0.000805  0.105158  0.113055  0.000479  1.036015  0.0
H  H32  1  0.89147132  0.27780414  0.18109394  1  0.116118  0.000737  0.109911  0.125896  0.000441  1.017136  0.0
H  H33  1  0.10852891  0.72219526  0.68109334  1  0.116145  0.000737  0.109872  0.125831  0.000441  1.017223  0.0
H  H34  1  0.88952964  0.06770577  0.17640972  1  0.143273  0.001221  0.121246  0.091294  0.00065  1.010695  0.001
H  H35  1  0.11047195  0.93229453  0.67640904  1  0.1437  0.001221  0.121257  0.091337  0.00065  1.010636  0.001
H  H36  1  0.27615153  0.70895435  0.03297355  1  0.125119  0.001214  0.120858  0.088766  0.000627  1.025893  0.001
H  H37  1  0.72384997  0.29104865  0.53297171  1  0.125179  0.001214  0.120894  0.08882  0.000627  1.025834  0.001
H  H38  1  0.28186732  0.49705283  0.03081315  1  0.071762  0.000804  0.105585  0.110348  0.000429  1.026849  0.0
H  H39  1  0.71813210  0.50295106  0.53081066  1  0.071686  0.000804  0.105583  0.110335  0.000429  1.026864  0.0
H  H40  1  0.83540611  0.43983651  0.14519890  1  0.115296  0.00071  0.106297  0.109957  0.00041  1.038344  0.0
H  H41  1  0.16459259  0.56016663  0.64519830  1  0.115304  0.00071  0.106277  0.109927  0.00041  1.038388  0.0
H  H42  1  0.85308080  0.65262689  0.14436549  1  0.134905  0.001157  0.120271  0.089655  0.000545  1.030173  0.001
H  H43  1  0.14691926  0.34737713  0.64436607  1  0.134912  0.001157  0.120275  0.089698  0.000545  1.030136  0.001
H  H44  1  0.36364771  0.05607318  0.85012833  1  0.135195  0.001075  0.120338  0.091059  0.000493  1.014615  0.0
H  H45  1  0.63635497  0.94392772  0.35013104  1  0.135247  0.001075  0.120352  0.091036  0.000493  1.014675  0.0
H  H46  1  0.35033264  0.26294693  0.84938456  1  0.100937  0.000857  0.108211  0.117529  0.000475  1.03098  0.0
H  H47  1  0.64967370  0.73705486  0.34938569  1  0.100846  0.000857  0.108226  0.117578  0.000475  1.030948  0.0
H  H48  1  0.73418170  0.31955301  0.00772236  1  0.082032  0.000792  0.106472  0.115302  0.000428  1.021061  0.0
H  H49  1  0.26581952  0.68044491  0.50772153  1  0.082083  0.000792  0.106487  0.115324  0.000428  1.021044  0.0
H  H50  1  0.72805777  0.10617666  0.00250241  1  0.096732  0.001268  0.119378  0.089705  0.000425  1.002868  0.001
H  H51  1  0.27194114  0.89382129  0.50249983  1  0.096786  0.001267  0.119403  0.089731  0.000425  1.00287  0.001
H  H52  1  0.38197936  0.65214787  0.84407017  1  0.084659  0.001371  0.120329  0.089973  0.00062  1.004506  0.001
H  H53  1  0.61802122  0.34785394  0.34406965  1  0.084659  0.001371  0.120319  0.089951  0.00062  1.004539  0.001
H  H54  1  0.37407749  0.44003183  0.83930520  1  0.080474  0.000754  0.107518  0.11192  0.000426  1.024353  0.0
H  H55  1  0.62592674  0.55997090  0.33930516  1  0.080442  0.000754  0.107527  0.111936  0.000426  1.024344  0.0
H  H56  1  0.70203653  0.48575673  0.02337397  1  0.110149  0.000696  0.10141  0.099544  0.000348  1.071738  0.0
H  H57  1  0.29796497  0.51424196  0.52337313  1  0.110162  0.000696  0.101414  0.099526  0.000348  1.071796  0.0
H  H58  1  0.70180777  0.69661578  0.01727239  1  0.113743  0.001006  0.122538  0.097671  0.000158  1.016569  0.0
H  H59  1  0.29819393  0.30338383  0.51727163  1  0.11349  0.001007  0.122528  0.09768  0.000158  1.016491  0.0
H  H60  1  0.91959574  0.35638698  0.41722094  1  0.097179  0.000509  0.107098  0.078135  -0.000144  1.031243  0.0
H  H61  1  0.08039694  0.64360471  0.91722388  1  0.096951  0.000509  0.107102  0.078111  -0.000144  1.03122  0.0
H  H62  1  0.13746200  0.33612720  0.33286366  1  0.118573  8.8e-05  0.105746  0.119523  -1.9e-05  1.035315  0.0
H  H63  1  0.86253263  0.66386943  0.83286421  1  0.118529  8.8e-05  0.105746  0.119514  -1.9e-05  1.035306  0.0
H  H64  1  0.14553762  0.69435077  0.26274538  1  0.108719  0.000142  0.104617  0.114836  -0.000282  1.031877  0.0
H  H65  1  0.85446310  0.30565333  0.76274256  1  0.108632  0.000142  0.104606  0.114861  -0.000282  1.031957  0.0
H  H66  1  0.92838646  0.69776998  0.35008204  1  0.053722  7.3e-05  0.102966  0.066843  2e-05  1.035227  0.0
H  H67  1  0.07160938  0.30222654  0.85007876  1  0.054264  7.3e-05  0.102949  0.066765  2e-05  1.035316  0.0
H  H68  1  0.61168179  0.68304439  0.15855200  1  0.08505  0.000856  0.108186  0.078101  0.000204  1.042792  0.0
H  H69  1  0.38832136  0.31695340  0.65854853  1  0.084974  0.000856  0.108162  0.078046  0.000204  1.042856  0.0
H  H70  1  0.38201477  0.69837330  0.23601158  1  0.079123  5.2e-05  0.105896  0.11271  -3e-06  1.016515  0.0
H  H71  1  0.61798338  0.30162573  0.73601124  1  0.079114  5.2e-05  0.105925  0.11276  -3e-06  1.016451  0.0
H  H72  1  0.26308094  0.31934439  0.23542678  1  0.123539  3e-05  0.108797  0.125141  -3.1e-05  1.029608  0.0
H  H73  1  0.73691606  0.68065464  0.73542490  1  0.123558  3e-05  0.108811  0.125145  -3.1e-05  1.029585  0.0
H  H74  1  0.50135618  0.32099560  0.15957102  1  0.054676  4.2e-05  0.106577  0.072145  1.1e-05  1.019651  0.0
H  H75  1  0.49864009  0.67900218  0.65956772  1  0.05463  4.2e-05  0.106613  0.072174  1.1e-05  1.019696  0.0
C  C76  1  0.91568088  0.90166015  0.92676742  1  1.562089  0.018235  0.223838  0.569801  0.017624  4.121357  0.016
C  C77  1  0.08431957  0.09833937  0.42676863  1  1.562097  0.018235  0.223803  0.569746  0.017624  4.12146  0.016
C  C78  1  0.95362354  0.93291047  0.84483695  1  0.547008  0.004057  -0.003498  0.114604  0.00281  3.905607  0.003
C  C79  1  0.04637731  0.06708784  0.34483765  1  0.547004  0.004057  -0.003484  0.114668  0.00281  3.905585  0.003
C  C80  1  0.94987815  0.06437963  0.83591525  1  -0.058167  0.003184  -0.173174  -0.372195  0.00231  3.925259  0.002
C  C81  1  0.05012196  0.93562049  0.33591723  1  -0.058251  0.003185  -0.173173  -0.372166  0.00231  3.925199  0.002
C  C82  1  0.01928930  0.10836956  0.76144031  1  1.570035  0.009822  0.210481  0.639757  0.009387  4.150449  0.008
C  C83  1  0.98071283  0.89163105  0.26144084  1  1.570059  0.009821  0.210528  0.639762  0.009386  4.150406  0.008
C  C84  1  0.42319104  0.91924581  0.09287218  1  1.563839  0.022244  0.228075  0.647999  0.021787  4.103601  0.02
C  C85  1  0.57681046  0.08075592  0.59287301  1  1.563874  0.022244  0.22808  0.648001  0.021786  4.103664  0.02
C  C86  1  0.45689255  0.95447936  0.17331737  1  -0.055119  0.002741  -0.164125  -0.291487  0.001658  3.892345  0.001
C  C87  1  0.54310881  0.04552008  0.67331826  1  -0.055086  0.002741  -0.164073  -0.291393  0.001658  3.892212  0.001
C  C88  1  0.54078971  0.12877065  0.25615294  1  1.572678  0.005875  0.215571  0.629713  0.005347  4.139066  0.005
C  C89  1  0.45920737  0.87122824  0.75615346  1  1.572952  0.005875  0.215601  0.629688  0.005347  4.139031  0.005
C  C90  1  0.47749742  0.08902077  0.17957867  1  -0.029376  0.003331  -0.163255  -0.275913  0.002413  3.914387  0.002
C  C91  1  0.52249915  0.91097776  0.67957859  1  -0.029657  0.003332  -0.163296  -0.275886  0.002413  3.914405  0.002
C  C92  1  0.13342605  0.14723891  0.03817786  1  0.482924  0.005609  0.046439  0.090336  0.004129  3.962103  0.004
C  C93  1  0.86657432  0.85276406  0.53817674  1  0.482951  0.00561  0.046544  0.090455  0.004129  3.962176  0.004
C  C94  1  0.13906981  0.26734391  0.03524678  1  0.01024  0.001116  -0.085162  -0.178999  0.000534  3.943382  0.0
C  C95  1  0.86092896  0.73265732  0.53524657  1  0.010253  0.001116  -0.08517  -0.179067  0.000534  3.943472  0.0
C  C96  1  0.05245976  0.31956138  0.08692305  1  -0.09415  0.004571  0.0102  0.099532  0.003462  3.981794  0.003
C  C97  1  0.94753895  0.68044301  0.58692311  1  -0.09418  0.00457  0.010248  0.099692  0.003461  3.981976  0.003
C  C98  1  0.96084297  0.24542679  0.13829164  1  -0.016467  0.000968  -0.078203  -0.168257  0.000406  3.911821  0.0
C  C99  1  0.03915640  0.75457464  0.63829029  1  -0.016251  0.000967  -0.078201  -0.168257  0.000405  3.911804  0.0
C  C100  1  0.96027997  0.12583567  0.13662673  1  0.483439  0.005964  0.05814  0.114478  0.004571  3.930677  0.004
C  C101  1  0.03972077  0.87416665  0.63662669  1  0.482998  0.005964  0.058145  0.11446  0.004571  3.93059  0.004
C  C102  1  0.18159339  0.64583701  0.05788150  1  0.479992  0.006046  0.051213  0.095555  0.00442  3.9296  0.004
C  C103  1  0.81841049  0.35416583  0.55788015  1  0.479326  0.006045  0.051233  0.095546  0.004418  3.929546  0.004
C  C104  1  0.18293073  0.52660135  0.05611356  1  -0.019505  0.00149  -0.074531  -0.153196  0.000869  3.940684  0.001
C  C105  1  0.81706878  0.47340238  0.55611297  1  -0.019008  0.00149  -0.074555  -0.15319  0.00087  3.940731  0.001
C  C106  1  0.05826044  0.44721126  0.08761229  1  0.010324  0.004577  0.00981  0.09524  0.003504  3.977706  0.003
C  C107  1  0.94173804  0.55279226  0.58761106  1  0.010102  0.004574  0.009737  0.095105  0.003502  3.97798  0.003
C  C108  1  0.93792698  0.49426756  0.12022915  1  -0.036719  0.000924  -0.083248  -0.177119  0.000259  3.958609  0.0
C  C109  1  0.06207119  0.50573399  0.62022747  1  -0.036799  0.000925  -0.083201  -0.177074  0.000259  3.958604  0.0
C  C110  1  0.94598978  0.61458948  0.11985419  1  0.46409  0.005248  0.050748  0.097202  0.004372  3.951485  0.003
C  C111  1  0.05401067  0.38541207  0.61985342  1  0.464109  0.005246  0.050763  0.097218  0.00437  3.951464  0.003
C  C112  1  0.44377183  0.11656575  0.88513982  1  0.495263  0.00839  0.053482  0.103318  0.006301  3.931996  0.005
C  C113  1  0.55623028  0.88343667  0.38514150  1  0.495211  0.00839  0.053511  0.103454  0.0063  3.932065  0.005
C  C114  1  0.43707291  0.23502974  0.88519143  1  -0.067754  0.00226  -0.081449  -0.177339  0.001012  3.928774  0.001
C  C115  1  0.56293061  0.76496918  0.38519236  1  -0.072294  0.002262  -0.08145  -0.177469  0.001013  3.928766  0.001
C  C116  1  0.54101345  0.31374622  0.92964105  1  -0.051001  0.011118  0.012815  0.108244  0.008603  3.955491  0.007
C  C117  1  0.45898860  0.68625503  0.42964097  1  -0.046403  0.011115  0.012758  0.108216  0.008601  3.955485  0.007
C  C118  1  0.64740052  0.26506303  0.97275099  1  0.010051  0.001709  -0.081875  -0.170011  0.000666  3.926818  0.001
C  C119  1  0.35259917  0.73493706  0.47274951  1  0.010015  0.001708  -0.081846  -0.170005  0.000666  3.926841  0.001
C  C120  1  0.64583890  0.14543115  0.96984032  1  0.459221  0.009163  0.050213  0.093408  0.006806  3.956714  0.005
C  C121  1  0.35416056  0.85456807  0.46983959  1  0.459155  0.009161  0.050188  0.0934  0.006804  3.956751  0.005
C  C122  1  0.45283359  0.61168118  0.88236300  1  0.549228  0.008039  0.053485  0.104645  0.006159  3.935927  0.005
C  C123  1  0.54716851  0.38832126  0.38236226  1  0.549209  0.00804  0.053462  0.104643  0.00616  3.935875  0.005
C  C124  1  0.44817951  0.49166772  0.88060174  1  -0.046196  0.003113  -0.078975  -0.166853  0.00188  3.964368  0.001
C  C125  1  0.55182236  0.50833386  0.38060287  1  -0.046305  0.003112  -0.07896  -0.166927  0.001879  3.964382  0.001
C  C126  1  0.53970857  0.44083221  0.93051684  1  -0.013683  0.008497  0.005284  0.084608  0.006578  3.971102  0.005
C  C127  1  0.46029463  0.55916903  0.43051770  1  -0.013574  0.008497  0.00524  0.084675  0.006578  3.971006  0.005
C  C128  1  0.63082006  0.51702347  0.98115682  1  -0.013676  0.00269  -0.082844  -0.165866  0.001412  3.953815  0.001
C  C129  1  0.36918060  0.48297568  0.48115723  1  -0.013634  0.00269  -0.082819  -0.165841  0.001412  3.953743  0.001
C  C130  1  0.63007176  0.63620829  0.97898422  1  0.472514  0.007105  0.049825  0.095175  0.005364  3.922551  0.004
C  C131  1  0.36993118  0.36379089  0.47898333  1  0.472755  0.007105  0.049849  0.095164  0.005365  3.922444  0.004
C  C132  1  0.97408565  0.43029440  0.38267767  1  0.485257  0.000489  0.037879  0.095054  0.000279  3.972438  0.0
C  C133  1  0.02590916  0.56970190  0.88267909  1  0.484957  0.000489  0.037863  0.095002  0.000279  3.972428  0.0
C  C134  1  0.09632717  0.41896932  0.33500697  1  -0.084172  0.000383  -0.085063  -0.166159  0.000255  3.91188  0.0
C  C135  1  0.90366927  0.58102992  0.83500783  1  -0.084496  0.000383  -0.085038  -0.16606  0.000255  3.911807  0.0
C  C136  1  0.16543150  0.51511808  0.29134297  1  -0.006763  0.000233  0.004103  0.092994  0.000171  3.986595  0.0
C  C137  1  0.83456616  0.48488233  0.79134180  1  -0.006686  0.000233  0.004032  0.092933  0.000171  3.986712  0.0
C  C138  1  0.10261402  0.61731448  0.29677800  1  -0.011334  0.000411  -0.090734  -0.178853  0.000249  3.946712  0.0
C  C139  1  0.89738502  0.38268677  0.79677444  1  -0.011302  0.000411  -0.09069  -0.178905  0.000249  3.946706  0.0
C  C140  1  0.97948423  0.61926093  0.34574626  1  0.466943  0.000129  0.031971  0.079441  6.5e-05  4.016214  0.0
C  C141  1  0.02051366  0.38073474  0.84574491  1  0.466698  0.000129  0.032069  0.079661  6.5e-05  4.01598  0.0
C  C142  1  0.53233953  0.60380049  0.17705132  1  0.485038  0.00077  0.034676  0.082927  0.000539  3.989734  0.001
C  C143  1  0.46766025  0.39619718  0.67704772  1  0.485053  0.00077  0.03473  0.082981  0.000539  3.989796  0.001
C  C144  1  0.40205151  0.61217611  0.21994049  1  -0.025601  0.000233  -0.087213  -0.177781  0.000117  3.952294  0.0
C  C145  1  0.59794636  0.38782215  0.71993820  1  -0.025462  0.000233  -0.087259  -0.177858  0.000117  3.952325  0.0
C  C146  1  0.30086112  0.50974767  0.24309932  1  -0.022266  0.000325  0.006292  0.09687  0.000228  3.989718  0.0
C  C147  1  0.69913684  0.49025044  0.74309796  1  -0.022391  0.000325  0.006332  0.096915  0.000228  3.989773  0.0
C  C148  1  0.33699229  0.40258358  0.22016854  1  -0.083949  0.000158  -0.085569  -0.1769  4.2e-05  3.929731  0.0
C  C149  1  0.66300443  0.59741467  0.72016681  1  -0.083849  0.000159  -0.085611  -0.17694  4.3e-05  3.929772  0.0
C  C150  1  0.47058979  0.40342260  0.17752383  1  0.509447  0.000143  0.035732  0.084691  8.7e-05  4.00225  0.0
C  C151  1  0.52940677  0.59657594  0.67752025  1  0.509404  0.000143  0.035727  0.084652  8.7e-05  4.002347  0.0
N  N152  1  0.04573049  0.07673232  0.08795143  1  -1.262594  0.04935  -0.315563  -0.252566  0.034041  3.497722  0.018
N  N153  1  0.95426826  0.92326769  0.58795021  1  -1.262639  0.049352  -0.315643  -0.252645  0.034042  3.497916  0.018
N  N154  1  0.06501341  0.69024262  0.08909715  1  -1.269718  0.04903  -0.315748  -0.246765  0.033582  3.476484  0.017
N  N155  1  0.93498760  0.30976176  0.58909553  1  -1.269401  0.049025  -0.315761  -0.246797  0.03358  3.476552  0.017
N  N156  1  0.54643635  0.07112622  0.92652062  1  -1.264309  0.051339  -0.315593  -0.251181  0.033521  3.496328  0.018
N  N157  1  0.45356525  0.92887329  0.42652036  1  -1.264327  0.051338  -0.31563  -0.251261  0.03352  3.496468  0.018
N  N158  1  0.54337419  0.68410460  0.92998966  1  -1.255968  0.052112  -0.315861  -0.245624  0.034386  3.482877  0.019
N  N159  1  0.45662649  0.31589577  0.42998902  1  -1.255938  0.052113  -0.315845  -0.245598  0.034386  3.482866  0.019
N  N160  1  0.91608874  0.52877926  0.38921758  1  -1.20946  0.000636  -0.32486  -0.27682  0.000417  3.369665  0.0
N  N161  1  0.08390658  0.47121436  0.88921770  1  -1.208794  0.000636  -0.324938  -0.276923  0.000417  3.369565  0.0
N  N162  1  0.56889811  0.50133663  0.15623281  1  -1.214157  0.000489  -0.322963  -0.2749  0.000251  3.354361  0.0
N  N163  1  0.43110274  0.49866118  0.65622940  1  -1.214216  0.000489  -0.322996  -0.274878  0.000251  3.354404  0.0
O  O164  1  0.78038040  0.90245024  0.95107882  1  -1.214288  0.061923  -0.300367  -0.53997  0.044672  2.36375  0.03
O  O165  1  0.21962106  0.09754824  0.45107965  1  -1.214312  0.061921  -0.300381  -0.539988  0.044673  2.363813  0.03
O  O166  1  0.28771130  0.82877809  0.90798274  1  -1.317298  0.067651  -0.583478  -0.798798  0.0502  2.234197  0.031
O  O167  1  0.71229001  0.17122067  0.40798343  1  -1.317318  0.067651  -0.583498  -0.798788  0.050199  2.23417  0.031
O  O168  1  0.02815827  0.88095293  0.96755278  1  -1.210111  0.063901  -0.30146  -0.553208  0.045269  2.362108  0.03
O  O169  1  0.97184393  0.11904807  0.46755285  1  -1.210129  0.063904  -0.301418  -0.553154  0.045268  2.362171  0.03
O  O170  1  0.79817658  0.83918711  0.11448034  1  -1.320295  0.064062  -0.58099  -0.791238  0.047816  2.217303  0.03
O  O171  1  0.20182614  0.16081448  0.61447877  1  -1.32015  0.064065  -0.580985  -0.791302  0.047817  2.217328  0.03
O  O172  1  0.16775004  0.12844221  0.75579687  1  -1.19759  0.007493  -0.332025  -0.578845  0.004758  2.148868  0.005
O  O173  1  0.83225070  0.87155756  0.25579783  1  -1.197552  0.007492  -0.332026  -0.57884  0.004757  2.148921  0.005
O  O174  1  0.92431066  0.11901987  0.70887624  1  -1.214657  0.058773  -0.320134  -0.572914  0.042173  2.279219  0.028
O  O175  1  0.07569445  0.88098460  0.20887674  1  -1.214692  0.058782  -0.320192  -0.572941  0.042172  2.279103  0.028
O  O176  1  0.85291334  0.86038313  0.79483627  1  -1.1573  0.001466  -0.408342  -0.509518  0.000694  2.275892  0.001
O  O177  1  0.14708640  0.13961638  0.29483632  1  -1.157283  0.001466  -0.408352  -0.509541  0.000694  2.275902  0.001
O  O178  1  0.53270662  0.88727904  0.05468205  1  -1.208613  0.066665  -0.307055  -0.57138  0.047495  2.336614  0.031
O  O179  1  0.46729337  0.11272207  0.55468208  1  -1.208587  0.066664  -0.307064  -0.571405  0.047495  2.336622  0.031
O  O180  1  0.29284099  0.92682912  0.06463397  1  -1.217306  0.061922  -0.30339  -0.552843  0.04379  2.326952  0.026
O  O181  1  0.70716019  0.07317193  0.56463500  1  -1.217334  0.06192  -0.303404  -0.552851  0.043791  2.327097  0.026
O  O182  1  0.68616157  0.16598972  0.26348831  1  -1.192371  0.004662  -0.319139  -0.555656  0.002593  2.146503  0.003
O  O183  1  0.31383695  0.83400562  0.76348875  1  -1.192426  0.004663  -0.319138  -0.555618  0.002593  2.146624  0.003
O  O184  1  0.44216434  0.11817495  0.31015208  1  -1.228484  0.051182  -0.31127  -0.579442  0.037888  2.335275  0.026
O  O185  1  0.55783430  0.88182446  0.81015213  1  -1.228461  0.051182  -0.311309  -0.579508  0.037889  2.335215  0.026
