# generated using pymatgen
data_Al3H25(C27O7)2
_symmetry_space_group_name_H-M   'P 1'
_cell_length_a   12.55882644
_cell_length_b   12.56652797
_cell_length_c   27.02257450
_cell_angle_alpha   89.97886490
_cell_angle_beta   90.06230184
_cell_angle_gamma   120.64868065
_symmetry_Int_Tables_number   1
_chemical_formula_structural   Al3H25(C27O7)2
_chemical_formula_sum   'Al6 H50 C108 O28'
_cell_volume   3668.98040240
_cell_formula_units_Z   2
loop_
 _symmetry_equiv_pos_site_id
 _symmetry_equiv_pos_as_xyz
  1  'x, y, z'
loop_
 _atom_site_type_symbol
 _atom_site_label
 _atom_site_symmetry_multiplicity
 _atom_site_fract_x
 _atom_site_fract_y
 _atom_site_fract_z
 _atom_site_occupancy
 _atom_site_pbe_bader_charge
 _atom_site_pbe_bader_spin_density
 _atom_site_pbe_cm5_charge
 _atom_site_pbe_ddec_charge
 _atom_site_pbe_ddec_spin_density
 _atom_site_pbe_ddec_sum_bond_order
 _atom_site_pbe_magmom
Al  Al0  1  0.47033867  0.23297119  0.74895217  1  2.486092  0  0.392645  1.690042  0  2.559471  0
Al  Al1  1  0.73360051  0.48414600  0.74997041  1  2.469241  0  0.502662  1.663419  0  2.510775  0
Al  Al2  1  0.73157554  0.24464731  0.74995545  1  2.474825  0  0.505775  1.66147  0  2.502678  0
Al  Al3  1  0.23370530  0.47019483  0.25085324  1  2.494297  0  0.393818  1.690367  0  2.556987  0
Al  Al4  1  0.48443405  0.73386359  0.25012942  1  2.455214  0  0.501851  1.661676  0  2.513869  0
Al  Al5  1  0.24474896  0.73150191  0.25015368  1  2.475361  0  0.50588  1.663529  0  2.499146  0
H  H6  1  0.02103702  0.78352583  0.04206877  1  0.037311  0  0.100057  0.097545  0  1.00584  0
H  H7  1  0.76118178  0.97702308  0.45169599  1  0.063263  0  0.100695  0.098565  0  1.00432  0
H  H8  1  0.22316081  0.24259896  0.04549749  1  0.054045  0  0.100223  0.097743  0  1.003605  0
H  H9  1  0.02042802  0.78556200  0.45902174  1  0.054478  0  0.100101  0.097589  0  1.00546  0
H  H10  1  0.76022580  0.97666871  0.04814682  1  0.070702  0  0.099891  0.097233  0  1.006255  0
H  H11  1  0.22209771  0.24178752  0.45469523  1  0.048527  0  0.101206  0.099282  0  1.002077  0
H  H12  1  0.78534506  0.02079021  0.54154723  1  0.053477  0  0.100146  0.097398  0  1.004935  0
H  H13  1  0.97697479  0.75991235  0.95224659  1  0.023999  0  0.100124  0.097853  0  1.005981  0
H  H14  1  0.24197414  0.22251292  0.54520257  1  0.032857  0  0.101453  0.099669  0  1.002091  0
H  H15  1  0.78412394  0.02071884  0.95837588  1  0.052451  0  0.099921  0.097477  0  1.006128  0
H  H16  1  0.97676542  0.76099296  0.54884403  1  0.047267  0  0.100922  0.098747  0  1.004571  0
H  H17  1  0.24216674  0.22250990  0.95505889  1  0.042978  0  0.099386  0.096839  0  1.005232  0
H  H18  1  0.06687756  0.36626231  0.12095961  1  0.073424  0  0.110844  0.118875  0  1.000559  0
H  H19  1  0.29288768  0.92794098  0.37589118  1  0.098768  0  0.1096  0.115692  0  1.001663  0
H  H20  1  0.64702407  0.71139364  0.12277443  1  0.084682  0  0.106834  0.111509  0  1.007066  0
H  H21  1  0.06694730  0.36967883  0.37903619  1  0.108828  0  0.114822  0.124855  0  0.994977  0
H  H22  1  0.29229564  0.92785143  0.12392685  1  0.094476  0  0.109406  0.115229  0  1.001711  0
H  H23  1  0.64579812  0.70947962  0.37687409  1  0.083384  0  0.106864  0.111851  0  1.005846  0
H  H24  1  0.36823740  0.06619678  0.62099358  1  0.100378  0  0.115713  0.126532  0  0.991871  0
H  H25  1  0.92752913  0.29229219  0.87603633  1  0.095227  0  0.109054  0.114769  0  1.002695  0
H  H26  1  0.71048355  0.64647465  0.62274522  1  0.084437  0  0.106931  0.112097  0  1.006019  0
H  H27  1  0.36685677  0.06647445  0.87908338  1  0.081436  0  0.11009  0.115751  0  1.003755  0
H  H28  1  0.92791146  0.29268026  0.62396452  1  0.098957  0  0.109314  0.115384  0  1.001708  0
H  H29  1  0.70993494  0.64561317  0.87691120  1  0.07903  0  0.106894  0.113369  0  1.004527  0
H  H30  1  0.06516851  0.70692489  0.12044694  1  0.080545  0  0.107784  0.112733  0  1.004541  0
H  H31  1  0.63475032  0.92739528  0.37482668  1  0.092882  0  0.109298  0.114927  0  1.002699  0
H  H32  1  0.30260999  0.36630210  0.12308533  1  0.096501  0  0.112556  0.120288  0  0.999591  0
H  H33  1  0.06520422  0.71035115  0.38050741  1  0.10483  0  0.107134  0.112383  0  1.004435  0
H  H34  1  0.63376311  0.92674626  0.12512226  1  0.085909  0  0.108516  0.11384  0  1.004627  0
H  H35  1  0.30115593  0.36424101  0.37685374  1  0.097069  0  0.115731  0.126283  0  0.991767  0
H  H36  1  0.70958135  0.06537536  0.61992046  1  0.096556  0  0.107227  0.112285  0  1.004269  0
H  H37  1  0.92691601  0.63379593  0.87522005  1  0.096274  0  0.109092  0.114731  0  1.003663  0
H  H38  1  0.36528053  0.30177717  0.62290712  1  0.111985  0  0.11561  0.126331  0  0.991476  0
H  H39  1  0.70794467  0.06534289  0.87991566  1  0.092782  0  0.10754  0.112726  0  1.00457  0
H  H40  1  0.92743057  0.63437227  0.62559880  1  0.085358  0  0.109844  0.116002  0  1.001982  0
H  H41  1  0.36485601  0.30117137  0.87733623  1  0.098913  0  0.11008  0.116412  0  1.002994  0
H  H42  1  0.02314330  0.24325876  0.04339931  1  0.049985  0  0.100655  0.098632  0  1.003584  0
H  H43  1  0.22008144  0.97819813  0.45351864  1  0.051098  0  0.100457  0.09792  0  1.004521  0
H  H44  1  0.77026019  0.78921786  0.04489841  1  0.018578  0  0.099151  0.096154  0  1.0068  0
H  H45  1  0.02266887  0.24537128  0.45635898  1  0.061259  0  0.101964  0.100405  0  1.001877  0
H  H46  1  0.21937952  0.97823518  0.04636289  1  0.05583  0  0.100328  0.098009  0  1.004586  0
H  H47  1  0.76928644  0.78845943  0.45464015  1  0.029593  0  0.099505  0.096432  0  1.006329  0
H  H48  1  0.24453533  0.02246728  0.54344059  1  0.06502  0  0.102485  0.101078  0  1.001038  0
H  H49  1  0.97832565  0.21927493  0.95353145  1  0.053828  0  0.100042  0.097583  0  1.004813  0
H  H50  1  0.78858673  0.76968447  0.54497892  1  0.026749  0  0.099668  0.096795  0  1.00623  0
H  H51  1  0.24352877  0.02274617  0.95649169  1  0.052034  0  0.100228  0.097697  0  1.004329  0
H  H52  1  0.97819090  0.22037461  0.54623550  1  0.053976  0  0.100709  0.098623  0  1.004596  0
H  H53  1  0.78890231  0.76951973  0.95462028  1  0.024212  0  0.098969  0.095791  0  1.006829  0
H  H54  1  0.26574233  0.11997197  0.77804011  1  0.576884  0  0.284216  0.370375  0  0.942517  0
H  H55  1  0.08276139  0.26578784  0.23060203  1  0.559897  0  0.284396  0.371764  0  0.940707  0
C  C56  1  0.55850775  0.44608108  0.82085383  1  1.560651  0  0.271806  0.643679  0  4.084402  0
C  C57  1  0.87702479  0.43710200  0.68104082  1  1.53234  0  0.277466  0.651598  0  4.069807  0
C  C58  1  0.55696375  0.10947197  0.82203736  1  1.560965  0  0.270946  0.643636  0  4.080168  0
C  C59  1  0.55954995  0.44726127  0.67895336  1  1.554331  0  0.274401  0.640159  0  4.089774  0
C  C60  1  0.87635347  0.43698873  0.81934060  1  1.537385  0  0.27742  0.651985  0  4.069671  0
C  C61  1  0.55889137  0.11016402  0.67761704  1  1.564344  0  0.273462  0.63766  0  4.086293  0
C  C62  1  0.44701128  0.55809975  0.32064403  1  1.548602  0  0.274283  0.639092  0  4.089374  0
C  C63  1  0.43666684  0.87642663  0.18080308  1  1.533513  0  0.276974  0.650368  0  4.072355  0
C  C64  1  0.11076267  0.56020940  0.32263572  1  1.569188  0  0.271148  0.639208  0  4.085074  0
C  C65  1  0.44753265  0.56039035  0.17908748  1  1.552932  0  0.270985  0.640902  0  4.088378  0
C  C66  1  0.43778747  0.87707686  0.31909955  1  1.522298  0  0.277643  0.651322  0  4.070476  0
C  C67  1  0.10860598  0.55580751  0.17827215  1  1.554293  0  0.27169  0.64495  0  4.079642  0
C  C68  1  0.98599388  0.49413651  0.97209600  1  -0.062816  0  0.009844  0.011599  0  3.894661  0
C  C69  1  0.50972699  0.01213733  0.52338362  1  -0.031283  0  0.009078  0.008325  0  3.897765  0
C  C70  1  0.51189632  0.50016368  0.97417326  1  -0.050415  0  0.007901  0.008718  0  3.901964  0
C  C71  1  0.98570085  0.49543261  0.52832604  1  -0.013335  0  0.009806  0.011229  0  3.894504  0
C  C72  1  0.50870388  0.01217506  0.97652530  1  -0.048874  0  0.009294  0.009239  0  3.896587  0
C  C73  1  0.51150187  0.49989400  0.52571843  1  -0.061896  0  0.008202  0.008383  0  3.902647  0
C  C74  1  0.49529617  0.98587062  0.47183025  1  -0.009916  0  0.009926  0.011554  0  3.894607  0
C  C75  1  0.01240510  0.50824673  0.02365203  1  0.000407  0  0.009514  0.007776  0  3.898155  0
C  C76  1  0.49970690  0.51134362  0.47400916  1  -0.000535  0  0.008496  0.009046  0  3.901442  0
C  C77  1  0.49440675  0.98578922  0.02806951  1  -0.016284  0  0.009746  0.010389  0  3.895813  0
C  C78  1  0.01199365  0.51014802  0.47678187  1  -0.017903  0  0.008697  0.008248  0  3.896799  0
C  C79  1  0.50046937  0.51217969  0.02585058  1  -0.025715  0  0.00846  0.008807  0  3.902092  0
C  C80  1  0.98676152  0.69046512  0.97264201  1  -0.007411  0  -0.087982  -0.127075  0  4.0153  0
C  C81  1  0.70526165  0.01123136  0.52170125  1  -0.051529  0  -0.08744  -0.125452  0  4.017459  0
C  C82  1  0.31325593  0.30226554  0.97536955  1  -0.113664  0  -0.089605  -0.129553  0  4.025272  0
C  C83  1  0.98640839  0.69175764  0.52826292  1  -0.028297  0  -0.087878  -0.126767  0  4.015086  0
C  C84  1  0.70411865  0.01118515  0.97820047  1  -0.042295  0  -0.08818  -0.126524  0  4.01648  0
C  C85  1  0.31283991  0.30202048  0.52475837  1  -0.025469  0  -0.088306  -0.128254  0  4.022386  0
C  C86  1  0.69180923  0.98668523  0.47218147  1  -0.045581  0  -0.087664  -0.126668  0  4.015232  0
C  C87  1  0.01147855  0.70363231  0.02216125  1  -0.055704  0  -0.087971  -0.126334  0  4.016655  0
C  C88  1  0.30176630  0.31276564  0.47508098  1  0.021149  0  -0.087993  -0.127795  0  4.022041  0
C  C89  1  0.69077691  0.98645623  0.02771019  1  -0.057963  0  -0.088235  -0.126715  0  4.014741  0
C  C90  1  0.01091784  0.70544220  0.47875112  1  -0.048726  0  -0.087722  -0.126184  0  4.018377  0
C  C91  1  0.30260567  0.31347537  0.02502254  1  -0.015688  0  -0.08887  -0.127144  0  4.021968  0
C  C92  1  0.94139133  0.56726761  0.89552760  1  -0.070805  0  -0.075177  -0.133956  0  3.919606  0
C  C93  1  0.62865928  0.05299989  0.59984877  1  -0.05841  0  -0.076515  -0.138764  0  3.92692  0
C  C94  1  0.43326544  0.38222819  0.89776082  1  -0.062149  0  -0.076067  -0.136124  0  3.927168  0
C  C95  1  0.94159859  0.56790777  0.60512111  1  -0.06754  0  -0.07515  -0.134661  0  3.919377  0
C  C96  1  0.62716528  0.05300440  0.90001598  1  -0.04328  0  -0.076604  -0.138122  0  3.923872  0
C  C97  1  0.43345048  0.38259671  0.60230189  1  -0.075168  0  -0.072867  -0.134817  0  3.916625  0
C  C98  1  0.56821194  0.94172072  0.39518111  1  -0.010349  0  -0.075343  -0.134327  0  3.922031  0
C  C99  1  0.05293265  0.62630181  0.10027161  1  -0.040059  0  -0.07605  -0.136893  0  3.92433  0
C  C100  1  0.38206676  0.43257598  0.39742803  1  0.010073  0  -0.072361  -0.135141  0  3.917173  0
C  C101  1  0.56731579  0.94128726  0.10473816  1  -0.067754  0  -0.075184  -0.133533  0  3.920035  0
C  C102  1  0.05295722  0.62944462  0.40047484  1  -0.071143  0  -0.076535  -0.138755  0  3.926449  0
C  C103  1  0.38331669  0.43443808  0.10243294  1  -0.051759  0  -0.07407  -0.134435  0  3.920485  0
C  C104  1  0.06745144  0.53717329  0.12551586  1  -0.002201  0  -0.015728  -0.040811  0  4.007468  0
C  C105  1  0.46261579  0.92531301  0.37057653  1  -0.011254  0  -0.017957  -0.049281  0  4.021503  0
C  C106  1  0.47324950  0.54005786  0.12728981  1  0.017616  0  -0.01654  -0.041262  0  4.018653  0
C  C107  1  0.06815110  0.54095343  0.37513113  1  0.010877  0  -0.015527  -0.039979  0  4.007403  0
C  C108  1  0.46178097  0.92489279  0.12930841  1  0.059218  0  -0.017119  -0.0476  0  4.016057  0
C  C109  1  0.47213349  0.53789013  0.37249695  1  -0.026695  0  -0.016813  -0.044324  0  4.027287  0
C  C110  1  0.53980581  0.06782874  0.62508968  1  -0.013701  0  -0.014953  -0.04023  0  4.011569  0
C  C111  1  0.92487454  0.46184278  0.87085113  1  -0.008227  0  -0.017421  -0.047926  0  4.016258  0
C  C112  1  0.53903565  0.47268964  0.62717961  1  0.014015  0  -0.016814  -0.044526  0  4.025894  0
C  C113  1  0.53816471  0.06772197  0.87471319  1  0.007984  0  -0.015207  -0.040455  0  4.005741  0
C  C114  1  0.92520793  0.46223216  0.62956696  1  0.043664  0  -0.017735  -0.04869  0  4.019494  0
C  C115  1  0.53848362  0.47190332  0.87267802  1  0.050391  0  -0.016632  -0.042076  0  4.019814  0
C  C116  1  0.97200297  0.58523817  0.94592175  1  0.045005  0  -0.004225  0.078083  0  4.033822  0
C  C117  1  0.61542658  0.02518486  0.54910795  1  0.023314  0  -0.005096  0.077432  0  4.031554  0
C  C118  1  0.41812069  0.39430074  0.94832514  1  0.05284  0  -0.005378  0.077251  0  4.042879  0
C  C119  1  0.97182456  0.58626016  0.55473160  1  0.035076  0  -0.003908  0.078684  0  4.033954  0
C  C120  1  0.61424742  0.02524896  0.95076855  1  -0.001514  0  -0.00455  0.077711  0  4.029796  0
C  C121  1  0.41794882  0.39427783  0.55170480  1  -0.018191  0  -0.00498  0.076721  0  4.042499  0
C  C122  1  0.58635887  0.97203929  0.44557326  1  0.046315  0  -0.00446  0.077808  0  4.0355  0
C  C123  1  0.02543375  0.61364789  0.04949479  1  0.032806  0  -0.005121  0.077536  0  4.030312  0
C  C124  1  0.39394126  0.41760348  0.44806371  1  -0.004946  0  -0.005344  0.076811  0  4.041315  0
C  C125  1  0.58545932  0.97179546  0.05434861  1  0.045449  0  -0.004794  0.077152  0  4.034873  0
C  C126  1  0.02498383  0.61588722  0.45120054  1  0.022608  0  -0.005025  0.076943  0  4.031635  0
C  C127  1  0.39490770  0.41870513  0.05188171  1  0.023068  0  -0.005636  0.076332  0  4.042813  0
C  C128  1  0.94162549  0.37388309  0.89597188  1  0.010566  0  -0.075361  -0.135152  0  3.921723  0
C  C129  1  0.43524268  0.05333416  0.60022541  1  -0.026496  0  -0.071496  -0.133748  0  3.909686  0
C  C130  1  0.62883506  0.57741964  0.89735368  1  -0.054714  0  -0.07846  -0.141179  0  3.933912  0
C  C131  1  0.94178135  0.37443753  0.60421687  1  -0.057427  0  -0.07536  -0.135472  0  3.920536  0
C  C132  1  0.43399615  0.05342464  0.89969290  1  -0.016939  0  -0.074887  -0.133641  0  3.921362  0
C  C133  1  0.62918076  0.57803983  0.60240731  1  -0.009287  0  -0.078152  -0.139929  0  3.935331  0
C  C134  1  0.37461529  0.94189129  0.39576792  1  -0.055055  0  -0.07546  -0.135233  0  3.920715  0
C  C135  1  0.05352920  0.43327798  0.10043730  1  0.003455  0  -0.074577  -0.136502  0  3.920603  0
C  C136  1  0.57750783  0.62833485  0.39726061  1  -0.045638  0  -0.078092  -0.139731  0  3.936158  0
C  C137  1  0.37391665  0.94170693  0.10407863  1  -0.056409  0  -0.075478  -0.134776  0  3.920994  0
C  C138  1  0.05370437  0.43636237  0.39986529  1  -0.053341  0  -0.072189  -0.133276  0  3.908219  0
C  C139  1  0.57858373  0.63007223  0.10247494  1  -0.026815  0  -0.078671  -0.14017  0  3.935431  0
C  C140  1  0.97227303  0.38828604  0.94638152  1  -0.018282  0  -0.004323  0.077271  0  4.033317  0
C  C141  1  0.41841333  0.02556210  0.54962689  1  -0.001404  0  -0.003837  0.078143  0  4.036856  0
C  C142  1  0.61735177  0.59341313  0.94800779  1  0.015776  0  -0.005718  0.076659  0  4.038571  0
C  C143  1  0.97213930  0.38931107  0.55379735  1  -0.013573  0  -0.004032  0.077862  0  4.033244  0
C  C144  1  0.41734748  0.02571393  0.95028723  1  0.022477  0  -0.00501  0.077429  0  4.038553  0
C  C145  1  0.61718223  0.59351217  0.55174788  1  -0.019658  0  -0.005933  0.076739  0  4.038624  0
C  C146  1  0.38922074  0.97225219  0.44620135  1  -0.008223  0  -0.004151  0.077162  0  4.033275  0
C  C147  1  0.02596657  0.41687337  0.04980177  1  0.008859  0  -0.005119  0.07868  0  4.037384  0
C  C148  1  0.59319453  0.61683861  0.44793397  1  0.009603  0  -0.005674  0.076691  0  4.040647  0
C  C149  1  0.38845959  0.97219751  0.05367447  1  -0.019365  0  -0.004246  0.077074  0  4.03419  0
C  C150  1  0.02563285  0.41912832  0.45041919  1  -0.009261  0  -0.004074  0.077523  0  4.036064  0
C  C151  1  0.59406649  0.61790620  0.05182892  1  0.016013  0  -0.005619  0.077313  0  4.039525  0
C  C152  1  0.01267529  0.31230344  0.02301041  1  -0.027364  0  -0.086506  -0.125003  0  4.014856  0
C  C153  1  0.29988996  0.98737770  0.47345895  1  -0.048599  0  -0.087824  -0.126782  0  4.017337  0
C  C154  1  0.69884117  0.70956201  0.02467943  1  -0.043066  0  -0.090029  -0.129197  0  4.026268  0
C  C155  1  0.01225737  0.31414980  0.47694772  1  -0.041598  0  -0.086131  -0.123987  0  4.012395  0
C  C156  1  0.29910758  0.98746713  0.02642318  1  -0.047956  0  -0.087867  -0.127095  0  4.017449  0
C  C157  1  0.69810787  0.70894434  0.47496584  1  0.024637  0  -0.089902  -0.128532  0  4.025229  0
C  C158  1  0.31351796  0.01217905  0.52294248  1  -0.030555  0  -0.086271  -0.124812  0  4.013197  0
C  C159  1  0.98761045  0.29893418  0.97353773  1  -0.04466  0  -0.0884  -0.127785  0  4.018103  0
C  C160  1  0.70901339  0.69834623  0.52468167  1  -0.027335  0  -0.089598  -0.128366  0  4.024571  0
C  C161  1  0.31259793  0.01237387  0.97695604  1  -0.03374  0  -0.086874  -0.124457  0  4.016244  0
C  C162  1  0.98734967  0.30022019  0.52640799  1  -0.031439  0  -0.088252  -0.128305  0  4.017978  0
C  C163  1  0.70941389  0.69841670  0.97498386  1  0.026796  0  -0.090167  -0.128965  0  4.025028  0
O  O164  1  0.47733811  0.12978053  0.80278365  1  -1.247271  0  -0.219933  -0.578567  0  2.362703  0
O  O165  1  0.66068641  0.52847185  0.70054419  1  -1.270446  0  -0.250926  -0.617741  0  2.283346  0
O  O166  1  0.85301070  0.33513617  0.79915167  1  -1.262951  0  -0.235826  -0.599085  0  2.303098  0
O  O167  1  0.48030680  0.13255402  0.69623805  1  -1.241928  0  -0.211936  -0.555604  0  2.362736  0
O  O168  1  0.65923904  0.52747999  0.79922141  1  -1.281676  0  -0.25056  -0.614967  0  2.280384  0
O  O169  1  0.85328584  0.33492172  0.70110964  1  -1.272402  0  -0.236557  -0.600672  0  2.303488  0
O  O170  1  0.13364997  0.48194791  0.30407225  1  -1.24447  0  -0.216134  -0.56951  0  2.373277  0
O  O171  1  0.52918293  0.66111609  0.20077457  1  -1.275164  0  -0.251351  -0.616257  0  2.279284  0
O  O172  1  0.33583912  0.85358755  0.29881511  1  -1.270618  0  -0.236072  -0.600303  0  2.304946  0
O  O173  1  0.12782858  0.47565895  0.19778570  1  -1.250145  0  -0.222028  -0.58319  0  2.357855  0
O  O174  1  0.52773757  0.65981850  0.29942296  1  -1.270116  0  -0.249762  -0.617012  0  2.289006  0
O  O175  1  0.33431342  0.85239832  0.20076123  1  -1.26372  0  -0.235497  -0.598256  0  2.302472  0
O  O176  1  0.47906058  0.34364670  0.80231445  1  -1.250024  0  -0.219829  -0.57787  0  2.37133  0
O  O177  1  0.85481073  0.51576890  0.70145881  1  -1.267225  0  -0.236373  -0.601678  0  2.308844  0
O  O178  1  0.65632693  0.12746484  0.80017980  1  -1.269363  0  -0.249557  -0.612682  0  2.271862  0
O  O179  1  0.48002328  0.34516149  0.69760506  1  -1.247945  0  -0.211543  -0.553008  0  2.361551  0
O  O180  1  0.85371824  0.51567131  0.79923458  1  -1.26099  0  -0.23581  -0.600147  0  2.308804  0
O  O181  1  0.65723864  0.12661466  0.70010044  1  -1.277169  0  -0.251881  -0.616012  0  2.271311  0
O  O182  1  0.34567881  0.47779259  0.30155949  1  -1.250784  0  -0.209404  -0.545666  0  2.349881  0
O  O183  1  0.51562409  0.85447513  0.20115547  1  -1.257556  0  -0.236386  -0.600394  0  2.310637  0
O  O184  1  0.12694282  0.65835664  0.30011514  1  -1.274428  0  -0.252267  -0.617049  0  2.266985  0
O  O185  1  0.34495659  0.48121774  0.19747492  1  -1.246024  0  -0.2155  -0.56837  0  2.370852  0
O  O186  1  0.51652774  0.85459316  0.29888510  1  -1.254816  0  -0.237233  -0.601982  0  2.308542  0
O  O187  1  0.12722223  0.65543363  0.19998805  1  -1.267491  0  -0.248703  -0.611758  0  2.274374  0
O  O188  1  0.64737245  0.32151054  0.75003294  1  -1.607489  0  -0.391055  -1.261678  0  2.283659  0
O  O189  1  0.32166042  0.64730886  0.25002611  1  -1.607854  0  -0.391187  -1.261257  0  2.280728  0
O  O190  1  0.30741728  0.15062279  0.74674281  1  -1.374789  0  -0.584138  -0.998438  0  1.803471  0
O  O191  1  0.15292967  0.30736258  0.25262168  1  -1.359361  0  -0.585576  -1.001032  0  1.800533  0
