# generated using pymatgen
data_LaH10C6O11
_symmetry_space_group_name_H-M   'P 1'
_cell_length_a   6.23533333
_cell_length_b   7.35094275
_cell_length_c   12.32205358
_cell_angle_alpha   73.84301382
_cell_angle_beta   88.15513454
_cell_angle_gamma   89.41250488
_symmetry_Int_Tables_number   1
_chemical_formula_structural   LaH10C6O11
_chemical_formula_sum   'La2 H20 C12 O22'
_cell_volume   542.19924076
_cell_formula_units_Z   2
loop_
 _symmetry_equiv_pos_site_id
 _symmetry_equiv_pos_as_xyz
  1  'x, y, z'
loop_
 _atom_site_type_symbol
 _atom_site_label
 _atom_site_symmetry_multiplicity
 _atom_site_fract_x
 _atom_site_fract_y
 _atom_site_fract_z
 _atom_site_occupancy
 _atom_site_hle17_bader_spin_density
 _atom_site_hle17_ddec_charge
 _atom_site_hle17_ddec_spin_density
 _atom_site_hle17_ddec_sum_bond_order
 _atom_site_hle17_magmom
 _atom_site_hse06_10hf_bader_spin_density
 _atom_site_hse06_10hf_ddec_charge
 _atom_site_hse06_10hf_ddec_spin_density
 _atom_site_hse06_10hf_ddec_sum_bond_order
 _atom_site_hse06_10hf_magmom
 _atom_site_hse06_bader_spin_density
 _atom_site_hse06_ddec_charge
 _atom_site_hse06_ddec_spin_density
 _atom_site_hse06_ddec_sum_bond_order
 _atom_site_hse06_magmom
 _atom_site_pbe_bader_spin_density
 _atom_site_pbe_cm5_charge
 _atom_site_pbe_ddec_charge
 _atom_site_pbe_ddec_spin_density
 _atom_site_pbe_ddec_sum_bond_order
 _atom_site_pbe_magmom
La  La0  1  0.59563125  0.07597016  0.55987817  1  0  2.110006  0  1.721174  0  0  1.988312  0  2.212987  0  0  2.085508  0  2.11642  0  0  1.379404  1.915395  0  2.280612  0
La  La1  1  0.75121915  0.76392091  0.13862841  1  0  2.1094  0  1.74647  0  0  1.988333  0  2.242513  0  0  2.084301  0  2.146181  0  0  1.378415  1.916216  0  2.310348  0
H  H2  1  0.14062371  0.60309878  0.40820623  1  0  0.105017  0  0.888949  0  0  0.111168  0  0.946348  0  0  0.113958  0  0.943879  0  0  0.128794  0.109065  0  0.94843  0
H  H3  1  0.02286623  0.59936430  0.59018280  1  0  0.080394  0  0.911336  0  0  0.087938  0  0.974829  0  0  0.090116  0  0.972566  0  0  0.122335  0.086306  0  0.976684  0
H  H4  1  0.22263164  0.15640262  0.29327624  1  0  0.09845  0  0.889311  0  0  0.105962  0  0.947268  0  0  0.108833  0  0.944593  0  0  0.12694  0.103793  0  0.949513  0
H  H5  1  0.32501604  0.32946830  0.10805515  1  0  0.076595  0  0.956467  0  0  0.080069  0  1.024175  0  0  0.082946  0  1.021181  0  0  0.115537  0.07792  0  1.026581  0
H  H6  1  0.32277823  0.63430289  0.92922937  1  0  0.08423  0  0.913457  0  0  0.090119  0  0.975957  0  0  0.092817  0  0.973572  0  0  0.121014  0.088058  0  0.97795  0
H  H7  1  0.04901647  0.63135766  0.77003078  1  0  0.090238  0  0.901514  0  0  0.098818  0  0.960144  0  0  0.100331  0  0.959167  0  0  0.127746  0.097657  0  0.961038  0
H  H8  1  0.86504534  0.92502762  0.33365558  1  0  0.370207  0  0.938869  0  0  0.344235  0  1.012005  0  0  0.355725  0  1.000132  0  0  0.301535  0.336113  0  1.020302  0
H  H9  1  0.68390550  0.65281050  0.61715139  1  0  0.38595  0  0.924872  0  0  0.355033  0  1.003786  0  0  0.367274  0  0.986611  0  0  0.302745  0.346464  0  1.012622  0
H  H10  1  0.49367791  0.41216922  0.36465890  1  0  0.374256  0  0.924165  0  0  0.347945  0  0.997456  0  0  0.359571  0  0.985669  0  0  0.304939  0.339737  0  1.005654  0
H  H11  1  0.68046315  0.38605491  0.09052085  1  0  0.387733  0  0.905913  0  0  0.356459  0  0.986129  0  0  0.368827  0  0.972689  0  0  0.306615  0.347685  0  0.995593  0
H  H12  1  0.55768480  0.35437923  0.93978297  1  0  0.378263  0  0.887004  0  0  0.353827  0  0.959669  0  0  0.363025  0  0.949508  0  0  0.309508  0.347335  0  0.966892  0
H  H13  1  0.15234580  0.24354454  0.86286716  1  0  0.386501  0  0.840321  0  0  0.367365  0  0.900338  0  0  0.376636  0  0.889303  0  0  0.326391  0.360593  0  0.908553  0
H  H14  1  0.23082041  0.30059509  0.68120670  1  0  0.422181  0  0.876334  0  0  0.391286  0  0.939996  0  0  0.402566  0  0.923406  0  0  0.298622  0.383126  0  0.951983  0
H  H15  1  0.15611706  0.19197497  0.59311671  1  0  0.429385  0  0.874024  0  0  0.397674  0  0.940069  0  0  0.409937  0  0.922209  0  0  0.300196  0.388856  0  0.952863  0
H  H16  1  0.62593020  0.29936855  0.74466323  1  0  0.430666  0  0.873637  0  0  0.393499  0  0.948185  0  0  0.405386  0  0.931045  0  0  0.299879  0.385026  0  0.960378  0
H  H17  1  0.84760469  0.20723950  0.75981408  1  0  0.426912  0  0.850723  0  0  0.401717  0  0.912016  0  0  0.411978  0  0.89706  0  0  0.314018  0.394285  0  0.922852  0
H  H18  1  0.43843766  0.02447982  0.97177123  1  0  0.427608  0  0.842536  0  0  0.402489  0  0.910533  0  0  0.412389  0  0.895665  0  0  0.315819  0.395247  0  0.921425  0
H  H19  1  0.62146419  0.02399782  0.88111494  1  0  0.442098  0  0.849289  0  0  0.413535  0  0.907845  0  0  0.42528  0  0.890713  0  0  0.302317  0.405044  0  0.920221  0
H  H20  1  0.00640901  0.14060458  0.04911064  1  0  0.43229  0  0.859955  0  0  0.399637  0  0.926497  0  0  0.410442  0  0.910827  0  0  0.302831  0.391913  0  0.937677  0
H  H21  1  0.16954249  0.97102294  0.11235730  1  0  0.441721  0  0.83084  0  0  0.411347  0  0.903148  0  0  0.422418  0  0.886792  0  0  0.316957  0.403281  0  0.915064  0
C  C22  1  0.80416354  0.53041585  0.41744825  1  0  0.69384  0  3.795214  0  0  0.643149  0  4.099156  0  0  0.679284  0  4.089458  0  0  0.238312  0.618216  0  4.105224  0
C  C23  1  0.98515866  0.67314593  0.41251666  1  0  0.071288  0  3.600839  0  0  0.04646  0  3.85379  0  0  0.048734  0  3.859141  0  0  0.005791  0.044592  0  3.850631  0
C  C24  1  0.96286082  0.72408617  0.52581667  1  0  0.068027  0  3.626795  0  0  0.040105  0  3.882554  0  0  0.042703  0  3.888296  0  0  0.003638  0.038085  0  3.878855  0
C  C25  1  0.09694850  0.89409129  0.53243726  1  0  0.672919  0  3.830127  0  0  0.621581  0  4.140893  0  0  0.656572  0  4.133653  0  0  0.229699  0.597462  0  4.145188  0
C  C26  1  0.56021961  0.09741288  0.28028102  1  0  0.688345  0  3.805821  0  0  0.638332  0  4.108515  0  0  0.674379  0  4.09886  0  0  0.238016  0.613474  0  4.114547  0
C  C27  1  0.37541920  0.23316939  0.28631744  1  0  0.065092  0  3.629948  0  0  0.036066  0  3.888333  0  0  0.038265  0  3.893711  0  0  0.002521  0.034329  0  3.8849  0
C  C28  1  0.38708869  0.38908683  0.17324669  1  0  0.060591  0  3.638592  0  0  0.035692  0  3.886202  0  0  0.038151  0  3.892079  0  0  -0.003441  0.033767  0  3.88241  0
C  C29  1  0.25115962  0.56273892  0.17457495  1  0  0.67047  0  3.847276  0  0  0.62119  0  4.156089  0  0  0.655672  0  4.149781  0  0  0.224373  0.597444  0  4.159688  0
C  C30  1  0.46576653  0.63527540  0.76948342  1  0  0.655102  0  3.844088  0  0  0.600979  0  4.15458  0  0  0.634998  0  4.14719  0  0  0.221119  0.577665  0  4.159021  0
C  C31  1  0.32654268  0.53880634  0.87427879  1  0  0.054742  0  3.607015  0  0  0.029103  0  3.862171  0  0  0.030934  0  3.866885  0  0  -0.003679  0.027751  0  3.859105  0
C  C32  1  0.09341242  0.51097333  0.84098326  1  0  0.07713  0  3.55103  0  0  0.047323  0  3.81047  0  0  0.049527  0  3.815813  0  0  0.004151  0.045725  0  3.806922  0
C  C33  1  0.93102185  0.50944571  0.93870734  1  0  0.649649  0  3.842548  0  0  0.59335  0  4.159084  0  0  0.626843  0  4.152552  0  0  0.219526  0.570453  0  4.162858  0
O  O34  1  0.79604621  0.38227195  0.49921122  1  0  -0.667792  0  1.996036  0  0  -0.627527  0  2.254894  0  0  -0.659349  0  2.244352  0  0  -0.37329  -0.604646  0  2.261413  0
O  O35  1  0.66687686  0.57414217  0.33951390  1  0  -0.661454  0  2.078371  0  0  -0.606039  0  2.318321  0  0  -0.638614  0  2.309309  0  0  -0.354131  -0.58281  0  2.32371  0
O  O36  1  0.97078148  0.83117467  0.31491693  1  0  -0.608119  0  2.12556  0  0  -0.568617  0  2.363215  0  0  -0.588936  0  2.352148  0  0  -0.417355  -0.553567  0  2.370235  0
O  O37  1  0.74394442  0.75755636  0.55002387  1  0  -0.631839  0  2.232336  0  0  -0.583176  0  2.480559  0  0  -0.606704  0  2.467491  0  0  -0.448722  -0.565896  0  2.486448  0
O  O38  1  0.99710459  0.02241131  0.56648101  1  0  -0.687817  0  2.03619  0  0  -0.632922  0  2.279317  0  0  -0.665827  0  2.269642  0  0  -0.36027  -0.60931  0  2.285124  0
O  O39  1  0.29436140  0.89462501  0.50800943  1  0  -0.635473  0  1.992704  0  0  -0.594058  0  2.243395  0  0  -0.625189  0  2.234886  0  0  -0.361345  -0.571801  0  2.248322  0
O  O40  1  0.69479914  0.06601585  0.35929118  1  0  -0.649662  0  2.068281  0  0  -0.59364  0  2.305415  0  0  -0.62568  0  2.296364  0  0  -0.345823  -0.570837  0  2.310891  0
O  O41  1  0.57404723  0.03097437  0.19607423  1  0  -0.67536  0  1.991912  0  0  -0.630222  0  2.247189  0  0  -0.661722  0  2.235969  0  0  -0.376637  -0.6076  0  2.254204  0
O  O42  1  0.38896988  0.30137553  0.38310753  1  0  -0.58667  0  2.124849  0  0  -0.543727  0  2.363132  0  0  -0.564718  0  2.352761  0  0  -0.416912  -0.528299  0  2.36968  0
O  O43  1  0.60316012  0.44905995  0.14367335  1  0  -0.633406  0  2.256919  0  0  -0.581313  0  2.506161  0  0  -0.604924  0  2.49481  0  0  -0.458948  -0.563871  0  2.513121  0
O  O44  1  0.34666202  0.72054899  0.15776722  1  0  -0.663866  0  2.006423  0  0  -0.613578  0  2.255287  0  0  -0.645528  0  2.247375  0  0  -0.355778  -0.59066  0  2.259864  0
O  O45  1  0.05110714  0.53598437  0.18976708  1  0  -0.658816  0  2.000465  0  0  -0.620672  0  2.258141  0  0  -0.652554  0  2.25012  0  0  -0.381898  -0.597839  0  2.262643  0
O  O46  1  0.45641134  0.81324421  0.73394624  1  0  -0.665776  0  1.976879  0  0  -0.624799  0  2.228535  0  0  -0.65564  0  2.218955  0  0  -0.358007  -0.602623  0  2.234323  0
O  O47  1  0.58129670  0.52805959  0.72525410  1  0  -0.61781  0  2.045728  0  0  -0.550489  0  2.265047  0  0  -0.576822  0  2.253924  0  0  -0.299118  -0.532206  0  2.271782  0
O  O48  1  0.40058480  0.35365029  0.93117108  1  0  -0.567659  0  2.138264  0  0  -0.524259  0  2.370615  0  0  -0.538723  0  2.357614  0  0  -0.397445  -0.513835  0  2.37949  0
O  O49  1  0.08389741  0.34277394  0.80353947  1  0  -0.543908  0  2.110085  0  0  -0.48741  0  2.317184  0  0  -0.502889  0  2.304051  0  0  -0.372894  -0.476357  0  2.326524  0
O  O50  1  0.90054106  0.66509764  0.96024541  1  0  -0.640206  0  1.957402  0  0  -0.596012  0  2.200896  0  0  -0.626802  0  2.193179  0  0  -0.343247  -0.573935  0  2.205408  0
O  O51  1  0.83842978  0.35163116  0.98944013  1  0  -0.652285  0  2.021537  0  0  -0.58735  0  2.24426  0  0  -0.61294  0  2.233137  0  0  -0.306834  -0.569433  0  2.251625  0
O  O52  1  0.28138057  0.25389482  0.61741931  1  0  -0.882355  0  1.833066  0  0  -0.836841  0  2.022429  0  0  -0.862029  0  1.987012  0  0  -0.640342  -0.818412  0  2.04733  0
O  O53  1  0.69899635  0.17509446  0.74787936  1  0  -0.853982  0  1.848681  0  0  -0.798036  0  2.031811  0  0  -0.82344  0  1.998914  0  0  -0.584515  -0.779629  0  2.054859  0
O  O54  1  0.57055664  0.95972734  0.95982228  1  0  -0.86583  0  1.831371  0  0  -0.820003  0  2.02244  0  0  -0.844135  0  1.989244  0  0  -0.623265  -0.802381  0  2.045855  0
O  O55  1  0.05842981  0.01049885  0.05542655  1  0  -0.867212  0  1.814587  0  0  -0.819406  0  2.001949  0  0  -0.843163  0  1.967018  0  0  -0.605804  -0.802133  0  2.026577  0
