# generated using pymatgen
data_MnH8C10(NCl)2
_symmetry_space_group_name_H-M   'P 1'
_cell_length_a   3.54761895
_cell_length_b   11.42122614
_cell_length_c   11.76181149
_cell_angle_alpha   89.93549956
_cell_angle_beta   89.96973756
_cell_angle_gamma   89.94937058
_symmetry_Int_Tables_number   1
_chemical_formula_structural   MnH8C10(NCl)2
_chemical_formula_sum   'Mn2 H16 C20 N4 Cl4'
_cell_volume   476.56638560
_cell_formula_units_Z   2
loop_
 _symmetry_equiv_pos_site_id
 _symmetry_equiv_pos_as_xyz
  1  'x, y, z'
loop_
 _atom_site_type_symbol
 _atom_site_label
 _atom_site_symmetry_multiplicity
 _atom_site_fract_x
 _atom_site_fract_y
 _atom_site_fract_z
 _atom_site_occupancy
 _atom_site_hse06_ddec_charge
 _atom_site_hse06_ddec_spin_density
 _atom_site_hse06_ddec_sum_bond_order
 _atom_site_hse06_magmom
 _atom_site_pbe_cm5_charge
 _atom_site_pbe_ddec_charge
 _atom_site_pbe_ddec_spin_density
 _atom_site_pbe_ddec_sum_bond_order
 _atom_site_pbe_magmom
Mn  Mn0  1  0.49901671  0.24906661  0.25007061  1  0.524217  -1.007605  3.223357  -0.994  0.361238  0.426094  -1.245978  3.338392  -1.204
Mn  Mn1  1  0.49983575  0.75000032  0.74995523  1  0.770932  -4.776359  2.582919  -4.554  0.428273  0.674079  -4.632142  2.676173  -4.418
H  H2  1  0.68275598  0.05231437  0.08244518  1  0.084114  0.000898  1.03835  0.0  0.104011  0.077014  0.001157  1.046132  0.0
H  H3  1  0.68006918  0.94943881  0.58293560  1  0.0876  -0.000148  1.033342  0.0  0.106959  0.082935  -0.000373  1.038186  -0.001
H  H4  1  0.68015416  0.55052033  0.91695291  1  0.08736  -0.000151  1.033017  0.0  0.106675  0.082509  -0.000396  1.038035  -0.001
H  H5  1  0.31981303  0.55080674  0.58289937  1  0.087734  -0.000149  1.033525  0.0  0.107041  0.082912  -0.000367  1.038599  -0.001
H  H6  1  0.31961090  0.94923529  0.91712062  1  0.087641  -0.000146  1.033115  0.0  0.107129  0.082917  -0.000344  1.038104  -0.001
H  H7  1  0.31646158  0.05229339  0.41704255  1  0.083477  -0.000125  1.036586  0.0  0.104066  0.076831  0.000243  1.04389  0.0
H  H8  1  0.31643108  0.44780225  0.08318689  1  0.083522  -0.000138  1.035647  0.0  0.104207  0.077037  0.000183  1.042613  0.0
H  H9  1  0.68378448  0.44774245  0.41737814  1  0.083946  0.000902  1.037655  0.0  0.103966  0.076935  0.001102  1.04529  0.0
H  H10  1  0.68972461  0.83728941  0.07512089  1  0.117439  -0.000316  1.060612  0.0  0.091882  0.111971  -0.001026  1.062644  0.0
H  H11  1  0.68707513  0.16741362  0.57459804  1  0.120121  -0.000296  1.046514  0.0  0.096455  0.110296  -0.000403  1.050918  0.0
H  H12  1  0.68696163  0.33250700  0.92540017  1  0.120178  -0.000292  1.046112  0.0  0.09657  0.110265  -0.000403  1.050641  0.0
H  H13  1  0.31320068  0.33287259  0.57465959  1  0.119982  0.000845  1.04772  0.0  0.09638  0.110014  0.00074  1.052179  0.0
H  H14  1  0.31309464  0.16715024  0.92544550  1  0.120179  0.000888  1.047436  0.0  0.096485  0.110223  0.000753  1.051832  0.0
H  H15  1  0.31036708  0.83731892  0.42478741  1  0.11744  -0.000377  1.061182  0.0  0.092017  0.112084  -0.001044  1.063003  0.0
H  H16  1  0.31019447  0.66298427  0.07527536  1  0.117636  -0.000381  1.06098  0.0  0.091901  0.112412  -0.001034  1.062711  0.0
H  H17  1  0.68976619  0.66293879  0.42477036  1  0.117624  -0.000306  1.060487  0.0  0.091899  0.112321  -0.001011  1.062403  0.0
C  C18  1  0.59855870  0.00199731  0.15672814  1  0.100513  0.000474  3.936754  0.0  0.035796  0.07871  0.010166  3.922302  0.004
C  C19  1  0.59687781  0.00187485  0.65611417  1  0.107992  -0.004328  3.974636  -0.004  0.04528  0.095102  -0.003585  3.947933  -0.004
C  C20  1  0.59701276  0.49808455  0.84382742  1  0.108563  -0.00432  3.974553  -0.004  0.045813  0.095663  -0.003569  3.948096  -0.004
C  C21  1  0.40314759  0.49826594  0.65607851  1  0.109119  -0.004293  3.973676  -0.004  0.045666  0.095982  -0.00367  3.947585  -0.005
C  C22  1  0.40290797  0.00174283  0.84391655  1  0.109257  -0.004284  3.973663  -0.004  0.045657  0.096179  -0.003659  3.947408  -0.004
C  C23  1  0.40129333  0.00202216  0.34284880  1  0.099881  -0.000979  3.934968  -0.001  0.035554  0.078722  0.010113  3.920014  0.004
C  C24  1  0.40136386  0.49814346  0.15728084  1  0.100077  -0.001358  3.937167  -0.001  0.036554  0.080147  0.007954  3.920742  0.003
C  C25  1  0.59935284  0.49814017  0.34315332  1  0.101822  0.000169  3.938617  -0.001  0.03747  0.081521  0.008044  3.922273  0.003
C  C26  1  0.60103600  0.88033875  0.15342736  1  -0.183831  -0.000247  3.965065  0.0  -0.087996  -0.169444  0.002225  3.935122  -0.001
C  C27  1  0.59939945  0.12298179  0.65227740  1  -0.182118  0.000687  3.967945  0.0  -0.086637  -0.173927  0.003453  3.945058  0.001
C  C28  1  0.59939009  0.37697229  0.84772540  1  -0.182225  0.000653  3.968197  0.0  -0.086833  -0.174051  0.003427  3.945418  0.001
C  C29  1  0.40092946  0.37716669  0.65228890  1  -0.181878  0.001684  3.96832  0.001  -0.086668  -0.173917  0.004553  3.945983  0.002
C  C30  1  0.40081888  0.12284376  0.84776398  1  -0.182195  0.001745  3.967925  0.001  -0.086886  -0.174151  0.004569  3.945493  0.002
C  C31  1  0.39908530  0.88034278  0.34639307  1  -0.184156  -0.000395  3.965772  -0.001  -0.088197  -0.16977  0.002161  3.935377  -0.001
C  C32  1  0.39906894  0.61987449  0.15361495  1  -0.185004  -6e-05  3.964436  0.0  -0.087876  -0.170973  0.003174  3.932837  0.0
C  C33  1  0.60153339  0.61984406  0.34649400  1  -0.184982  -3.3e-05  3.96382  0.0  -0.088028  -0.171072  0.003115  3.93279  0.0
C  C34  1  0.49995524  0.81506924  0.24995149  1  0.115372  0.000344  3.975286  0.0  0.008127  0.102009  0.02141  3.946089  0.012
C  C35  1  0.50019116  0.18597389  0.75002327  1  0.114374  -0.00372  4.018721  -0.003  0.008167  0.104467  0.004551  3.991612  0.002
C  C36  1  0.50022291  0.31400748  0.75002497  1  0.114163  -0.003669  4.01863  -0.003  0.008051  0.104396  0.004609  3.991385  0.002
C  C37  1  0.50011776  0.68510236  0.24999407  1  0.115673  -0.00022  3.975892  0.0  0.009067  0.104568  0.018059  3.945482  0.01
N  N38  1  0.49994709  0.06524520  0.24969327  1  -0.210488  0.008995  3.584699  0.01  -0.329179  -0.18342  0.0267  3.56944  0.025
N  N39  1  0.49976633  0.94153930  0.75001434  1  -0.266877  -0.023144  3.588328  -0.008  -0.330658  -0.23138  -0.019314  3.553516  -0.004
N  N40  1  0.50007430  0.55844466  0.74992333  1  -0.2668  -0.023134  3.588253  -0.008  -0.330614  -0.231275  -0.019324  3.55346  -0.004
N  N41  1  0.50042571  0.43502103  0.25033310  1  -0.211128  0.008838  3.573453  0.01  -0.324998  -0.184546  0.025767  3.557749  0.024
Cl  Cl42  1  0.00006093  0.24858227  0.11495176  1  -0.410446  0.016971  1.702459  0.015  -0.151404  -0.31492  0.012764  1.729425  0.013
Cl  Cl43  1  0.00001616  0.75009267  0.59652819  1  -0.492744  -0.099896  1.430412  -0.054  -0.215443  -0.454248  -0.128036  1.471856  -0.075
Cl  Cl44  1  0.99972037  0.74984581  0.90337122  1  -0.492763  -0.099908  1.430153  -0.054  -0.215565  -0.454269  -0.128046  1.47162  -0.075
Cl  Cl45  1  0.99942668  0.25074156  0.38520703  1  -0.41031  0.016686  1.702102  0.015  -0.151377  -0.314955  0.012733  1.729193  0.013
