# generated using pymatgen
data_AgH7C7N2
_symmetry_space_group_name_H-M   'P 1'
_cell_length_a   5.23129338
_cell_length_b   17.80773694
_cell_length_c   18.05980000
_cell_angle_alpha   117.88822306
_cell_angle_beta   90.00000000
_cell_angle_gamma   90.00000000
_symmetry_Int_Tables_number   1
_chemical_formula_structural   AgH7C7N2
_chemical_formula_sum   'Ag8 H56 C56 N16'
_cell_volume   1487.01416463
_cell_formula_units_Z   8
loop_
 _symmetry_equiv_pos_site_id
 _symmetry_equiv_pos_as_xyz
  1  'x, y, z'
loop_
 _atom_site_type_symbol
 _atom_site_label
 _atom_site_symmetry_multiplicity
 _atom_site_fract_x
 _atom_site_fract_y
 _atom_site_fract_z
 _atom_site_occupancy
 _atom_site_pbe_bader_charge
 _atom_site_pbe_bader_spin_density
 _atom_site_pbe_cm5_charge
 _atom_site_pbe_ddec_charge
 _atom_site_pbe_ddec_spin_density
 _atom_site_pbe_ddec_sum_bond_order
 _atom_site_pbe_magmom
Ag  Ag0  1  0.17293429  0.97722313  0.90386855  1  0.52736  0  0.443987  0.299672  0  2.369128  0
Ag  Ag1  1  0.67293110  0.52277512  0.59613031  1  0.52737  0  0.444  0.299691  0  2.369122  0
Ag  Ag2  1  0.82706507  0.02277698  0.09613183  1  0.52739  0  0.443994  0.299709  0  2.369101  0
Ag  Ag3  1  0.32706443  0.47722244  0.40386724  1  0.52743  0  0.444014  0.299721  0  2.369109  0
Ag  Ag4  1  0.87882282  0.41164191  0.97066169  1  0.524383  0  0.435485  0.281403  0  2.427437  0
Ag  Ag5  1  0.37881645  0.08836069  0.52933773  1  0.524238  0  0.435478  0.281383  0  2.427113  0
Ag  Ag6  1  0.12118991  0.58836265  0.02933852  1  0.524204  0  0.435447  0.28134  0  2.427153  0
Ag  Ag7  1  0.62118290  0.91163878  0.47066180  1  0.524276  0  0.435467  0.281358  0  2.427142  0
H  H8  1  0.43943244  0.83483495  0.94540182  1  0.084406  0  0.109027  0.075288  0  1.0181  0
H  H9  1  0.93942734  0.66516331  0.55460148  1  0.084418  0  0.109025  0.075275  0  1.018146  0
H  H10  1  0.56056692  0.16516516  0.05460133  1  0.08443  0  0.109032  0.075283  0  1.018117  0
H  H11  1  0.06057393  0.33483553  0.44540275  1  0.084437  0  0.109017  0.075263  0  1.018093  0
H  H12  1  0.42925713  0.68062624  0.90887500  1  0.096467  0  0.10231  0.115021  0  1.023388  0
H  H13  1  0.92926350  0.81937202  0.59112829  1  0.096673  0  0.102339  0.115016  0  1.023391  0
H  H14  1  0.57073457  0.31937323  0.09112786  1  0.09661  0  0.102345  0.115039  0  1.023414  0
H  H15  1  0.07074159  0.18062682  0.40887317  1  0.096586  0  0.102342  0.115053  0  1.023392  0
H  H16  1  0.73989351  0.65790581  0.76904839  1  0.081645  0  0.096662  0.101544  0  1.043816  0
H  H17  1  0.23989478  0.84209372  0.73095217  1  0.081618  0  0.096685  0.101598  0  1.043905  0
H  H18  1  0.26010585  0.34209557  0.23095092  1  0.08167  0  0.096672  0.101534  0  1.04381  0
H  H19  1  0.76010075  0.15790448  0.26904457  1  0.081646  0  0.096694  0.101588  0  1.043757  0
H  H20  1  0.77452548  0.81284007  0.81293152  1  0.104998  0  0.106538  0.074939  0  1.023819  0
H  H21  1  0.27451337  0.68715882  0.68707041  1  0.104913  0  0.106498  0.074876  0  1.023809  0
H  H22  1  0.22548343  0.18716067  0.18706860  1  0.105046  0  0.106524  0.074944  0  1.023824  0
H  H23  1  0.72547451  0.31284002  0.31292939  1  0.104884  0  0.106552  0.07496  0  1.023831  0
H  H24  1  0.25409586  0.53805253  0.81449839  1  0.030774  0  0.091728  0.132583  0  1.017276  0
H  H25  1  0.75409649  0.96194572  0.68550158  1  0.030887  0  0.091711  0.132569  0  1.017251  0
H  H26  1  0.74590158  0.46194821  0.18550118  1  0.031294  0  0.091719  0.132561  0  1.017272  0
H  H27  1  0.24590286  0.03805248  0.31449792  1  0.030771  0  0.091716  0.132553  0  1.017297  0
H  H28  1  0.97630732  0.52632605  0.75235394  1  0.073851  0  0.08452  0.123998  0  1.043891  0
H  H29  1  0.47630860  0.97367348  0.74764551  1  0.073873  0  0.084515  0.123978  0  1.043936  0
H  H30  1  0.02368821  0.47367533  0.24764647  1  0.073901  0  0.084519  0.123987  0  1.043926  0
H  H31  1  0.52369267  0.02632409  0.25235260  1  0.073842  0  0.084514  0.12398  0  1.043919  0
H  H32  1  0.94771783  0.55636815  0.86079683  1  0.074749  0  0.084579  0.122831  0  1.052974  0
H  H33  1  0.44772102  0.94362820  0.63920227  1  0.074814  0  0.08457  0.122816  0  1.053016  0
H  H34  1  0.05227961  0.44363069  0.13920242  1  0.074782  0  0.084585  0.122812  0  1.053009  0
H  H35  1  0.55227642  0.05637000  0.36079668  1  0.074807  0  0.084564  0.122813  0  1.053051  0
H  H36  1  0.12363864  0.30442747  0.78779829  1  0.088012  0  0.104058  0.066658  0  1.048035  0
H  H37  1  0.62363545  0.19557322  0.71220081  1  0.087998  0  0.104051  0.066658  0  1.048064  0
H  H38  1  0.87636071  0.69557200  0.21220235  1  0.088055  0  0.104075  0.066697  0  1.048014  0
H  H39  1  0.37636964  0.80442752  0.28779876  1  0.08804  0  0.104059  0.06667  0  1.048084  0
H  H40  1  0.06725488  0.25980747  0.63586616  1  0.087155  0  0.101768  0.114255  0  1.021806  0
H  H41  1  0.56725933  0.24019195  0.86413346  1  0.087146  0  0.101753  0.114229  0  1.021781  0
H  H42  1  0.93274065  0.74019073  0.36413390  1  0.087118  0  0.101762  0.114203  0  1.021866  0
H  H43  1  0.43274767  0.75980816  0.13586692  1  0.087188  0  0.101783  0.114256  0  1.021796  0
H  H44  1  0.37971489  0.41071558  0.70011408  1  0.083184  0  0.104474  0.118787  0  1.017313  0
H  H45  1  0.87972126  0.08928384  0.79988610  1  0.083254  0  0.10447  0.118711  0  1.017359  0
H  H46  1  0.62028255  0.58928453  0.29988631  1  0.083189  0  0.104469  0.118757  0  1.017342  0
H  H47  1  0.12028765  0.91071627  0.20011373  1  0.083195  0  0.104457  0.118777  0  1.017307  0
H  H48  1  0.45829775  0.44594397  0.84988905  1  0.056105  0  0.109106  0.077887  0  1.022055  0
H  H49  1  0.95829839  0.05405545  0.65011001  1  0.056106  0  0.109076  0.077842  0  1.022043  0
H  H50  1  0.54170160  0.55405614  0.15011077  1  0.056108  0  0.109093  0.077896  0  1.022052  0
H  H51  1  0.04170670  0.94594529  0.34989011  1  0.056061  0  0.109095  0.077923  0  1.022032  0
H  H52  1  0.52035698  0.25568855  0.53904899  1  0.05411  0  0.084839  0.121207  0  1.037335  0
H  H53  1  0.02036208  0.24431087  0.96094952  1  0.054103  0  0.084858  0.121245  0  1.037318  0
H  H54  1  0.47963856  0.74431092  0.46094943  1  0.054147  0  0.08485  0.121231  0  1.037294  0
H  H55  1  0.97964110  0.75568924  0.03904920  1  0.054119  0  0.084854  0.121231  0  1.037328  0
H  H56  1  0.84172683  0.27812372  0.52650315  1  0.045441  0  0.091817  0.135757  0  1.009339  0
H  H57  1  0.34173002  0.22187570  0.97349592  1  0.045424  0  0.091812  0.135744  0  1.009367  0
H  H58  1  0.15827061  0.72187639  0.47349668  1  0.045398  0  0.091806  0.135717  0  1.009383  0
H  H59  1  0.65827316  0.77812568  0.02650449  1  0.045452  0  0.091822  0.135759  0  1.009354  0
H  H60  1  0.60267696  0.35891432  0.55540758  1  0.052389  0  0.079248  0.114985  0  1.073  0
H  H61  1  0.10267824  0.14108574  0.94459289  1  0.052381  0  0.079252  0.114992  0  1.073008  0
H  H62  1  0.39732048  0.64108579  0.44459336  1  0.052413  0  0.079253  0.114968  0  1.072996  0
H  H63  1  0.89732494  0.85891501  0.05540778  1  0.052381  0  0.079269  0.115033  0  1.07295  0
C  C64  1  0.55505585  0.99542375  0.90253757  1  0.76753  0  -0.022868  -0.068102  0  3.808542  0
C  C65  1  0.05505331  0.50457260  0.59745986  1  0.767565  0  -0.022792  -0.068004  0  3.808553  0
C  C66  1  0.44494159  0.00457509  0.09746223  1  0.767627  0  -0.022866  -0.068116  0  3.808533  0
C  C67  1  0.94494222  0.49542242  0.40253485  1  0.767497  0  -0.022894  -0.068082  0  3.808425  0
C  C68  1  0.28663657  0.79325569  0.90659541  1  0.470417  0  0.039462  0.091613  0  3.988001  0
C  C69  1  0.78663912  0.70674320  0.59340430  1  0.470955  0  0.03943  0.091599  0  3.987858  0
C  C70  1  0.71336278  0.20674569  0.09340500  1  0.470314  0  0.039434  0.091619  0  3.988039  0
C  C71  1  0.21336597  0.29325563  0.40659439  1  0.470882  0  0.039465  0.091665  0  3.988016  0
C  C72  1  0.28042587  0.70754691  0.88605286  1  -0.091492  0  -0.092009  -0.204753  0  3.942145  0
C  C73  1  0.78042268  0.79245198  0.61395017  1  -0.092235  0  -0.092004  -0.204665  0  3.942314  0
C  C74  1  0.71956966  0.29245193  0.11394804  1  -0.091615  0  -0.092057  -0.204789  0  3.942263  0
C  C75  1  0.21957094  0.20754813  0.38605132  1  -0.092099  0  -0.092066  -0.204845  0  3.942249  0
C  C76  1  0.08174651  0.65584985  0.83598129  1  0.066855  0  0.012665  0.225586  0  3.938841  0
C  C77  1  0.58175862  0.84414905  0.66402008  1  0.06696  0  0.01273  0.225643  0  3.938735  0
C  C78  1  0.91824902  0.34415153  0.16401912  1  0.06687  0  0.012713  0.225657  0  3.938731  0
C  C79  1  0.41825030  0.15584979  0.33597916  1  0.065757  0  0.012676  0.22562  0  3.938842  0
C  C80  1  0.89747595  0.69483691  0.80904767  1  -0.019399  0  -0.091088  -0.196471  0  3.940645  0
C  C81  1  0.39746576  0.80516007  0.69095615  1  -0.019364  0  -0.091164  -0.196617  0  3.94062  0
C  C82  1  0.10252340  0.30516256  0.19095353  1  -0.019438  0  -0.091072  -0.196391  0  3.940527  0
C  C83  1  0.60251830  0.19483622  0.30904414  1  -0.01835  0  -0.09111  -0.196521  0  3.940774  0
C  C84  1  0.91686121  0.78112576  0.83287717  1  0.406397  0  0.037595  0.091343  0  3.975603  0
C  C85  1  0.41686249  0.71887377  0.66712505  1  0.406484  0  0.037593  0.091439  0  3.975912  0
C  C86  1  0.08314196  0.21887753  0.16712523  1  0.406333  0  0.037581  0.091288  0  3.975701  0
C  C87  1  0.58314260  0.28112253  0.33287247  1  0.406443  0  0.037526  0.091287  0  3.975612  0
C  C88  1  0.06443722  0.56393633  0.81399007  1  -0.095132  0  -0.246127  -0.4228  0  3.934754  0
C  C89  1  0.56443785  0.93606129  0.68601126  1  -0.095257  0  -0.246086  -0.422741  0  3.934791  0
C  C90  1  0.93555831  0.43606314  0.18601001  1  -0.095722  0  -0.246129  -0.422768  0  3.934901  0
C  C91  1  0.43555959  0.06393627  0.31398850  1  -0.095156  0  -0.246084  -0.422727  0  3.934847  0
C  C92  1  0.26094503  0.40850523  0.99093229  1  0.716578  0  -0.027195  -0.076816  0  3.823696  0
C  C93  1  0.76095331  0.09150245  0.50907003  1  0.71696  0  -0.027136  -0.076695  0  3.824603  0
C  C94  1  0.73904859  0.59150441  0.00907027  1  0.716939  0  -0.02714  -0.076698  0  3.824916  0
C  C95  1  0.23904413  0.90849829  0.49092843  1  0.716947  0  -0.027113  -0.076682  0  3.824584  0
C  C96  1  0.95958105  0.32633784  0.76589125  1  0.483092  0  0.036238  0.086449  0  3.986328  0
C  C97  1  0.45958042  0.17366348  0.73410870  1  0.483072  0  0.036216  0.086365  0  3.986446  0
C  C98  1  0.04042213  0.67366290  0.23410776  1  0.483061  0  0.036221  0.086369  0  3.986347  0
C  C99  1  0.54042276  0.82633726  0.26589198  1  0.482942  0  0.036224  0.086381  0  3.986391  0
C  C100  1  0.92842050  0.30216121  0.68113837  1  -0.03426  0  -0.089825  -0.190849  0  3.927826  0
C  C101  1  0.42841986  0.19783821  0.81886070  1  -0.034258  0  -0.08981  -0.190823  0  3.927873  0
C  C102  1  0.07157886  0.69784081  0.31886290  1  -0.034251  0  -0.089802  -0.19077  0  3.927766  0
C  C103  1  0.57158714  0.80216126  0.18113828  1  -0.034292  0  -0.089827  -0.190798  0  3.927742  0
C  C104  1  0.71644233  0.33128842  0.65458969  1  -0.043281  0  0.012139  0.216858  0  3.951835  0
C  C105  1  0.21644934  0.16871037  0.84540964  1  -0.043204  0  0.012093  0.216808  0  3.951892  0
C  C106  1  0.28355512  0.66871105  0.34540985  1  -0.043442  0  0.012094  0.216775  0  3.951919  0
C  C107  1  0.78355957  0.83128911  0.15459045  1  -0.043252  0  0.012083  0.216778  0  3.951922  0
C  C108  1  0.54605425  0.38504589  0.71694280  1  -0.033168  0  -0.089903  -0.201348  0  3.935579  0
C  C109  1  0.04605744  0.11495289  0.78305652  1  -0.033302  0  -0.089853  -0.201121  0  3.93551  0
C  C110  1  0.45394319  0.61495421  0.28305869  1  -0.03302  0  -0.089798  -0.201125  0  3.935406  0
C  C111  1  0.95394956  0.88504722  0.21694275  1  -0.033214  0  -0.089879  -0.201297  0  3.935557  0
C  C112  1  0.58953107  0.40520908  0.80021393  1  0.527358  0  0.03929  0.089269  0  3.978818  0
C  C113  1  0.08953426  0.09479098  0.69978653  1  0.527364  0  0.039232  0.089159  0  3.978977  0
C  C114  1  0.41046637  0.59479040  0.19978560  1  0.527402  0  0.039191  0.089059  0  3.97872  0
C  C115  1  0.91047274  0.90521040  0.30021499  1  0.527371  0  0.039299  0.089168  0  3.978803  0
C  C116  1  0.66935454  0.30505010  0.56407911  1  -0.075428  0  -0.244147  -0.417829  0  3.94256  0
C  C117  1  0.16935774  0.19494931  0.93592107  1  -0.075372  0  -0.244133  -0.417838  0  3.942601  0
C  C118  1  0.33063907  0.69495064  0.43592157  1  -0.075431  0  -0.244135  -0.417772  0  3.942503  0
C  C119  1  0.83064353  0.80505079  0.06407931  1  -0.075422  0  -0.244161  -0.41788  0  3.942566  0
N  N120  1  0.77914766  0.99779039  0.90149952  1  -1.341496  0  -0.41811  -0.310304  0  3.573663  0
N  N121  1  0.27914512  0.50220723  0.59849850  1  -1.341519  0  -0.418208  -0.310424  0  3.573746  0
N  N122  1  0.22084978  0.00221035  0.09850060  1  -1.341585  0  -0.418117  -0.31031  0  3.573628  0
N  N123  1  0.72084850  0.49779034  0.40149850  1  -1.341528  0  -0.418107  -0.310362  0  3.573504  0
N  N124  1  0.10813961  0.83021665  0.88089068  1  -1.235628  0  -0.337301  -0.246773  0  3.505704  0
N  N125  1  0.60813259  0.66978160  0.61911261  1  -1.23583  0  -0.337274  -0.246833  0  3.50568  0
N  N126  1  0.89185975  0.16978346  0.11911081  1  -1.235571  0  -0.33731  -0.246849  0  3.505626  0
N  N127  1  0.39185912  0.33021787  0.38089024  1  -1.235556  0  -0.337254  -0.246744  0  3.505546  0
N  N128  1  0.48385740  0.40421731  0.99574484  1  -1.298385  0  -0.410266  -0.30326  0  3.512074  0
N  N129  1  0.98382936  0.09578592  0.50425599  1  -1.298641  0  -0.410328  -0.303369  0  3.512983  0
N  N130  1  0.51617828  0.59578725  0.00425593  1  -1.298553  0  -0.410308  -0.303337  0  3.513242  0
N  N131  1  0.01617000  0.90421419  0.49574384  1  -1.298636  0  -0.410342  -0.30336  0  3.512964  0
N  N132  1  0.79306965  0.37658760  0.82507946  1  -1.235597  0  -0.338678  -0.238612  0  3.510165  0
N  N133  1  0.29306710  0.12341373  0.67492049  1  -1.235608  0  -0.338606  -0.238514  0  3.510221  0
N  N134  1  0.20692971  0.62341442  0.17492125  1  -1.235633  0  -0.338658  -0.238538  0  3.510207  0
N  N135  1  0.70693416  0.87658702  0.32507908  1  -1.235461  0  -0.338658  -0.238528  0  3.510159  0
