# generated using pymatgen
data_Zn2H22C29(NO4)2
_symmetry_space_group_name_H-M   'P 1'
_cell_length_a   9.48535653
_cell_length_b   9.81876765
_cell_length_c   15.16723078
_cell_angle_alpha   81.36278431
_cell_angle_beta   73.32453327
_cell_angle_gamma   75.45796989
_symmetry_Int_Tables_number   1
_chemical_formula_structural   Zn2H22C29(NO4)2
_chemical_formula_sum   'Zn4 H44 C58 N4 O16'
_cell_volume   1305.17799092
_cell_formula_units_Z   2
loop_
 _symmetry_equiv_pos_site_id
 _symmetry_equiv_pos_as_xyz
  1  'x, y, z'
loop_
 _atom_site_type_symbol
 _atom_site_label
 _atom_site_symmetry_multiplicity
 _atom_site_fract_x
 _atom_site_fract_y
 _atom_site_fract_z
 _atom_site_occupancy
 _atom_site_hle17_bader_spin_density
 _atom_site_hle17_ddec_charge
 _atom_site_hle17_ddec_spin_density
 _atom_site_hle17_ddec_sum_bond_order
 _atom_site_hle17_magmom
 _atom_site_hse06_10hf_bader_spin_density
 _atom_site_hse06_10hf_ddec_charge
 _atom_site_hse06_10hf_ddec_spin_density
 _atom_site_hse06_10hf_ddec_sum_bond_order
 _atom_site_hse06_10hf_magmom
 _atom_site_hse06_bader_spin_density
 _atom_site_hse06_ddec_charge
 _atom_site_hse06_ddec_spin_density
 _atom_site_hse06_ddec_sum_bond_order
 _atom_site_hse06_magmom
 _atom_site_pbe_bader_spin_density
 _atom_site_pbe_cm5_charge
 _atom_site_pbe_ddec_charge
 _atom_site_pbe_ddec_spin_density
 _atom_site_pbe_ddec_sum_bond_order
 _atom_site_pbe_magmom
Zn  Zn0  1  0.25119177  0.90846408  0.30374684  1  0  1.097709  0  1.756442  0  0  0.915  0  2.226449  0  0  0.96799  0  2.164366  0  0  0.693264  0.874956  0  2.271705  0
Zn  Zn1  1  0.74880920  0.09153510  0.69625339  1  0  1.097713  0  1.756434  0  0  0.914971  0  2.226473  0  0  0.967965  0  2.164388  0  0  0.693253  0.874931  0  2.271731  0
Zn  Zn2  1  0.31329458  0.12740521  0.10191857  1  0  1.058561  0  1.825588  0  0  0.874219  0  2.308383  0  0  0.923517  0  2.247938  0  0  0.692034  0.83831  0  2.351238  0
Zn  Zn3  1  0.68670418  0.87259396  0.89808074  1  0  1.05858  0  1.825608  0  0  0.874247  0  2.308412  0  0  0.923544  0  2.247964  0  0  0.692056  0.838336  0  2.351266  0
H  H4  1  0.78533159  0.08248067  0.10938379  1  0  0.099551  0  0.971931  0  0  0.108076  0  1.038043  0  0  0.111745  0  1.035007  0  0  0.104895  0.105465  0  1.040133  0
H  H5  1  0.21466863  0.91752168  0.89061626  1  0  0.099531  0  0.97194  0  0  0.108056  0  1.038051  0  0  0.111724  0  1.035015  0  0  0.104889  0.105446  0  1.04014  0
H  H6  1  0.14526472  0.05162970  0.48408820  1  0  0.101052  0  0.942826  0  0  0.108083  0  1.007136  0  0  0.111123  0  1.004042  0  0  0.121841  0.106009  0  1.009021  0
H  H7  1  0.85473380  0.94837053  0.51591171  1  0  0.101049  0  0.942843  0  0  0.108079  0  1.007153  0  0  0.111118  0  1.00406  0  0  0.121835  0.106005  0  1.009037  0
H  H8  1  0.22486240  0.46663675  0.27583938  1  0  0.103616  0  0.9588  0  0  0.111557  0  1.026196  0  0  0.11539  0  1.022802  0  0  0.104846  0.108783  0  1.028859  0
H  H9  1  0.77513807  0.53336454  0.72416007  1  0  0.10359  0  0.958844  0  0  0.111521  0  1.026249  0  0  0.115351  0  1.022855  0  0  0.104837  0.108749  0  1.028906  0
H  H10  1  0.56680819  0.19528747  0.95021473  1  0  0.097846  0  0.953147  0  0  0.106064  0  1.01708  0  0  0.108855  0  1.014335  0  0  0.120562  0.103979  0  1.01917  0
H  H11  1  0.43319388  0.80471170  0.04978398  1  0  0.097837  0  0.953185  0  0  0.106028  0  1.017142  0  0  0.108819  0  1.014395  0  0  0.120556  0.103941  0  1.019236  0
H  H12  1  0.55461722  0.65658390  0.81672532  1  0  0.091459  0  0.959603  0  0  0.10699  0  1.022416  0  0  0.108656  0  1.021759  0  0  0.0951  0.105767  0  1.022974  0
H  H13  1  0.44538374  0.34341526  0.18327294  1  0  0.091471  0  0.959573  0  0  0.106971  0  1.022448  0  0  0.108637  0  1.02179  0  0  0.095094  0.105749  0  1.023005  0
H  H14  1  0.37839387  0.75571500  0.87273642  1  0  0.087655  0  0.957335  0  0  0.105309  0  1.016667  0  0  0.106385  0  1.016431  0  0  0.097118  0.10439  0  1.017177  0
H  H15  1  0.62160490  0.24428417  0.12726289  1  0  0.087615  0  0.957389  0  0  0.105312  0  1.016693  0  0  0.106388  0  1.016455  0  0  0.097127  0.104392  0  1.017204  0
H  H16  1  0.26106202  0.70906660  0.75666475  1  0  0.074836  0  0.924042  0  0  0.095219  0  0.979781  0  0  0.096048  0  0.98072  0  0  0.092889  0.09465  0  0.978952  0
H  H17  1  0.73893760  0.29093362  0.24333431  1  0  0.074826  0  0.924072  0  0  0.095248  0  0.979762  0  0  0.096062  0  0.980718  0  0  0.092892  0.094677  0  0.978936  0
H  H18  1  0.43028277  0.59176160  0.70464599  1  0  0.060187  0  0.928408  0  0  0.081332  0  0.984749  0  0  0.082265  0  0.985083  0  0  0.088049  0.08062  0  0.984571  0
H  H19  1  0.56971685  0.40823862  0.29535240  1  0  0.060217  0  0.928413  0  0  0.081358  0  0.984747  0  0  0.082294  0  0.985075  0  0  0.088056  0.080644  0  0.984571  0
H  H20  1  0.21200449  0.01894345  0.63250401  1  0  0.127747  0  0.940961  0  0  0.138277  0  0.996973  0  0  0.141544  0  0.996579  0  0  0.112989  0.135776  0  0.997733  0
H  H21  1  0.78799513  0.98105678  0.36749636  1  0  0.127749  0  0.940994  0  0  0.138281  0  0.997004  0  0  0.141547  0  0.996611  0  0  0.112983  0.13578  0  0.997764  0
H  H22  1  0.69911080  0.66669213  0.19983625  1  0  0.091055  0  0.956361  0  0  0.100413  0  1.020011  0  0  0.103234  0  1.018813  0  0  0.100215  0.098486  0  1.020798  0
H  H23  1  0.30088612  0.33331023  0.80016571  1  0  0.091017  0  0.956359  0  0  0.100386  0  1.019994  0  0  0.103209  0  1.018793  0  0  0.100203  0.098459  0  1.020782  0
H  H24  1  0.12236610  0.40063221  0.05583151  1  0  0.084515  0  0.936271  0  0  0.095079  0  0.997572  0  0  0.097561  0  0.995177  0  0  0.12117  0.092843  0  1.000027  0
H  H25  1  0.87763547  0.59936908  0.94416906  1  0  0.084497  0  0.936289  0  0  0.095061  0  0.997592  0  0  0.097543  0  0.995196  0  0  0.121164  0.092827  0  1.000045  0
H  H26  1  0.14863965  0.73740971  0.14558170  1  0  0.099318  0  0.963053  0  0  0.108051  0  1.027849  0  0  0.111144  0  1.025939  0  0  0.103363  0.105601  0  1.029809  0
H  H27  1  0.85135936  0.26258840  0.85441635  1  0  0.099319  0  0.963051  0  0  0.108028  0  1.027873  0  0  0.11112  0  1.025965  0  0  0.103368  0.105581  0  1.029831  0
H  H28  1  0.62100996  0.40319051  0.84219883  1  0  0.120764  0  0.957461  0  0  0.130724  0  1.017838  0  0  0.134394  0  1.016047  0  0  0.109194  0.127851  0  1.019832  0
H  H29  1  0.37899101  0.59680864  0.15779745  1  0  0.120816  0  0.957343  0  0  0.130732  0  1.017779  0  0  0.134401  0  1.015987  0  0  0.109191  0.127859  0  1.019772  0
H  H30  1  0.97383828  0.57184413  0.18599672  1  0  0.089016  0  0.958869  0  0  0.101062  0  1.015395  0  0  0.103435  0  1.015791  0  0  0.098979  0.098911  0  1.016063  0
H  H31  1  0.02615939  0.42815505  0.81400279  1  0  0.088999  0  0.958859  0  0  0.101067  0  1.015362  0  0  0.103442  0  1.015753  0  0  0.098985  0.098916  0  1.01603  0
H  H32  1  0.16243328  0.62446852  0.95677915  1  0  0.127507  0  0.942669  0  0  0.137837  0  1.001076  0  0  0.141229  0  1.000301  0  0  0.112729  0.135402  0  1.00176  0
H  H33  1  0.83756854  0.37553171  0.04322017  1  0  0.127482  0  0.942696  0  0  0.137815  0  1.001102  0  0  0.141207  0  1.000326  0  0  0.112724  0.13538  0  1.001786  0
H  H34  1  0.82608171  0.68129525  0.46130700  1  0  0.093671  0  0.954782  0  0  0.101317  0  1.022076  0  0  0.104768  0  1.019753  0  0  0.102197  0.098698  0  1.023844  0
H  H35  1  0.17391901  0.31870500  0.53869449  1  0  0.093693  0  0.954765  0  0  0.101335  0  1.022059  0  0  0.104787  0  1.019735  0  0  0.102216  0.098715  0  1.023831  0
H  H36  1  0.49933526  0.72536974  0.37668272  1  0  0.083741  0  0.931471  0  0  0.093532  0  0.992367  0  0  0.096522  0  0.989311  0  0  0.118452  0.091331  0  0.994509  0
H  H37  1  0.50066485  0.27462839  0.62331778  1  0  0.083726  0  0.931515  0  0  0.093527  0  0.992397  0  0  0.096516  0  0.989344  0  0  0.118441  0.091327  0  0.994539  0
H  H38  1  0.39997180  0.90720053  0.72008978  1  0  0.082472  0  0.950289  0  0  0.100018  0  1.010741  0  0  0.100316  0  1.011965  0  0  0.095459  0.099648  0  1.010125  0
H  H39  1  0.60002893  0.09279971  0.27991040  1  0  0.082451  0  0.950302  0  0  0.099991  0  1.01076  0  0  0.100291  0  1.011985  0  0  0.095438  0.099621  0  1.010145  0
H  H40  1  0.56806762  0.78881619  0.66880190  1  0  0.084173  0  0.925833  0  0  0.103266  0  0.982366  0  0  0.103679  0  0.98317  0  0  0.095443  0.102978  0  0.981727  0
H  H41  1  0.43193335  0.21118298  0.33119768  1  0  0.084161  0  0.925864  0  0  0.103232  0  0.982417  0  0  0.103648  0  0.983219  0  0  0.095425  0.102947  0  0.981776  0
H  H42  1  0.57848976  0.67458701  0.52428599  1  0  0.100762  0  0.970922  0  0  0.114328  0  1.029012  0  0  0.116786  0  1.028989  0  0  0.106182  0.112556  0  1.029144  0
H  H43  1  0.42151010  0.32541217  0.47571444  1  0  0.100777  0  0.970916  0  0  0.114345  0  1.029002  0  0  0.116802  0  1.028978  0  0  0.106183  0.112573  0  1.029134  0
H  H44  1  0.87102811  0.24740853  0.41249477  1  0  0.094392  0  0.977486  0  0  0.101934  0  1.044694  0  0  0.104133  0  1.044709  0  0  0.101244  0.100182  0  1.044849  0
H  H45  1  0.12897286  0.75259066  0.58750678  1  0  0.094404  0  0.977453  0  0  0.101942  0  1.044662  0  0  0.104142  0  1.044677  0  0  0.101233  0.10019  0  1.044818  0
H  H46  1  0.71980928  0.46253765  0.49093786  1  0  0.080176  0  0.962994  0  0  0.090026  0  1.025114  0  0  0.093104  0  1.024279  0  0  0.094695  0.0879  0  1.025623  0
H  H47  1  0.28019145  0.53746259  0.50906231  1  0  0.080224  0  0.96294  0  0  0.090036  0  1.025099  0  0  0.093115  0  1.024263  0  0  0.094693  0.08791  0  1.025608  0
C  C48  1  0.56089991  0.93740118  0.16135061  1  0  0.670859  0  3.899817  0  0  0.613841  0  4.196877  0  0  0.649797  0  4.188224  0  0  0.220056  0.589335  0  4.201358  0
C  C49  1  0.43909836  0.06260012  0.83865055  1  0  0.670829  0  3.89981  0  0  0.613821  0  4.196882  0  0  0.649769  0  4.188247  0  0  0.220037  0.589322  0  4.201353  0
C  C50  1  0.39743434  0.53330503  0.89236057  1  0  0.167021  0  3.717139  0  0  0.180472  0  3.956007  0  0  0.186464  0  3.97829  0  0  0.017908  0.176678  0  3.940617  0
C  C51  1  0.60256688  0.46669307  0.10763709  1  0  0.166907  0  3.717143  0  0  0.180445  0  3.95593  0  0  0.186437  0  3.978209  0  0  0.017904  0.176651  0  3.940541  0
C  C52  1  0.14345632  0.21900591  0.28602504  1  0  0.669966  0  3.883637  0  0  0.615734  0  4.171551  0  0  0.65208  0  4.163001  0  0  0.221673  0.59092  0  4.176098  0
C  C53  1  0.85654550  0.78099433  0.71397559  1  0  0.67014  0  3.88365  0  0  0.615897  0  4.171568  0  0  0.652242  0  4.163016  0  0  0.221778  0.591082  0  4.176121  0
C  C54  1  0.05598422  0.34413359  0.33841516  1  0  -0.083337  0  3.768485  0  0  -0.054078  0  3.998741  0  0  -0.06481  0  4.021954  0  0  -0.020201  -0.047363  0  3.983396  0
C  C55  1  0.94401626  0.65586772  0.66158627  1  0  -0.083307  0  3.768276  0  0  -0.054047  0  3.998527  0  0  -0.064778  0  4.021741  0  0  -0.020173  -0.047331  0  3.983184  0
C  C56  1  0.72466002  0.88021374  0.15501227  1  0  -0.082091  0  3.780558  0  0  -0.056662  0  4.018519  0  0  -0.066258  0  4.04121  0  0  -0.021821  -0.049974  0  4.002315  0
C  C57  1  0.27533800  0.11978863  0.84498950  1  0  -0.082214  0  3.780629  0  0  -0.056809  0  4.018626  0  0  -0.066403  0  4.041319  0  0  -0.021897  -0.050123  0  4.002421  0
C  C58  1  0.82451756  0.97093339  0.12830499  1  0  -0.062828  0  3.698649  0  0  -0.099169  0  3.94283  0  0  -0.096445  0  3.961876  0  0  -0.075662  -0.100427  0  3.929846  0
C  C59  1  0.17548181  0.02906794  0.87169861  1  0  -0.062711  0  3.698547  0  0  -0.099038  0  3.942712  0  0  -0.096309  0  3.961757  0  0  -0.0756  -0.100296  0  3.929729  0
C  C60  1  0.97601833  0.92101752  0.12812558  1  0  -0.062041  0  3.742994  0  0  -0.034  0  3.971428  0  0  -0.043886  0  3.995634  0  0  -0.017139  -0.027878  0  3.955492  0
C  C61  1  0.02398019  0.07898272  0.87187498  1  0  -0.062135  0  3.743038  0  0  -0.034088  0  3.971473  0  0  -0.043981  0  3.995684  0  0  -0.017175  -0.027968  0  3.955541  0
C  C62  1  0.07445249  0.02487252  0.11189758  1  0  0.638621  0  3.915234  0  0  0.590811  0  4.203434  0  0  0.62415  0  4.19857  0  0  0.198843  0.568314  0  4.205809  0
C  C63  1  0.92554627  0.97512666  0.88810305  1  0  0.638537  0  3.915171  0  0  0.590716  0  4.20339  0  0  0.624057  0  4.198524  0  0  0.198748  0.568221  0  4.205763  0
C  C64  1  0.24209749  0.97027635  0.49475224  1  0  0.145405  0  3.671896  0  0  0.111684  0  3.925665  0  0  0.120187  0  3.941892  0  0  0.051829  0.106012  0  3.914729  0
C  C65  1  0.75790213  0.02972388  0.50524747  1  0  0.145419  0  3.671923  0  0  0.1117  0  3.925682  0  0  0.120201  0  3.941907  0  0  0.051823  0.106029  0  3.914746  0
C  C66  1  0.11466144  0.46543491  0.32339312  1  0  -0.069521  0  3.702108  0  0  -0.106181  0  3.947565  0  0  -0.102814  0  3.965717  0  0  -0.077235  -0.108726  0  3.936564  0
C  C67  1  0.88533953  0.53456427  0.67660645  1  0  -0.069569  0  3.702089  0  0  -0.106217  0  3.947559  0  0  -0.102846  0  3.965707  0  0  -0.077257  -0.108764  0  3.936558  0
C  C68  1  0.03222662  0.58579084  0.36847372  1  0  -0.067483  0  3.781506  0  0  -0.039147  0  4.009267  0  0  -0.04925  0  4.0342  0  0  -0.017137  -0.032806  0  3.992854  0
C  C69  1  0.96777520  0.41420940  0.63152691  1  0  -0.067474  0  3.781582  0  0  -0.039138  0  4.009328  0  0  -0.049243  0  4.03426  0  0  -0.017149  -0.032796  0  3.992915  0
C  C70  1  0.47972398  0.29159989  0.94891765  1  0  0.14046  0  3.680613  0  0  0.107454  0  3.929873  0  0  0.115259  0  3.948663  0  0  0.047927  0.102154  0  3.91785  0
C  C71  1  0.52027589  0.70839926  0.05107949  1  0  0.140483  0  3.680654  0  0  0.107502  0  3.929902  0  0  0.115314  0  3.948677  0  0  0.047969  0.1022  0  3.917881  0
C  C72  1  0.43267668  0.66310114  0.83304195  1  0  -0.174658  0  3.693523  0  0  -0.216518  0  3.942572  0  0  -0.218623  0  3.954735  0  0  -0.163159  -0.215025  0  3.934373  0
C  C73  1  0.56732404  0.33689908  0.16695624  1  0  -0.174572  0  3.693509  0  0  -0.216506  0  3.942604  0  0  -0.218629  0  3.954806  0  0  -0.163166  -0.215011  0  3.934402  0
C  C74  1  0.38485779  0.68764980  0.74231121  1  0  -0.080778  0  3.649508  0  0  -0.120692  0  3.909187  0  0  -0.122458  0  3.923567  0  0  -0.155479  -0.119274  0  3.899339  0
C  C75  1  0.61514158  0.31235148  0.25768778  1  0  -0.080808  0  3.649493  0  0  -0.120716  0  3.90917  0  0  -0.122467  0  3.923542  0  0  -0.155459  -0.119298  0  3.899322  0
C  C76  1  0.28055957  0.95054479  0.57840922  1  0  -0.162473  0  3.670631  0  0  -0.180333  0  3.917348  0  0  -0.188428  0  3.937067  0  0  -0.078895  -0.175551  0  3.904849  0
C  C77  1  0.71943920  0.04945438  0.42159075  1  0  -0.162445  0  3.670601  0  0  -0.180321  0  3.917314  0  0  -0.188416  0  3.937032  0  0  -0.078867  -0.17554  0  3.904816  0
C  C78  1  0.77816128  0.73650370  0.17808738  1  0  -0.056684  0  3.730092  0  0  -0.083586  0  3.977356  0  0  -0.081069  0  3.996756  0  0  -0.082335  -0.085318  0  3.963957  0
C  C79  1  0.22183479  0.26349762  0.82191550  1  0  -0.056636  0  3.730079  0  0  -0.083547  0  3.977354  0  0  -0.081031  0  3.996757  0  0  -0.082297  -0.085279  0  3.963954  0
C  C80  1  0.23134492  0.40836805  0.00833543  1  0  0.13607  0  3.71163  0  0  0.101433  0  3.964033  0  0  0.109369  0  3.983083  0  0  0.047913  0.096258  0  3.950718  0
C  C81  1  0.76865801  0.59163218  0.99166369  1  0  0.136099  0  3.711454  0  0  0.101459  0  3.963876  0  0  0.109394  0  3.982923  0  0  0.047937  0.096283  0  3.950561  0
C  C82  1  0.03011952  0.77610663  0.14701002  1  0  -0.041745  0  3.693789  0  0  -0.070207  0  3.941628  0  0  -0.067375  0  3.960253  0  0  -0.076632  -0.071822  0  3.929283  0
C  C83  1  0.96987864  0.22389043  0.85299027  1  0  -0.041764  0  3.693849  0  0  -0.07022  0  3.941718  0  0  -0.067386  0  3.960344  0  0  -0.076652  -0.071839  0  3.929372  0
C  C84  1  0.40236831  0.84241126  0.59175952  1  0  0.162264  0  3.72359  0  0  0.175815  0  3.963799  0  0  0.181281  0  3.986038  0  0  0.018921  0.172597  0  3.948566  0
C  C85  1  0.59763241  0.15758898  0.40824065  1  0  0.162281  0  3.723594  0  0  0.175853  0  3.963779  0  0  0.181322  0  3.986019  0  0  0.018929  0.172635  0  3.948546  0
C  C86  1  0.50969914  0.40929802  0.89012249  1  0  -0.165763  0  3.680537  0  0  -0.183488  0  3.927812  0  0  -0.192307  0  3.949023  0  0  -0.080914  -0.178469  0  3.914729  0
C  C87  1  0.49030292  0.59070114  0.10987557  1  0  -0.165763  0  3.68048  0  0  -0.183464  0  3.92771  0  0  -0.19228  0  3.948921  0  0  -0.080929  -0.178444  0  3.914625  0
C  C88  1  0.93155204  0.68423357  0.17061133  1  0  -0.082787  0  3.770657  0  0  -0.091866  0  4.021892  0  0  -0.097063  0  4.044403  0  0  -0.09244  -0.088267  0  4.006937  0
C  C89  1  0.06844428  0.31576668  0.82939029  1  0  -0.082676  0  3.770587  0  0  -0.091764  0  4.021806  0  0  -0.096959  0  4.044318  0  0  -0.092412  -0.088164  0  4.006853  0
C  C90  1  0.25450921  0.53092392  0.95275796  1  0  -0.180792  0  3.685869  0  0  -0.19564  0  3.929293  0  0  -0.205165  0  3.951662  0  0  -0.08185  -0.188964  0  3.913785  0
C  C91  1  0.74549151  0.46907630  0.04724024  1  0  -0.180711  0  3.685773  0  0  -0.195583  0  3.929179  0  0  -0.205105  0  3.951545  0  0  -0.08186  -0.188909  0  3.913673  0
C  C92  1  0.88861733  0.58534620  0.42779401  1  0  -0.049348  0  3.721316  0  0  -0.077331  0  3.969807  0  0  -0.074887  0  3.989505  0  0  -0.076212  -0.077944  0  3.95579  0
C  C93  1  0.11138474  0.41465299  0.57220735  1  0  -0.049324  0  3.721339  0  0  -0.077294  0  3.969796  0  0  -0.074851  0  3.989497  0  0  -0.076213  -0.077908  0  3.955779  0
C  C94  1  0.43871292  0.78626646  0.43596817  1  0  0.131726  0  3.726608  0  0  0.101726  0  3.974692  0  0  0.109056  0  3.99379  0  0  0.044819  0.096934  0  3.961415  0
C  C95  1  0.56128609  0.21373166  0.56403252  1  0  0.131695  0  3.726695  0  0  0.101681  0  3.974764  0  0  0.10901  0  3.993861  0  0  0.044798  0.09689  0  3.961487  0
C  C96  1  0.44442153  0.81245271  0.68184091  1  0  -0.159714  0  3.682113  0  0  -0.201069  0  3.93224  0  0  -0.202195  0  3.944533  0  0  -0.159125  -0.200368  0  3.923923  0
C  C97  1  0.55557809  0.18754753  0.31815880  1  0  -0.159698  0  3.682112  0  0  -0.201046  0  3.932232  0  0  -0.20218  0  3.944531  0  0  -0.159107  -0.200348  0  3.923917  0
C  C98  1  0.48205459  0.75960042  0.51788048  1  0  -0.189367  0  3.736677  0  0  -0.205949  0  3.981731  0  0  -0.21528  0  4.005235  0  0  -0.089198  -0.199962  0  3.965824  0
C  C99  1  0.51794417  0.24039875  0.48211949  1  0  -0.189342  0  3.736669  0  0  -0.205932  0  3.981716  0  0  -0.215263  0  4.005221  0  0  -0.089153  -0.199945  0  3.96581  0
C  C100  1  0.91435090  0.34304733  0.40007969  1  0  -0.036922  0  3.698996  0  0  -0.066029  0  3.94706  0  0  -0.062319  0  3.965937  0  0  -0.076112  -0.067292  0  3.933589  0
C  C101  1  0.08565007  0.65695186  0.59992120  1  0  -0.036926  0  3.699022  0  0  -0.066019  0  3.947058  0  0  -0.062311  0  3.965937  0  0  -0.076111  -0.067283  0  3.933587  0
C  C102  1  0.83038961  0.46436485  0.44356256  1  0  -0.086748  0  3.778672  0  0  -0.096969  0  4.033939  0  0  -0.102623  0  4.055814  0  0  -0.093062  -0.093466  0  4.018735  0
C  C103  1  0.16961221  0.53563539  0.55643808  1  0  -0.086827  0  3.778744  0  0  -0.097021  0  4.034006  0  0  -0.102677  0  4.05588  0  0  -0.093057  -0.09352  0  4.018805  0
C  C104  1  0.09293754  0.71642195  0.35265000  1  0  0.616465  0  3.949871  0  0  0.568458  0  4.239562  0  0  0.6016  0  4.23574  0  0  0.194058  0.545799  0  4.241184  0
C  C105  1  0.90706343  0.28357725  0.64735221  1  0  0.616469  0  3.949905  0  0  0.568467  0  4.239581  0  0  0.601611  0  4.235756  0  0  0.194102  0.545808  0  4.241203  0
N  N106  1  0.34258515  0.29112831  0.00737959  1  0  -0.350372  0  3.332304  0  0  -0.262514  0  3.613941  0  0  -0.284214  0  3.629294  0  0  -0.338752  -0.247455  0  3.603426  0
N  N107  1  0.65741557  0.70887192  0.99261993  1  0  -0.350428  0  3.332186  0  0  -0.262571  0  3.613831  0  0  -0.284268  0  3.629177  0  0  -0.338779  -0.247512  0  3.603315  0
N  N108  1  0.31967709  0.88967834  0.42452035  1  0  -0.350973  0  3.306226  0  0  -0.269043  0  3.578398  0  0  -0.290436  0  3.595391  0  0  -0.331584  -0.254193  0  3.566469  0
N  N109  1  0.68032253  0.11032190  0.57547936  1  0  -0.351026  0  3.306363  0  0  -0.269072  0  3.578507  0  0  -0.290461  0  3.595494  0  0  -0.331599  -0.254223  0  3.566579  0
O  O110  1  0.52751763  0.03663981  0.10089460  1  0  -0.634455  0  2.077606  0  0  -0.560111  0  2.355997  0  0  -0.588313  0  2.340469  0  0  -0.31186  -0.539959  0  2.366185  0
O  O111  1  0.47248285  0.96336150  0.89910683  1  0  -0.634407  0  2.077538  0  0  -0.56005  0  2.355894  0  0  -0.588258  0  2.340376  0  0  -0.311808  -0.5399  0  2.366077  0
O  O112  1  0.46786857  0.88331354  0.22636546  1  0  -0.650708  0  2.11498  0  0  -0.582427  0  2.400776  0  0  -0.610732  0  2.384263  0  0  -0.312639  -0.561537  0  2.410711  0
O  O113  1  0.53212860  0.11668775  0.77363458  1  0  -0.650679  0  2.114973  0  0  -0.582392  0  2.400756  0  0  -0.610692  0  2.384246  0  0  -0.312641  -0.561515  0  2.410707  0
O  O114  1  0.11467475  0.09862128  0.31876970  1  0  -0.630141  0  2.093749  0  0  -0.556319  0  2.367071  0  0  -0.585125  0  2.350924  0  0  -0.305895  -0.536122  0  2.378777  0
O  O115  1  0.88532817  0.90137896  0.68123007  1  0  -0.630218  0  2.093735  0  0  -0.556395  0  2.367076  0  0  -0.585199  0  2.350921  0  0  -0.305929  -0.5362  0  2.378787  0
O  O116  1  0.24148966  0.24277238  0.21146973  1  0  -0.645945  0  2.124236  0  0  -0.576324  0  2.403721  0  0  -0.604246  0  2.387891  0  0  -0.315313  -0.55657  0  2.413857  0
O  O117  1  0.75851241  0.75722679  0.78852899  1  0  -0.646044  0  2.124392  0  0  -0.576434  0  2.403911  0  0  -0.604362  0  2.388083  0  0  -0.315388  -0.556671  0  2.414029  0
O  O118  1  0.22642944  0.71325613  0.29689287  1  0  -0.656668  0  2.006481  0  0  -0.586324  0  2.269247  0  0  -0.616769  0  2.256747  0  0  -0.332458  -0.563916  0  2.276785  0
O  O119  1  0.77357153  0.28674306  0.70310802  1  0  -0.656637  0  2.006495  0  0  -0.586295  0  2.269257  0  0  -0.616742  0  2.256756  0  0  -0.332469  -0.56389  0  2.276798  0
O  O120  1  0.01580304  0.82483974  0.39199579  1  0  -0.60792  0  1.956264  0  0  -0.55687  0  2.189918  0  0  -0.581619  0  2.182849  0  0  -0.30985  -0.538133  0  2.194634  0
O  O121  1  0.98419964  0.17516156  0.60800459  1  0  -0.607935  0  1.956297  0  0  -0.556886  0  2.189946  0  0  -0.581637  0  2.182876  0  0  -0.309881  -0.538149  0  2.194661  0
O  O122  1  0.21349233  0.97085969  0.11669000  1  0  -0.674898  0  2.063805  0  0  -0.597579  0  2.346841  0  0  -0.626657  0  2.328284  0  0  -0.331914  -0.577173  0  2.359357  0
O  O123  1  0.78650644  0.02913947  0.88330800  1  0  -0.67484  0  2.06373  0  0  -0.597517  0  2.346771  0  0  -0.626594  0  2.328215  0  0  -0.331881  -0.5771  0  2.359258  0
O  O124  1  0.02441787  0.15448212  0.09781960  1  0  -0.61348  0  1.885989  0  0  -0.568727  0  2.106391  0  0  -0.591701  0  2.098962  0  0  -0.321983  -0.552145  0  2.110667  0
O  O125  1  0.97558090  0.84551706  0.90218037  1  0  -0.613485  0  1.886001  0  0  -0.568718  0  2.106391  0  0  -0.591695  0  2.098967  0  0  -0.321965  -0.552147  0  2.110681  0
