# generated using pymatgen
data_CuH10(C7N4)2
_symmetry_space_group_name_H-M   'P 1'
_cell_length_a   7.24166554
_cell_length_b   20.30270093
_cell_length_c   20.31834887
_cell_angle_alpha   89.89453377
_cell_angle_beta   89.99807179
_cell_angle_gamma   89.99795218
_symmetry_Int_Tables_number   1
_chemical_formula_structural   CuH10(C7N4)2
_chemical_formula_sum   'Cu8 H80 C112 N64'
_cell_volume   2987.30769160
_cell_formula_units_Z   8
loop_
 _symmetry_equiv_pos_site_id
 _symmetry_equiv_pos_as_xyz
  1  'x, y, z'
loop_
 _atom_site_type_symbol
 _atom_site_label
 _atom_site_symmetry_multiplicity
 _atom_site_fract_x
 _atom_site_fract_y
 _atom_site_fract_z
 _atom_site_occupancy
 _atom_site_pbe_bader_charge
 _atom_site_pbe_bader_spin_density
 _atom_site_pbe_cm5_charge
 _atom_site_pbe_ddec_charge
 _atom_site_pbe_ddec_spin_density
 _atom_site_pbe_ddec_sum_bond_order
 _atom_site_pbe_magmom
Cu  Cu0  1  0.74025380  0.47595811  0.46018451  1  1.038704  0.555613  0.782984  0.571509  0.72085  2.542951  0.554
Cu  Cu1  1  0.24032595  0.53979638  0.97579035  1  1.039923  -0.555746  0.782958  0.571013  -0.721284  2.543619  -0.554
Cu  Cu2  1  0.24023514  0.96015276  0.52429817  1  1.039847  0.55558  0.783027  0.570832  0.7213  2.543776  0.554
Cu  Cu3  1  0.74015254  0.02412858  0.03980813  1  1.03884  0.555577  0.783226  0.571751  0.720971  2.542592  0.554
Cu  Cu4  1  0.25980138  0.52407698  0.53977097  1  1.038679  -0.555603  0.783039  0.571693  -0.720855  2.542803  -0.554
Cu  Cu5  1  0.75973613  0.46018054  0.02421833  1  1.040094  0.55573  0.783021  0.571222  0.721307  2.54347  0.554
Cu  Cu6  1  0.75969990  0.03983055  0.47572183  1  1.039453  -0.555593  0.783062  0.571109  -0.721274  2.543393  -0.554
Cu  Cu7  1  0.25983912  0.97586507  0.96021432  1  1.038963  -0.555568  0.783201  0.57176  -0.720962  2.542657  -0.554
H  H8  1  0.17302956  0.62048535  0.41433140  1  0.127388  0.001362  0.132587  0.103535  0.000751  0.986632  0.001
H  H9  1  0.67339940  0.58558929  0.12030120  1  0.130196  -0.001324  0.13285  0.103836  -0.000722  0.986304  -0.001
H  H10  1  0.67353240  0.91442977  0.37972040  1  0.131083  0.001362  0.132696  0.103809  0.000752  0.986575  0.001
H  H11  1  0.17292533  0.87958092  0.08571304  1  0.128054  0.001326  0.132636  0.103708  0.000722  0.98615  0.001
H  H12  1  0.82700076  0.37953005  0.58561130  1  0.127708  -0.001362  0.132613  0.103683  -0.000751  0.986451  -0.001
H  H13  1  0.32660055  0.41439849  0.87967746  1  0.130405  0.001325  0.132847  0.103742  0.000723  0.98642  0.001
H  H14  1  0.32644406  0.08556933  0.62027892  1  0.130779  -0.001362  0.132709  0.103869  -0.000752  0.986621  -0.001
H  H15  1  0.82706909  0.12040584  0.91430942  1  0.128485  -0.001325  0.132748  0.10388  -0.000722  0.986406  -0.001
H  H16  1  0.32125242  0.34815597  0.51255733  1  0.098876  0.000762  0.121762  0.087447  0.000369  1.012075  0.0
H  H17  1  0.82138891  0.48736879  0.84829008  1  0.099963  -0.000762  0.121689  0.087493  -0.000366  1.011126  0.0
H  H18  1  0.82124572  0.01267001  0.65175517  1  0.099816  0.000764  0.121829  0.087667  0.00037  1.011354  0.0
H  H19  1  0.32138850  0.15176118  0.98740608  1  0.098454  0.000762  0.121786  0.087656  0.000365  1.011786  0.0
H  H20  1  0.67874752  0.65186677  0.48742966  1  0.09882  -0.000762  0.121728  0.087376  -0.000369  1.012081  0.0
H  H21  1  0.17863727  0.51261259  0.15169104  1  0.100138  0.000764  0.121717  0.087524  0.000366  1.010991  0.0
H  H22  1  0.17865617  0.98733153  0.34827170  1  0.099433  -0.000764  0.121728  0.08738  -0.00037  1.011425  0.0
H  H23  1  0.67857139  0.84823744  0.01258044  1  0.098175  -0.000762  0.121695  0.087462  -0.000365  1.011899  0.0
H  H24  1  0.09670384  0.46080694  0.37387423  1  0.097628  0.002581  0.118221  0.08724  0.001199  1.014224  0.002
H  H25  1  0.59706785  0.62608118  0.96046374  1  0.093593  -0.00258  0.118188  0.087315  -0.001197  1.013943  -0.002
H  H26  1  0.59690923  0.87388238  0.53968387  1  0.09196  0.002579  0.118407  0.087561  0.0012  1.013742  0.002
H  H27  1  0.09662979  0.03932368  0.12610266  1  0.096127  0.002579  0.118188  0.086923  0.001201  1.013623  0.002
H  H28  1  0.90330438  0.53921044  0.62605912  1  0.097297  -0.002582  0.118089  0.087014  -0.0012  1.014111  -0.002
H  H29  1  0.40298180  0.37391102  0.03953656  1  0.093929  0.002578  0.118257  0.087237  0.001196  1.013914  0.002
H  H30  1  0.40304514  0.12611867  0.46032627  1  0.092956  -0.002578  0.118374  0.087507  -0.0012  1.013799  -0.002
H  H31  1  0.90334529  0.96067687  0.87391536  1  0.095587  -0.00258  0.118273  0.087136  -0.001201  1.013569  -0.002
H  H32  1  0.01493259  0.59744705  0.21297101  1  0.123571  9e-05  0.106035  0.104641  4.6e-05  1.026367  0.0
H  H33  1  0.51500645  0.78699994  0.09652754  1  0.133336  -9.3e-05  0.106109  0.104797  -4.7e-05  1.02594  0.0
H  H34  1  0.51553543  0.71312596  0.40339019  1  0.135683  6.5e-05  0.105991  0.104554  2.9e-05  1.026244  0.0
H  H35  1  0.01475250  0.90271714  0.28702912  1  0.127313  6.4e-05  0.10601  0.10433  2.9e-05  1.026684  0.0
H  H36  1  0.98513639  0.40261315  0.78699626  1  0.125432  -9e-05  0.105934  0.104578  -4.6e-05  1.026701  0.0
H  H37  1  0.48501145  0.21299324  0.90347719  1  0.133406  9.3e-05  0.106083  0.104744  4.7e-05  1.025929  0.0
H  H38  1  0.48449489  0.28688841  0.59660222  1  0.134571  -6.5e-05  0.106014  0.104598  -2.9e-05  1.026271  0.0
H  H39  1  0.98527229  0.09727407  0.71298250  1  0.127653  -6.3e-05  0.106008  0.104443  -2.9e-05  1.026434  0.0
H  H40  1  0.21780690  0.51356479  0.27099825  1  0.14293  0.001399  0.106792  0.118031  0.000801  1.034354  0.001
H  H41  1  0.71810880  0.72899695  0.01295791  1  0.142259  -0.001398  0.106492  0.117213  -0.000802  1.036268  -0.001
H  H42  1  0.71824442  0.77106327  0.48712086  1  0.1415  0.001029  0.106636  0.117751  0.00044  1.035865  0.001
H  H43  1  0.21770197  0.98656245  0.22898227  1  0.145365  0.001027  0.107088  0.118541  0.000442  1.034377  0.001
H  H44  1  0.78224137  0.48646193  0.72895379  1  0.143006  -0.001399  0.106801  0.118305  -0.000801  1.034203  -0.001
H  H45  1  0.28191462  0.27100855  0.98703992  1  0.142393  0.001398  0.106552  0.117225  0.000802  1.03632  0.001
H  H46  1  0.28176795  0.22895750  0.51287449  1  0.142081  -0.001029  0.106673  0.117729  -0.00044  1.035676  -0.001
H  H47  1  0.78228693  0.01344499  0.77103722  1  0.145248  -0.001028  0.106992  0.118467  -0.000442  1.034363  -0.001
H  H48  1  0.36694865  0.39061530  0.36740118  1  0.054075  9.6e-05  0.113022  0.082971  5.9e-05  0.982328  0.0
H  H49  1  0.86751219  0.63312390  0.89008623  1  0.055882  -9.4e-05  0.112857  0.082736  -5.8e-05  0.981152  0.0
H  H50  1  0.86741641  0.86699001  0.60989463  1  0.055429  8.6e-05  0.1128  0.082897  5.2e-05  0.981672  0.0
H  H51  1  0.36699541  0.10978125  0.13259488  1  0.051042  8.6e-05  0.113041  0.083274  5.2e-05  0.981717  0.0
H  H52  1  0.63305129  0.60939415  0.63258040  1  0.05373  -9.6e-05  0.112901  0.082633  -6e-05  0.982253  0.0
H  H53  1  0.13249465  0.36686879  0.10991407  1  0.056144  9.4e-05  0.112856  0.082707  5.8e-05  0.981157  0.0
H  H54  1  0.13251863  0.13298740  0.39012045  1  0.055468  -8.6e-05  0.112815  0.08295  -5.2e-05  0.981458  0.0
H  H55  1  0.63297139  0.89020947  0.86741231  1  0.051229  -8.6e-05  0.113023  0.083231  -5.2e-05  0.981539  0.0
H  H56  1  0.70098975  0.62103006  0.25890714  1  0.099506  0.001186  0.116961  0.130591  0.00057  0.975804  0.001
H  H57  1  0.20073356  0.74118477  0.11994121  1  0.10722  -0.001186  0.117204  0.131113  -0.000569  0.975848  -0.001
H  H58  1  0.20132582  0.75894189  0.37987180  1  0.116876  0.001314  0.117225  0.131215  0.000667  0.975453  0.001
H  H59  1  0.70072640  0.87919349  0.24113048  1  0.106686  0.001321  0.117177  0.131101  0.000668  0.97534  0.001
H  H60  1  0.29911652  0.37904244  0.74107587  1  0.100175  -0.001186  0.117056  0.130762  -0.00057  0.975899  -0.001
H  H61  1  0.79931195  0.25879806  0.88006451  1  0.106781  0.001186  0.11716  0.131102  0.000569  0.975901  0.001
H  H62  1  0.79867826  0.24105178  0.62013391  1  0.116759  -0.001313  0.117257  0.131279  -0.000666  0.975457  -0.001
H  H63  1  0.29931497  0.12077900  0.75887723  1  0.107277  -0.001321  0.117268  0.131239  -0.000668  0.975333  -0.001
H  H64  1  0.31092437  0.27604371  0.32624531  1  0.063144  -2.1e-05  0.100995  0.100644  -1e-05  1.023506  0.0
H  H65  1  0.81108225  0.67377398  0.77529052  1  0.060983  2.7e-05  0.100977  0.100623  1.4e-05  1.023526  0.0
H  H66  1  0.81110434  0.82607977  0.72462866  1  0.059452  -1.3e-05  0.100912  0.10016  -6e-06  1.023837  0.0
H  H67  1  0.31145420  0.22438176  0.17372325  1  0.069776  -2.3e-05  0.100915  0.10082  -1.2e-05  1.023215  0.0
H  H68  1  0.68908247  0.72395537  0.67376631  1  0.062669  2.1e-05  0.101041  0.100861  1e-05  1.023422  0.0
H  H69  1  0.18892322  0.32619557  0.22470242  1  0.060012  -2.7e-05  0.100956  0.100619  -1.4e-05  1.023685  0.0
H  H70  1  0.18881412  0.17391044  0.27539182  1  0.060444  1.3e-05  0.100734  0.100052  6e-06  1.023775  0.0
H  H71  1  0.68848222  0.77561191  0.82628394  1  0.069646  2.3e-05  0.100999  0.100967  1.2e-05  1.023378  0.0
H  H72  1  0.84307479  0.22273465  0.40740411  1  0.087202  -5e-06  0.104756  0.116592  3e-06  1.027337  0.0
H  H73  1  0.34260748  0.59203803  0.72234269  1  0.083857  1.1e-05  0.104987  0.116947  4e-06  1.02742  0.0
H  H74  1  0.34275181  0.90767871  0.77763334  1  0.084535  -5e-06  0.104748  0.116975  2e-06  1.02728  0.0
H  H75  1  0.84372744  0.27740237  0.09244574  1  0.082729  -1.1e-05  0.104943  0.117068  -4e-06  1.027282  0.0
H  H76  1  0.15694172  0.77729446  0.59262027  1  0.087302  5e-06  0.104786  0.116669  -3e-06  1.027622  0.0
H  H77  1  0.65743803  0.40795218  0.27767385  1  0.084039  -1.1e-05  0.105009  0.116933  -4e-06  1.027238  0.0
H  H78  1  0.65716804  0.09230756  0.22238518  1  0.085026  5e-06  0.104741  0.116954  -2e-06  1.027081  0.0
H  H79  1  0.15622141  0.72259571  0.90758507  1  0.082496  1.1e-05  0.104868  0.117027  4e-06  1.027163  0.0
H  H80  1  0.55739720  0.19041995  0.34528729  1  0.087125  1.8e-05  0.102766  0.098757  2.1e-05  1.018219  0.0
H  H81  1  0.05682866  0.65409248  0.68974537  1  0.084289  1e-05  0.102484  0.098414  1.3e-05  1.018949  0.0
H  H82  1  0.05694666  0.84557680  0.81016432  1  0.081975  2e-05  0.102457  0.098779  2.1e-05  1.01908  0.0
H  H83  1  0.55818698  0.30988720  0.15461858  1  0.083081  -1.2e-05  0.102453  0.098393  -1.3e-05  1.019309  0.0
H  H84  1  0.44261793  0.80958601  0.65474745  1  0.086699  -1.8e-05  0.102602  0.098548  -2.1e-05  1.018421  0.0
H  H85  1  0.94319890  0.34588100  0.31025495  1  0.084319  -1e-05  0.102558  0.098555  -1.3e-05  1.018926  0.0
H  H86  1  0.94295386  0.15442130  0.18985320  1  0.082267  -2e-05  0.102581  0.098913  -2.1e-05  1.018954  0.0
H  H87  1  0.44176601  0.69010744  0.84540485  1  0.082319  1.2e-05  0.102547  0.098475  1.3e-05  1.019244  0.0
C  C88  1  0.30567282  0.59630875  0.40900743  1  0.959906  0.003603  0.133331  0.134487  0.002394  4.000496  0.002
C  C89  1  0.80592301  0.59093805  0.09603761  1  0.962333  -0.003604  0.133013  0.133667  -0.002397  3.999872  -0.002
C  C90  1  0.80603346  0.90907464  0.40398144  1  0.962825  0.003608  0.13321  0.133792  0.002409  3.999816  0.002
C  C91  1  0.30555529  0.90377331  0.09103593  1  0.960831  0.003586  0.13321  0.134069  0.00238  3.999548  0.002
C  C92  1  0.69435750  0.40371551  0.59094363  1  0.963162  -0.003603  0.133374  0.134082  -0.002397  4.000028  -0.002
C  C93  1  0.19408384  0.40905219  0.90394989  1  0.962769  0.003605  0.132862  0.133794  0.002396  4.000101  0.002
C  C94  1  0.19394301  0.09091952  0.59602722  1  0.963196  -0.003613  0.133074  0.133708  -0.002409  3.999862  -0.002
C  C95  1  0.69443913  0.09620951  0.90898555  1  0.959492  -0.003586  0.132786  0.133173  -0.002381  4.000088  -0.002
C  C96  1  0.91954969  0.34699982  0.45183904  1  0.936387  0.001145  0.190332  0.198108  0.001676  4.083909  0.003
C  C97  1  0.41969147  0.54814625  0.84688657  1  0.949163  -0.001172  0.189552  0.197799  -0.001696  4.083993  -0.004
C  C98  1  0.41965587  0.95180472  0.65317390  1  0.948276  0.001156  0.189588  0.197495  0.001678  4.08413  0.003
C  C99  1  0.91965947  0.15308923  0.04808667  1  0.935397  0.001152  0.18961  0.197944  0.00169  4.084559  0.004
C  C100  1  0.08048340  0.65303428  0.54812825  1  0.936223  -0.00114  0.190481  0.198793  -0.001675  4.083048  -0.003
C  C101  1  0.58033609  0.45184151  0.15311817  1  0.947948  0.001177  0.189732  0.198155  0.001695  4.083395  0.004
C  C102  1  0.58028608  0.04816382  0.34684119  1  0.949399  -0.001158  0.189678  0.198027  -0.001678  4.083931  -0.004
C  C103  1  0.08031838  0.84691182  0.95192248  1  0.935274  -0.001149  0.18964  0.197904  -0.001689  4.084605  -0.004
C  C104  1  0.18251217  0.35775585  0.49477870  1  0.938635  0.003874  0.115907  0.127746  0.003234  4.046039  0.005
C  C105  1  0.68265745  0.50517590  0.85782454  1  0.935852  -0.003896  0.115862  0.127693  -0.003258  4.046531  -0.005
C  C106  1  0.68253714  0.99484313  0.64223279  1  0.935529  0.003885  0.115536  0.127386  0.003239  4.04695  0.005
C  C107  1  0.18258169  0.14221494  0.00516962  1  0.938483  0.003877  0.115563  0.127302  0.003249  4.047164  0.005
C  C108  1  0.81751125  0.64227528  0.50519844  1  0.937917  -0.003875  0.116077  0.128251  -0.003234  4.045525  -0.005
C  C109  1  0.31737563  0.49480695  0.14216298  1  0.93641  0.003894  0.115978  0.128027  0.003257  4.045988  0.005
C  C110  1  0.31738961  0.00514757  0.35779064  1  0.934997  -0.003884  0.11582  0.127772  -0.003238  4.04638  -0.005
C  C111  1  0.81737821  0.85778760  0.99483019  1  0.938855  -0.003878  0.115682  0.127393  -0.003249  4.046748  -0.005
C  C112  1  0.56332826  0.56492726  0.37375238  1  1.001404  -0.000799  0.202849  0.21783  -0.000744  4.080005  0.0
C  C113  1  0.06337469  0.62625271  0.06438862  1  0.948015  0.000778  0.203242  0.218348  0.000728  4.078766  0.0
C  C114  1  0.06349938  0.87375561  0.43562155  1  0.948459  -0.000798  0.2033  0.217873  -0.000751  4.079535  0.0
C  C115  1  0.56317634  0.93520473  0.12627270  1  1.002018  -0.000823  0.203058  0.218138  -0.000764  4.080338  0.0
C  C116  1  0.43671863  0.43511177  0.62620752  1  0.996698  0.000801  0.202846  0.217627  0.000741  4.080763  0.0
C  C117  1  0.93664458  0.37373211  0.93560726  1  0.948389  -0.000778  0.203248  0.218317  -0.000729  4.079414  0.0
C  C118  1  0.93645361  0.12623067  0.56439402  1  0.948821  0.0008  0.203394  0.217954  0.000752  4.079422  0.0
C  C119  1  0.43682360  0.06477464  0.87374435  1  1.002986  0.000822  0.20285  0.217995  0.000762  4.080495  0.0
C  C120  1  0.73725621  0.55377587  0.33992995  1  0.447443  -0.001219  0.123128  0.162122  -0.000155  4.006093  -0.001
C  C121  1  0.23729616  0.66009085  0.05308869  1  0.45984  0.001131  0.122556  0.161199  0.000155  4.005815  0.001
C  C122  1  0.23743711  0.83993216  0.44690632  1  0.45979  -0.001149  0.122678  0.161861  -0.000176  4.006462  -0.001
C  C123  1  0.73708964  0.94639840  0.16008289  1  0.447333  -0.001226  0.123074  0.161854  -0.000174  4.006812  -0.001
C  C124  1  0.26282934  0.44627350  0.66003191  1  0.452482  0.001211  0.123387  0.162122  0.000155  4.006853  0.001
C  C125  1  0.76273416  0.33989690  0.94691753  1  0.460172  -0.001133  0.122672  0.161272  -0.000155  4.005766  -0.001
C  C126  1  0.76253245  0.16005658  0.55310334  1  0.460069  0.001149  0.122697  0.161856  0.000175  4.006301  0.001
C  C127  1  0.26292411  0.05357999  0.83992776  1  0.446206  0.001221  0.122884  0.161696  0.000174  4.007207  0.001
C  C128  1  0.01426741  0.49609493  0.34612476  1  0.487199  -0.00107  0.049586  0.097675  0.000205  3.952545  -0.001
C  C129  1  0.51452284  0.65385212  0.99560182  1  0.477937  0.001034  0.04932  0.097137  -0.000205  3.95187  0.001
C  C130  1  0.51449219  0.84614521  0.50448829  1  0.475986  -0.001107  0.049463  0.097387  0.000164  3.951278  -0.001
C  C131  1  0.01412903  0.00405165  0.15386550  1  0.486346  -0.00114  0.050096  0.098872  0.000168  3.950211  -0.001
C  C132  1  0.98577257  0.50393081  0.65381891  1  0.486853  0.001073  0.049973  0.098116  -0.000202  3.951495  0.001
C  C133  1  0.48552405  0.34613908  0.00440538  1  0.476982  -0.001031  0.049275  0.097234  0.000206  3.95157  -0.001
C  C134  1  0.48547875  0.15385585  0.49551890  1  0.474625  0.001106  0.0495  0.097362  -0.000163  3.951309  0.001
C  C135  1  0.98586539  0.99594250  0.84615055  1  0.486884  0.001141  0.050132  0.098904  -0.000169  3.950834  0.001
C  C136  1  0.96822735  0.57192094  0.25717054  1  -0.087141  -0.003757  -0.066337  -0.023676  -0.002476  3.945831  -0.002
C  C137  1  0.46830408  0.74283550  0.07107832  1  -0.090785  0.003769  -0.066975  -0.024674  0.002483  3.946786  0.002
C  C138  1  0.46865988  0.75725706  0.42887627  1  -0.092147  -0.003806  -0.066813  -0.024055  -0.002489  3.946936  -0.002
C  C139  1  0.96805229  0.92825388  0.24284329  1  -0.093881  -0.003808  -0.066157  -0.022616  -0.002489  3.945861  -0.002
C  C140  1  0.03186925  0.42813039  0.74279181  1  -0.088747  0.003758  -0.066353  -0.023616  0.002476  3.946332  0.002
C  C141  1  0.53172210  0.25715373  0.92892839  1  -0.089946  -0.003768  -0.066917  -0.024593  -0.002482  3.94698  -0.002
C  C142  1  0.53133454  0.24275287  0.57111860  1  -0.091056  0.003805  -0.066811  -0.024234  0.002488  3.947226  0.002
C  C143  1  0.03198080  0.07173387  0.75716784  1  -0.092417  0.003808  -0.066183  -0.022634  0.002489  3.945548  0.002
C  C144  1  0.08055307  0.52608587  0.28910568  1  -0.040538  0.006505  -0.082655  -0.122781  0.004421  3.947032  0.005
C  C145  1  0.58081357  0.71086864  0.02545427  1  -0.035205  -0.006503  -0.082419  -0.121775  -0.004439  3.948396  -0.005
C  C146  1  0.58093984  0.78917096  0.47459467  1  -0.034667  0.005859  -0.082648  -0.122924  0.003995  3.94818  0.005
C  C147  1  0.08041536  0.97405962  0.21089321  1  -0.039455  0.005898  -0.083216  -0.124274  0.003999  3.947724  0.005
C  C148  1  0.91951315  0.47394872  0.71085472  1  -0.038798  -0.006507  -0.082731  -0.123209  -0.004424  3.947217  -0.005
C  C149  1  0.41922780  0.28912256  0.97454997  1  -0.035808  0.006504  -0.082449  -0.121801  0.004439  3.9486  0.005
C  C150  1  0.41906563  0.21084193  0.52540512  1  -0.035707  -0.005857  -0.082632  -0.122572  -0.003994  3.948233  -0.005
C  C151  1  0.91958872  0.02593601  0.78912334  1  -0.041121  -0.0059  -0.083168  -0.124408  -0.004  3.947977  -0.005
C  C152  1  0.46935340  0.35180935  0.37489121  1  0.550184  1e-05  0.046149  0.104924  7.1e-05  4.008382  0.0
C  C153  1  0.96970936  0.62537420  0.85131017  1  0.560573  -8e-06  0.046049  0.10494  -6.8e-05  4.007336  0.0
C  C154  1  0.96965978  0.87462099  0.64867179  1  0.560573  7e-06  0.04603  0.104754  6.6e-05  4.007412  0.0
C  C155  1  0.46951176  0.14854240  0.12506011  1  0.560176  8e-06  0.046081  0.105069  6.5e-05  4.008415  0.0
C  C156  1  0.53065069  0.64820946  0.62509480  1  0.551271  -9e-06  0.046091  0.105182  -7.1e-05  4.007888  0.0
C  C157  1  0.03030715  0.37461208  0.14869801  1  0.560273  8e-06  0.046062  0.104977  6.8e-05  4.007229  0.0
C  C158  1  0.03026145  0.12536381  0.35134329  1  0.561702  -7e-06  0.045925  0.104367  -6.6e-05  4.007529  0.0
C  C159  1  0.53044675  0.85145225  0.87495003  1  0.559726  -8e-06  0.046056  0.105268  -6.5e-05  4.008357  0.0
C  C160  1  0.75368478  0.32351933  0.41825907  1  0.539475  -6e-05  0.118018  0.162365  -7.5e-05  4.032431  0.0
C  C161  1  0.25381014  0.58173032  0.82324069  1  0.481717  8.8e-05  0.117729  0.1612  9.5e-05  4.032473  0.0
C  C162  1  0.25379998  0.91817682  0.67678067  1  0.479312  -6e-05  0.117724  0.162076  -7.4e-05  4.031715  0.0
C  C163  1  0.75389348  0.17666624  0.08165447  1  0.497026  -8.1e-05  0.118515  0.162771  -9.2e-05  4.032052  0.0
C  C164  1  0.24632206  0.67651229  0.58172249  1  0.539575  6e-05  0.118267  0.162492  7.5e-05  4.031827  0.0
C  C165  1  0.74621466  0.41825596  0.17677094  1  0.481296  -8.8e-05  0.117869  0.161413  -9.5e-05  4.032025  0.0
C  C166  1  0.74613230  0.08179468  0.32323392  1  0.478566  6e-05  0.117616  0.161532  7.4e-05  4.032295  0.0
C  C167  1  0.24608713  0.82333728  0.91835862  1  0.497574  8e-05  0.118551  0.162836  9.2e-05  4.03238  0.0
C  C168  1  0.79330935  0.58571294  0.28236386  1  0.010456  0.005082  -0.072697  -0.139524  0.003475  3.908501  0.004
C  C169  1  0.29325676  0.71768313  0.08481240  1  0.046589  -0.005021  -0.072579  -0.139603  -0.003482  3.908356  -0.004
C  C170  1  0.29362613  0.78240564  0.41509632  1  0.039386  0.005101  -0.072859  -0.140251  0.003564  3.908054  0.004
C  C171  1  0.79312398  0.91448857  0.21766068  1  0.006651  0.005157  -0.073367  -0.14061  0.003561  3.90821  0.004
C  C172  1  0.20680244  0.41434775  0.71760242  1  0.011654  -0.005078  -0.073061  -0.1401  -0.003476  3.908825  -0.004
C  C173  1  0.70678047  0.28229379  0.91519480  1  0.045821  0.005027  -0.0727  -0.139741  0.003484  3.908118  0.004
C  C174  1  0.70636415  0.21759296  0.58490890  1  0.039507  -0.005103  -0.07299  -0.140452  -0.003565  3.907883  -0.004
C  C175  1  0.20691187  0.08548933  0.78235292  1  0.006639  -0.005157  -0.073379  -0.140824  -0.003561  3.908515  -0.004
C  C176  1  0.43926264  0.28813912  0.35145451  1  -0.079617  -0.000667  -0.091828  -0.143205  -0.000434  3.990887  0.0
C  C177  1  0.93934640  0.64851537  0.78750938  1  -0.076432  0.000711  -0.092105  -0.143486  0.000455  3.990281  0.0
C  C178  1  0.93937648  0.85133648  0.71243048  1  -0.0749  -0.000654  -0.091942  -0.142711  -0.000424  3.990318  0.0
C  C179  1  0.43971160  0.21223327  0.14848802  1  -0.08105  -0.000707  -0.09185  -0.144134  -0.000451  3.990149  0.0
C  C180  1  0.56074696  0.71187474  0.64855119  1  -0.078745  0.000667  -0.091818  -0.14343  0.000434  3.990643  0.0
C  C181  1  0.06067011  0.35145712  0.21249095  1  -0.076561  -0.000712  -0.092079  -0.143479  -0.000455  3.990127  0.0
C  C182  1  0.06053094  0.14865423  0.28758557  1  -0.076427  0.000655  -0.091614  -0.142152  0.000424  3.989863  0.0
C  C183  1  0.56023035  0.78775793  0.85152853  1  -0.081295  0.000707  -0.091878  -0.144386  0.000451  3.990697  0.0
C  C184  1  0.73455562  0.25825715  0.39692184  1  -0.06807  -0.000627  -0.085183  -0.152074  -0.000374  3.920473  0.0
C  C185  1  0.23436468  0.60275197  0.75784908  1  -0.01048  0.00068  -0.084702  -0.151004  0.000431  3.919632  0.0
C  C186  1  0.23444498  0.89702053  0.74213143  1  -0.02608  -0.000627  -0.084394  -0.151478  -0.000374  3.920172  0.0
C  C187  1  0.73505071  0.24194645  0.10296498  1  -0.029084  -0.000684  -0.084981  -0.152558  -0.000432  3.920419  0.0
C  C188  1  0.26546089  0.74176460  0.60308533  1  -0.067369  0.000628  -0.085398  -0.152312  0.000374  3.920683  0.0
C  C189  1  0.76567531  0.39723332  0.24215959  1  -0.010813  -0.00068  -0.084736  -0.151008  -0.000431  3.919806  0.0
C  C190  1  0.76547901  0.10296229  0.25788512  1  -0.02576  0.000627  -0.084052  -0.150726  0.000374  3.919458  0.0
C  C191  1  0.26490780  0.75804966  0.89705894  1  -0.02941  0.000684  -0.084973  -0.152572  0.000432  3.920137  0.0
C  C192  1  0.57527459  0.24074388  0.36271374  1  -0.006665  5e-06  -0.07406  -0.027943  1.9e-05  3.978547  0.0
C  C193  1  0.07503833  0.63693289  0.74016076  1  -0.028933  4.2e-05  -0.074146  -0.028479  3.6e-05  3.977775  0.0
C  C194  1  0.07511811  0.86281539  0.75977559  1  -0.011311  1.1e-05  -0.073943  -0.028565  2.4e-05  3.979251  0.0
C  C195  1  0.57589256  0.25955758  0.13719376  1  -0.006278  -3.5e-05  -0.07417  -0.027619  -3.3e-05  3.978465  0.0
C  C196  1  0.42473639  0.75926898  0.63730623  1  -0.008684  -5e-06  -0.073843  -0.027688  -1.9e-05  3.978685  0.0
C  C197  1  0.92499061  0.36304305  0.25984497  1  -0.028088  -4.2e-05  -0.074326  -0.028752  -3.7e-05  3.977907  0.0
C  C198  1  0.92478240  0.13717482  0.24023948  1  -0.011002  -1.2e-05  -0.074275  -0.029155  -2.4e-05  3.979354  0.0
C  C199  1  0.42405767  0.74043508  0.86283016  1  -0.005334  3.6e-05  -0.074239  -0.027652  3.3e-05  3.978277  0.0
N  N200  1  0.36851026  0.55180550  0.45318028  1  -0.704906  -0.075345  -0.262454  -0.173842  -0.052058  3.58333  -0.068
N  N201  1  0.86855082  0.54676810  0.05164978  1  -0.710076  0.075337  -0.262683  -0.17314  0.052051  3.581605  0.068
N  N202  1  0.86862132  0.95323628  0.44837350  1  -0.709908  -0.075339  -0.262752  -0.173392  -0.052058  3.582216  -0.068
N  N203  1  0.36840994  0.94825055  0.04683187  1  -0.706375  -0.075421  -0.262612  -0.173459  -0.052101  3.583117  -0.068
N  N204  1  0.63151592  0.44822515  0.54677373  1  -0.708531  0.075358  -0.262223  -0.173341  0.05206  3.582209  0.068
N  N205  1  0.13149469  0.45321277  0.94835201  1  -0.710426  -0.075342  -0.262855  -0.173494  -0.052052  3.581978  -0.068
N  N206  1  0.13132477  0.04674852  0.55164256  1  -0.7099  0.075331  -0.262632  -0.173502  0.052048  3.582219  0.068
N  N207  1  0.63157343  0.05173818  0.95319206  1  -0.706865  0.075424  -0.262313  -0.172757  0.052101  3.582382  0.068
N  N208  1  0.93862926  0.41098232  0.46948719  1  -0.725109  0.090475  -0.279775  -0.21489  0.061076  3.63877  0.079
N  N209  1  0.43877087  0.53055644  0.91090532  1  -0.726358  -0.090629  -0.279351  -0.213992  -0.06117  3.638448  -0.079
N  N210  1  0.43868372  0.96945433  0.58916457  1  -0.724241  0.09052  -0.27928  -0.214118  0.061105  3.639353  0.079
N  N211  1  0.93850902  0.08909856  0.03044899  1  -0.727134  0.090597  -0.279605  -0.213934  0.061142  3.638715  0.079
N  N212  1  0.06142454  0.58905671  0.53047074  1  -0.725547  -0.090485  -0.280042  -0.215094  -0.061084  3.639662  -0.079
N  N213  1  0.56126912  0.46942689  0.08909794  1  -0.726058  0.090635  -0.27932  -0.214105  0.061176  3.637696  0.079
N  N214  1  0.56126927  0.03052554  0.41085100  1  -0.724972  -0.090512  -0.279388  -0.214586  -0.061103  3.639906  -0.079
N  N215  1  0.06146331  0.91090052  0.96956558  1  -0.727976  -0.090598  -0.279646  -0.213997  -0.061148  3.639107  -0.079
N  N216  1  0.07209392  0.31161530  0.46718507  1  -1.184275  0.006611  -0.355742  -0.403257  0.004111  3.232414  0.005
N  N217  1  0.57222262  0.53272798  0.81159128  1  -1.182896  -0.00692  -0.355825  -0.403434  -0.004316  3.231978  -0.005
N  N218  1  0.57219818  0.96723456  0.68846035  1  -1.182659  0.006616  -0.355756  -0.403396  0.004113  3.232622  0.005
N  N219  1  0.07232970  0.18840785  0.03274907  1  -1.182751  0.006907  -0.355518  -0.403293  0.004306  3.233371  0.005
N  N220  1  0.92791569  0.68841386  0.53279502  1  -1.183121  -0.006612  -0.355833  -0.403589  -0.004111  3.232186  -0.005
N  N221  1  0.42779528  0.46726275  0.18840509  1  -1.182848  0.006923  -0.355832  -0.403635  0.004317  3.231783  0.005
N  N222  1  0.42774100  0.03274482  0.31155670  1  -1.182482  -0.006611  -0.356045  -0.403794  -0.004111  3.23181  -0.005
N  N223  1  0.92763158  0.81159518  0.96725221  1  -1.182315  -0.006908  -0.355512  -0.403198  -0.004307  3.232788  -0.005
N  N224  1  0.42322228  0.60616931  0.35857382  1  -1.184351  -0.002453  -0.347154  -0.384746  -0.001584  3.211688  -0.002
N  N225  1  0.92351103  0.64141768  0.10566459  1  -1.180709  0.002461  -0.347304  -0.384798  0.001608  3.211667  0.002
N  N226  1  0.92363995  0.85860214  0.39435811  1  -1.181161  -0.002442  -0.347556  -0.384836  -0.001585  3.212101  -0.002
N  N227  1  0.42309401  0.89395977  0.14148889  1  -1.185227  -0.00248  -0.347241  -0.38482  -0.001613  3.211721  -0.002
N  N228  1  0.57681494  0.39386331  0.64137969  1  -1.18563  0.002447  -0.3472  -0.384502  0.001585  3.211729  0.002
N  N229  1  0.07648201  0.35858044  0.89431454  1  -1.181091  -0.002457  -0.34716  -0.384604  -0.001606  3.211659  -0.002
N  N230  1  0.07632961  0.14139497  0.60565006  1  -1.181238  0.002446  -0.347507  -0.38491  0.001587  3.212278  0.002
N  N231  1  0.57691145  0.10601813  0.85852865  1  -1.183983  0.00248  -0.346941  -0.384359  0.001612  3.211593  0.002
N  N232  1  0.53351363  0.53180282  0.43039306  1  -0.709147  0.071158  -0.27268  -0.209541  0.048967  3.576003  0.063
N  N233  1  0.03345091  0.56960458  0.03145994  1  -0.708584  -0.071091  -0.272116  -0.209434  -0.048958  3.573742  -0.063
N  N234  1  0.03351430  0.93040467  0.46854292  1  -0.708689  0.071177  -0.271976  -0.208823  0.049016  3.573801  0.063
N  N235  1  0.53338728  0.96828678  0.06960606  1  -0.709352  0.071112  -0.272501  -0.209726  0.04895  3.575486  0.063
N  N236  1  0.46652773  0.46823571  0.56956586  1  -0.70888  -0.071154  -0.272726  -0.209463  -0.048971  3.575846  -0.063
N  N237  1  0.96660289  0.43037579  0.96854480  1  -0.708283  0.071101  -0.272026  -0.209423  0.04896  3.57431  0.063
N  N238  1  0.96642074  0.06957470  0.53147757  1  -0.709284  -0.071176  -0.272195  -0.208748  -0.049017  3.573585  -0.063
N  N239  1  0.46660023  0.03170048  0.93041394  1  -0.709744  -0.071108  -0.272516  -0.209828  -0.048947  3.575583  -0.063
N  N240  1  0.10751023  0.41836203  0.49705312  1  -0.705504  0.009708  -0.245379  -0.248579  0.006246  3.348132  0.006
N  N241  1  0.60766813  0.50298200  0.91839964  1  -0.704479  -0.009701  -0.245146  -0.248615  -0.006238  3.348441  -0.006
N  N242  1  0.60750711  0.99706817  0.58166451  1  -0.704034  0.009712  -0.245283  -0.248761  0.006249  3.348014  0.006
N  N243  1  0.10738751  0.08164483  0.00289315  1  -0.704948  0.009691  -0.245204  -0.249195  0.006233  3.348185  0.006
N  N244  1  0.89253805  0.58166961  0.50291269  1  -0.70478  -0.009705  -0.245338  -0.249013  -0.006245  3.348314  -0.006
N  N245  1  0.39237462  0.49699888  0.08158984  1  -0.704182  0.009698  -0.245404  -0.248923  0.006237  3.34811  0.006
N  N246  1  0.39243345  0.00292352  0.41835400  1  -0.703957  -0.00971  -0.245129  -0.248397  -0.00625  3.348399  -0.006
N  N247  1  0.89257652  0.91835721  0.99711502  1  -0.704422  -0.009692  -0.245095  -0.248952  -0.006233  3.348245  -0.006
N  N248  1  0.84778870  0.50971185  0.37103198  1  -1.181935  0.094806  -0.329442  -0.24956  0.063519  3.580047  0.082
N  N249  1  0.34796347  0.62893707  0.00921553  1  -1.187385  -0.094877  -0.329015  -0.248547  -0.06357  3.579415  -0.082
N  N250  1  0.34792059  0.87102565  0.49084631  1  -1.187717  0.094768  -0.32915  -0.248568  0.063489  3.580552  0.082
N  N251  1  0.84763889  0.99044457  0.12895809  1  -1.182849  0.094722  -0.329467  -0.249537  0.063476  3.579271  0.082
N  N252  1  0.15226509  0.49032127  0.62892055  1  -1.184325  -0.094816  -0.32956  -0.249306  -0.063535  3.578832  -0.082
N  N253  1  0.65209309  0.37104921  0.99079560  1  -1.186607  0.094864  -0.329024  -0.248451  0.06356  3.579564  0.082
N  N254  1  0.65203930  0.12896555  0.50916728  1  -1.187231  -0.094762  -0.329084  -0.248537  -0.063489  3.58019  -0.082
N  N255  1  0.15235691  0.00954466  0.87105501  1  -1.182569  -0.094727  -0.329388  -0.249453  -0.063484  3.57991  -0.082
N  N256  1  0.62212490  0.36956185  0.40716248  1  -1.213762  -0.000496  -0.32037  -0.313323  -0.000298  3.420746  0.0
N  N257  1  0.12247712  0.59309872  0.86923378  1  -1.211529  0.000589  -0.32017  -0.312941  0.000359  3.419299  0.0
N  N258  1  0.12241028  0.90691920  0.63078655  1  -1.210465  -0.000522  -0.320299  -0.313315  -0.000315  3.419598  0.0
N  N259  1  0.62215067  0.13069213  0.09276238  1  -1.213563  -0.000581  -0.320551  -0.313755  -0.000354  3.419482  0.0
N  N260  1  0.37789576  0.63046880  0.59280580  1  -1.214003  0.000494  -0.320378  -0.313447  0.000297  3.420566  0.0
N  N261  1  0.87754768  0.40689052  0.13077293  1  -1.210649  -0.00059  -0.320291  -0.313141  -0.00036  3.41908  0.0
N  N262  1  0.87752061  0.09305772  0.36922311  1  -1.211715  0.000523  -0.320398  -0.313306  0.000316  3.420685  0.0
N  N263  1  0.37781475  0.86930794  0.90724530  1  -1.21319  0.000579  -0.320636  -0.31393  0.000353  3.420212  0.0
