# generated using pymatgen
data_FeH12C8(NO4)2
_symmetry_space_group_name_H-M   'P 1'
_cell_length_a   7.46027713
_cell_length_b   7.63067924
_cell_length_c   9.29809935
_cell_angle_alpha   89.68799929
_cell_angle_beta   90.58427413
_cell_angle_gamma   108.45143718
_symmetry_Int_Tables_number   1
_chemical_formula_structural   FeH12C8(NO4)2
_chemical_formula_sum   'Fe2 H24 C16 N4 O16'
_cell_volume   502.07448008
_cell_formula_units_Z   2
loop_
 _symmetry_equiv_pos_site_id
 _symmetry_equiv_pos_as_xyz
  1  'x, y, z'
loop_
 _atom_site_type_symbol
 _atom_site_label
 _atom_site_symmetry_multiplicity
 _atom_site_fract_x
 _atom_site_fract_y
 _atom_site_fract_z
 _atom_site_occupancy
 _atom_site_hle17_ddec_charge
 _atom_site_hle17_ddec_spin_density
 _atom_site_hle17_ddec_sum_bond_order
 _atom_site_hle17_magmom
 _atom_site_hse06_10hf_ddec_charge
 _atom_site_hse06_10hf_ddec_spin_density
 _atom_site_hse06_10hf_ddec_sum_bond_order
 _atom_site_hse06_10hf_magmom
 _atom_site_hse06_ddec_charge
 _atom_site_hse06_ddec_spin_density
 _atom_site_hse06_ddec_sum_bond_order
 _atom_site_hse06_magmom
 _atom_site_pbe_cm5_charge
 _atom_site_pbe_ddec_charge
 _atom_site_pbe_ddec_spin_density
 _atom_site_pbe_ddec_sum_bond_order
 _atom_site_pbe_magmom
Fe  Fe0  1  0.00000000  0.00000000  0.00000000  1  1.19418  -4.010451  1.884819  -3.666  1.092398  -3.954917  2.35163  -3.664  1.160141  -4.011064  2.27109  -3.721  0.64782  1.033942  -3.893812  2.412843  -3.602
Fe  Fe1  1  0.49999983  0.99999887  0.49999993  1  0.952801  0.134024  2.447689  -0.002  0.901234  0.080135  2.94174  -0.016  0.982858  0.114035  2.846916  -0.007  0.593721  0.849264  0.037352  3.002668  -0.039
H  H2  1  0.41425106  0.22315506  0.88865085  1  0.135664  0.000211  0.939103  0.0  0.142186  0.000276  1.005  0.0  0.145877  0.0003  1.002344  0.0  0.125531  0.139294  0.000234  1.00735  0.0
H  H3  1  0.08426458  0.77696937  0.38994460  1  0.140529  1.7e-05  0.933008  0.0  0.147231  0.00011  0.997505  0.0  0.151157  0.00011  0.994817  0.0  0.129189  0.144295  8.9e-05  0.999699  0.0
H  H4  1  0.58574899  0.77684549  0.11134893  1  0.135626  0.000211  0.939119  0.0  0.142179  0.000276  1.005004  0.0  0.14587  0.0003  1.002349  0.0  0.125522  0.139283  0.000234  1.007355  0.0
H  H5  1  0.91573369  0.22302980  0.61005518  1  0.140522  1.7e-05  0.933056  0.0  0.147237  0.00011  0.997559  0.0  0.151165  0.00011  0.994871  0.0  0.129193  0.144298  8.9e-05  0.999759  0.0
H  H6  1  0.66387040  0.33247702  0.88739138  1  0.121951  2.3e-05  0.913073  0.0  0.129929  -7e-06  0.978067  0.0  0.132948  1.5e-05  0.976081  0.0  0.123081  0.127562  -2.5e-05  0.979921  0.0
H  H7  1  0.83504429  0.66538044  0.38056771  1  0.120144  2e-05  0.914931  0.0  0.128265  7.4e-05  0.979773  0.0  0.131355  7.6e-05  0.977736  0.0  0.1223  0.125735  5.7e-05  0.981742  0.0
H  H8  1  0.33613279  0.66752490  0.11260948  1  0.121944  2.3e-05  0.913086  0.0  0.129954  -7e-06  0.978049  0.0  0.132977  1.5e-05  0.97606  0.0  0.123088  0.127585  -2.5e-05  0.979903  0.0
H  H9  1  0.16495397  0.33461873  0.61943206  1  0.120143  2e-05  0.914909  0.0  0.128273  7.4e-05  0.979769  0.0  0.131364  7.6e-05  0.977734  0.0  0.122312  0.125746  5.7e-05  0.981735  0.0
H  H10  1  0.64883098  0.25255768  0.25427213  1  0.111478  -0.000121  0.967521  0.0  0.118484  -0.000208  1.036591  0.0  0.121093  -0.00017  1.034654  0.0  0.120752  0.11634  -0.000242  1.038384  0.0
H  H11  1  0.85795805  0.75364745  0.75179409  1  0.104399  0.000543  0.971065  0.0  0.112236  0.00053  1.042061  0.0  0.114223  0.000466  1.040437  0.0  0.117941  0.111221  0.000646  1.042856  0.0
H  H12  1  0.35117130  0.74744148  0.74572658  1  0.111459  -0.000121  0.967522  0.0  0.118473  -0.000208  1.036589  0.0  0.12108  -0.00017  1.034659  0.0  0.120762  0.11633  -0.000242  1.038379  0.0
H  H13  1  0.14204022  0.24635172  0.24820676  1  0.104457  0.000542  0.971022  0.0  0.112263  0.00053  1.042033  0.0  0.114251  0.000466  1.04041  0.0  0.117952  0.111248  0.000646  1.04283  0.0
H  H14  1  0.64712925  0.14099429  0.08754713  1  0.126743  0.000462  0.944708  0.0  0.138092  0.000318  1.006813  0.0  0.141375  0.000293  1.004698  0.0  0.124382  0.136216  0.000374  1.007858  0.0
H  H15  1  0.85314307  0.86150724  0.58358998  1  0.126959  0.000113  0.944233  0.0  0.138627  3e-05  1.005138  0.0  0.141998  -6e-06  1.003149  0.0  0.123838  0.13567  0.000131  1.007403  0.0
H  H16  1  0.35286991  0.85900764  0.91245156  1  0.126761  0.000462  0.944671  0.0  0.138116  0.000318  1.006784  0.0  0.141399  0.000293  1.004666  0.0  0.124389  0.136239  0.000374  1.007829  0.0
H  H17  1  0.14685699  0.13849331  0.41640980  1  0.126892  0.000114  0.944299  0.0  0.138596  3e-05  1.005143  0.0  0.141966  -6e-06  1.003154  0.0  0.123829  0.135641  0.000131  1.007408  0.0
H  H18  1  0.04483343  0.35995611  0.08077315  1  0.414246  -1e-05  0.896259  0.0  0.382529  -0.000196  0.962757  -0.001  0.393427  -6.7e-05  0.946911  0.0  0.290254  0.374672  -0.000326  0.974151  -0.001
H  H19  1  0.47176803  0.65561663  0.57952946  1  0.410915  -0.000182  0.890166  0.0  0.381427  -8.9e-05  0.959347  0.0  0.39158  -0.000136  0.944892  0.0  0.295918  0.374506  -0.000131  0.969183  0.0
H  H20  1  0.95516351  0.64004306  0.91922877  1  0.414234  -9e-06  0.896283  0.0  0.38252  -0.000196  0.962778  -0.001  0.393419  -6.7e-05  0.94693  0.0  0.290249  0.374661  -0.000326  0.974175  -0.001
H  H21  1  0.52823157  0.34438254  0.42046925  1  0.410934  -0.000181  0.890122  0.0  0.381452  -8.9e-05  0.959307  0.0  0.391606  -0.000136  0.944849  0.0  0.295921  0.374527  -0.000131  0.969147  0.0
H  H22  1  0.05079741  0.35261411  0.91040462  1  0.42803  0.00019  0.870029  0.0  0.398079  -6e-06  0.931589  0.0  0.409626  7.8e-05  0.91483  0.0  0.295383  0.390012  -6.8e-05  0.943282  0.0
H  H23  1  0.46190664  0.66345583  0.40893625  1  0.425442  0.000409  0.858826  0.001  0.396568  -0.000445  0.927718  -0.001  0.407611  -0.000488  0.911907  -0.001  0.301625  0.389198  -0.000278  0.938295  -0.001
H  H24  1  0.94920042  0.64738368  0.08959730  1  0.428075  0.000191  0.86996  0.0  0.398154  -6e-06  0.931497  0.0  0.4097  7.9e-05  0.91474  0.0  0.295383  0.390083  -6.8e-05  0.943198  0.0
H  H25  1  0.53809430  0.33654334  0.59106246  1  0.42546  0.000409  0.858788  0.001  0.396588  -0.000445  0.927688  -0.001  0.407628  -0.000488  0.911883  -0.001  0.301621  0.389225  -0.000278  0.938256  -0.001
C  C26  1  0.50001010  0.49254712  0.15403645  1  0.543088  -0.000331  3.756474  0.0  0.484224  -6.4e-05  4.060626  0.0  0.513932  6e-06  4.05943  0.0  0.255998  0.464347  -0.000207  4.060472  0.0
C  C27  1  0.99770002  0.50686526  0.65350957  1  0.546509  -0.000175  3.749809  0.0  0.48536  -0.000123  4.055824  0.0  0.516217  -7.3e-05  4.05301  0.0  0.256997  0.464452  -7.8e-05  4.057154  0.0
C  C28  1  0.49999309  0.50745481  0.84596333  1  0.54314  -0.000332  3.756543  -0.001  0.484262  -6.4e-05  4.060665  0.0  0.513967  5e-06  4.059474  0.0  0.256049  0.464397  -0.000207  4.060506  0.0
C  C29  1  0.00230002  0.49313530  0.34648805  1  0.546632  -0.000176  3.749886  0.0  0.485497  -0.000123  4.055874  0.0  0.516353  -7.3e-05  4.053062  0.0  0.257064  0.464587  -7.8e-05  4.057206  0.0
C  C30  1  0.52931670  0.34657754  0.92435169  1  -0.143774  5.6e-05  3.640494  0.0  -0.199125  -7e-06  3.892344  0.0  -0.199802  4.7e-05  3.898796  0.0  -0.050274  -0.198633  -6.3e-05  3.888421  0.0
C  C31  1  0.96895909  0.65240332  0.42219464  1  -0.144657  3e-05  3.639313  0.0  -0.2005  0.000192  3.89296  0.0  -0.201136  0.0002  3.89845  0.0  -0.049567  -0.199933  0.000168  3.889662  0.0
C  C32  1  0.47068426  0.65342577  0.07564916  1  -0.143661  5.7e-05  3.640395  0.0  -0.19909  -7e-06  3.89228  0.0  -0.19977  4.6e-05  3.898738  0.0  -0.050255  -0.198592  -6.3e-05  3.888349  0.0
C  C33  1  0.03104006  0.34759447  0.57780406  1  -0.144645  3e-05  3.639337  0.0  -0.200493  0.000192  3.893009  0.0  -0.201135  0.000199  3.898502  0.0  -0.049596  -0.199928  0.000168  3.889711  0.0
C  C34  1  0.56479406  0.20176362  0.15768817  1  -0.174151  -0.000642  3.625164  -0.001  -0.233966  -0.000461  3.871132  -0.001  -0.234569  -0.000215  3.875056  0.0  -0.064133  -0.233842  -0.000738  3.869105  -0.001
C  C35  1  0.93703648  0.79966353  0.65313336  1  -0.171178  -0.001445  3.615587  -0.003  -0.232665  -0.000649  3.864807  -0.002  -0.233376  -0.00053  3.869337  -0.001  -0.06325  -0.231678  -0.000748  3.862204  -0.002
C  C36  1  0.43520555  0.79823555  0.84231268  1  -0.174124  -0.000642  3.625074  -0.001  -0.233963  -0.000461  3.871093  -0.001  -0.234566  -0.000215  3.875017  0.0  -0.064143  -0.233838  -0.000738  3.869062  -0.001
C  C37  1  0.06296268  0.20033426  0.34686642  1  -0.171214  -0.001445  3.615663  -0.003  -0.232646  -0.000649  3.864833  -0.002  -0.233352  -0.000529  3.869355  -0.001  -0.063257  -0.231659  -0.000748  3.862233  -0.002
C  C38  1  0.38150803  0.04913067  0.19404812  1  0.691105  0.000287  3.794969  -0.002  0.645152  -0.004488  4.099535  -0.009  0.685527  -0.00446  4.089765  -0.01  0.223054  0.615795  -0.003409  4.106647  -0.007
C  C39  1  0.12783667  0.94715739  0.68480803  1  0.686879  0.005835  3.826351  0.008  0.640061  0.003826  4.134404  0.004  0.677748  0.002936  4.124679  0.003  0.219985  0.612414  0.005691  4.140819  0.006
C  C40  1  0.61849515  0.95087126  0.80595166  1  0.691192  0.000288  3.794868  -0.002  0.645205  -0.004488  4.099506  -0.009  0.68558  -0.004461  4.089733  -0.01  0.223073  0.615849  -0.003409  4.106617  -0.007
C  C41  1  0.87216428  0.05284178  0.31519283  1  0.686945  0.005835  3.826459  0.008  0.640117  0.003826  4.134492  0.004  0.677803  0.002936  4.124767  0.003  0.22003  0.61247  0.005691  4.140906  0.006
N  N42  1  0.53204500  0.35605017  0.08071481  1  -0.140013  0.000174  3.447549  0.0  -0.059494  3.4e-05  3.683684  0.0  -0.078748  8e-05  3.705261  0.0  -0.262508  -0.04646  2.3e-05  3.668627  0.0
N  N43  1  0.96211969  0.64148414  0.57839817  1  -0.136658  8.8e-05  3.442926  0.0  -0.056298  0.000296  3.680381  0.0  -0.074665  0.000289  3.700564  0.0  -0.263447  -0.044359  0.00028  3.666823  0.0
N  N44  1  0.46795551  0.64395176  0.91928604  1  -0.140076  0.000172  3.447546  0.0  -0.059539  3.4e-05  3.683719  0.0  -0.078794  8e-05  3.705299  0.0  -0.262527  -0.046503  2.3e-05  3.668652  0.0
N  N45  1  0.03787902  0.35851641  0.42160052  1  -0.136658  8.9e-05  3.442993  0.0  -0.056388  0.000296  3.680573  0.0  -0.074754  0.000289  3.700754  0.0  -0.263491  -0.044452  0.00028  3.66702  0.0
O  O46  1  0.49566730  0.49429089  0.29013787  1  -0.594969  0.000216  2.006139  0.0  -0.53138  -0.000296  2.229322  0.0  -0.55442  -0.00031  2.220789  0.0  -0.292632  -0.516275  -0.000233  2.235084  0.0
O  O47  1  0.00249182  0.50579056  0.78957309  1  -0.596734  -0.000127  2.0258  0.0  -0.529523  -0.000246  2.248986  0.0  -0.553912  -0.000122  2.239764  0.0  -0.29183  -0.513211  -0.000374  2.255555  -0.001
O  O48  1  0.50433455  0.50571104  0.70986299  1  -0.59494  0.000215  2.006163  0.0  -0.531338  -0.000297  2.22934  0.0  -0.554372  -0.00031  2.220807  0.0  -0.292638  -0.51627  -0.000233  2.235129  0.0
O  O49  1  0.99750778  0.49420861  0.21042561  1  -0.596814  -0.000127  2.025829  0.0  -0.529609  -0.000246  2.249037  0.0  -0.554002  -0.000122  2.23982  0.0  -0.29186  -0.513294  -0.000374  2.255608  -0.001
O  O50  1  0.36317645  0.96804489  0.31549104  1  -0.572382  -0.001559  2.170764  -0.006  -0.526138  0.000494  2.449031  -0.001  -0.565939  0.002416  2.436466  0.001  -0.300882  -0.499101  -0.001809  2.456778  -0.005
O  O51  1  0.15150876  0.03714259  0.80162117  1  -0.635435  -0.018461  2.072008  -0.03  -0.580765  -0.018008  2.337602  -0.026  -0.61196  -0.015587  2.324195  -0.022  -0.311615  -0.55657  -0.020663  2.345675  -0.03
O  O52  1  0.63682315  0.03195429  0.68450767  1  -0.572405  -0.001559  2.170739  -0.006  -0.526144  0.000494  2.449028  -0.001  -0.565947  0.002416  2.436462  0.001  -0.300884  -0.499106  -0.001809  2.456773  -0.005
O  O53  1  0.84849130  0.96285796  0.19837969  1  -0.635457  -0.018461  2.072104  -0.03  -0.580778  -0.018008  2.337697  -0.026  -0.611972  -0.015587  2.324291  -0.022  -0.311628  -0.556583  -0.020663  2.345769  -0.03
O  O54  1  0.25551507  0.00399543  0.09605806  1  -0.659812  -0.022772  2.09784  -0.028  -0.606211  -0.025223  2.375838  -0.029  -0.639313  -0.022073  2.359932  -0.023  -0.326133  -0.58041  -0.027993  2.386604  -0.034
O  O55  1  0.24706719  0.96969590  0.58479616  1  -0.615761  -0.007839  2.21328  -0.022  -0.568824  -0.004479  2.49829  -0.015  -0.602882  -0.002866  2.481673  -0.013  -0.317381  -0.544351  -0.006206  2.50848  -0.018
O  O56  1  0.74448499  0.99600512  0.90394279  1  -0.65985  -0.022772  2.097795  -0.028  -0.606244  -0.025223  2.375833  -0.029  -0.639346  -0.022073  2.359927  -0.023  -0.326135  -0.580442  -0.027993  2.386597  -0.034
O  O57  1  0.75293286  0.03030050  0.41520470  1  -0.61581  -0.007839  2.213274  -0.022  -0.568876  -0.004479  2.498287  -0.015  -0.602934  -0.002867  2.48167  -0.013  -0.317406  -0.544403  -0.006206  2.508477  -0.018
O  O58  1  0.08209560  0.29537077  0.99936095  1  -0.840557  -0.019211  1.956222  -0.032  -0.796596  -0.020237  2.178952  -0.03  -0.821278  -0.017508  2.142123  -0.026  -0.585917  -0.777647  -0.022756  2.20437  -0.034
O  O59  1  0.43077179  0.71891583  0.49776742  1  -0.781565  0.002415  2.026343  0.002  -0.743825  0.006439  2.261034  0.006  -0.775236  0.005814  2.226558  0.005  -0.567457  -0.720899  0.006882  2.283075  0.007
O  O60  1  0.91790267  0.70462840  0.00063990  1  -0.840586  -0.019212  1.956195  -0.032  -0.796674  -0.020237  2.178852  -0.03  -0.821357  -0.017509  2.142019  -0.026  -0.585904  -0.777722  -0.022756  2.204276  -0.034
O  O61  1  0.56922915  0.28108333  0.50223128  1  -0.781593  0.002413  2.02627  0.002  -0.743875  0.006439  2.260998  0.006  -0.775284  0.005815  2.226521  0.005  -0.567451  -0.720946  0.006882  2.283029  0.007
