# generated using pymatgen
data_LiH8C9NO4
_symmetry_space_group_name_H-M   'P 1'
_cell_length_a   4.86917416
_cell_length_b   11.54865473
_cell_length_c   15.22807224
_cell_angle_alpha   89.99981289
_cell_angle_beta   89.99955869
_cell_angle_gamma   89.99952420
_symmetry_Int_Tables_number   1
_chemical_formula_structural   LiH8C9NO4
_chemical_formula_sum   'Li4 H32 C36 N4 O16'
_cell_volume   856.31121970
_cell_formula_units_Z   4
loop_
 _symmetry_equiv_pos_site_id
 _symmetry_equiv_pos_as_xyz
  1  'x, y, z'
loop_
 _atom_site_type_symbol
 _atom_site_label
 _atom_site_symmetry_multiplicity
 _atom_site_fract_x
 _atom_site_fract_y
 _atom_site_fract_z
 _atom_site_occupancy
 _atom_site_hle17_bader_spin_density
 _atom_site_hle17_ddec_charge
 _atom_site_hle17_ddec_spin_density
 _atom_site_hle17_ddec_sum_bond_order
 _atom_site_hle17_magmom
 _atom_site_hse06_10hf_bader_spin_density
 _atom_site_hse06_10hf_ddec_charge
 _atom_site_hse06_10hf_ddec_spin_density
 _atom_site_hse06_10hf_ddec_sum_bond_order
 _atom_site_hse06_10hf_magmom
 _atom_site_hse06_bader_spin_density
 _atom_site_hse06_ddec_charge
 _atom_site_hse06_ddec_spin_density
 _atom_site_hse06_ddec_sum_bond_order
 _atom_site_hse06_magmom
 _atom_site_pbe_bader_spin_density
 _atom_site_pbe_cm5_charge
 _atom_site_pbe_ddec_charge
 _atom_site_pbe_ddec_spin_density
 _atom_site_pbe_ddec_sum_bond_order
 _atom_site_pbe_magmom
Li  Li0  1  0.13741376  0.34114250  0.01700615  1  0  0.854675  0  0.400173  0  0  0.816027  0  0.504193  0  0  0.825305  0  0.487679  0  0  0.505178  0.809063  0  0.516307  0
Li  Li1  1  0.63742468  0.15885869  0.98299149  1  0  0.85466  0  0.400168  0  0  0.816001  0  0.504216  0  0  0.825279  0  0.4877  0  0  0.505147  0.809033  0  0.516334  0
Li  Li2  1  0.86258313  0.84114057  0.48298879  1  0  0.854635  0  0.400212  0  0  0.815963  0  0.504282  0  0  0.825248  0  0.487759  0  0  0.505172  0.809006  0  0.516398  0
Li  Li3  1  0.36259224  0.65885255  0.51700377  1  0  0.854682  0  0.400133  0  0  0.816038  0  0.504141  0  0  0.825319  0  0.487625  0  0  0.505163  0.809081  0  0.516253  0
H  H4  1  0.13440608  0.66979958  0.96780238  1  0  0.097447  0  0.974599  0  0  0.106031  0  1.040064  0  0  0.10851  0  1.039397  0  0  0.103288  0.104227  0  1.040589  0
H  H5  1  0.63440853  0.83020035  0.03220910  1  0  0.097454  0  0.974578  0  0  0.10602  0  1.040098  0  0  0.108501  0  1.039423  0  0  0.103317  0.104219  0  1.040619  0
H  H6  1  0.86558801  0.16979560  0.53219613  1  0  0.097395  0  0.974633  0  0  0.106021  0  1.040068  0  0  0.108498  0  1.039402  0  0  0.103277  0.104218  0  1.04059  0
H  H7  1  0.36557833  0.33018493  0.46778981  1  0  0.09756  0  0.974601  0  0  0.106082  0  1.040119  0  0  0.108559  0  1.039453  0  0  0.103351  0.104282  0  1.040645  0
H  H8  1  0.11881436  0.88160443  0.93515059  1  0  0.096481  0  0.960161  0  0  0.106772  0  1.019966  0  0  0.109179  0  1.020362  0  0  0.102437  0.105051  0  1.019809  0
H  H9  1  0.61883481  0.61839642  0.06486355  1  0  0.096322  0  0.960392  0  0  0.106721  0  1.020052  0  0  0.109137  0  1.020415  0  0  0.102408  0.104987  0  1.01993  0
H  H10  1  0.88118556  0.38159680  0.56485132  1  0  0.096325  0  0.96025  0  0  0.106685  0  1.01999  0  0  0.109098  0  1.020366  0  0  0.102404  0.10496  0  1.019835  0
H  H11  1  0.38115033  0.11838282  0.43513393  1  0  0.096309  0  0.960382  0  0  0.106667  0  1.020088  0  0  0.109084  0  1.020452  0  0  0.102369  0.104933  0  1.019975  0
H  H12  1  0.44993670  0.96475839  0.82756327  1  0  0.096804  0  0.976939  0  0  0.102454  0  1.044538  0  0  0.106351  0  1.041135  0  0  0.102297  0.099593  0  1.047046  0
H  H13  1  0.94994797  0.53524917  0.17245338  1  0  0.096753  0  0.976879  0  0  0.102421  0  1.044415  0  0  0.106323  0  1.041  0  0  0.102332  0.099566  0  1.046917  0
H  H14  1  0.55007791  0.46475139  0.67244566  1  0  0.096732  0  0.976888  0  0  0.102377  0  1.04448  0  0  0.106287  0  1.041039  0  0  0.102317  0.099522  0  1.046994  0
H  H15  1  0.05003480  0.03524230  0.32754431  1  0  0.096806  0  0.976845  0  0  0.102411  0  1.044478  0  0  0.106315  0  1.041059  0  0  0.102299  0.099558  0  1.046978  0
H  H16  1  0.78139149  0.83801424  0.75158625  1  0  0.105182  0  0.959888  0  0  0.11924  0  1.014098  0  0  0.122165  0  1.0135  0  0  0.105889  0.117139  0  1.014666  0
H  H17  1  0.28140522  0.66199647  0.24841963  1  0  0.105161  0  0.959821  0  0  0.119233  0  1.014027  0  0  0.122156  0  1.013433  0  0  0.105868  0.117132  0  1.014607  0
H  H18  1  0.21862167  0.33800714  0.74841972  1  0  0.105162  0  0.95996  0  0  0.11926  0  1.014118  0  0  0.122184  0  1.013527  0  0  0.105904  0.117158  0  1.014691  0
H  H19  1  0.71857696  0.16199552  0.25157774  1  0  0.105207  0  0.959847  0  0  0.119352  0  1.013945  0  0  0.122277  0  1.013346  0  0  0.105901  0.117249  0  1.014526  0
H  H20  1  0.16466803  0.58528895  0.69994255  1  0  0.110192  0  0.91279  0  0  0.123546  0  0.970283  0  0  0.125075  0  0.968956  0  0  0.126834  0.1224  0  0.971421  0
H  H21  1  0.66467636  0.91471608  0.30005507  1  0  0.110111  0  0.912905  0  0  0.123532  0  0.970351  0  0  0.125067  0  0.969025  0  0  0.126827  0.122387  0  0.971489  0
H  H22  1  0.83534427  0.08528395  0.80005947  1  0  0.110121  0  0.91288  0  0  0.123571  0  0.970276  0  0  0.12511  0  0.968935  0  0  0.126819  0.122422  0  0.971413  0
H  H23  1  0.33532516  0.41472180  0.19994034  1  0  0.110155  0  0.912844  0  0  0.123541  0  0.970272  0  0  0.125074  0  0.968943  0  0  0.126845  0.122396  0  0.971408  0
H  H24  1  0.12337366  0.72964948  0.73451015  1  0  0.089472  0  0.958318  0  0  0.0976  0  1.028346  0  0  0.098254  0  1.029348  0  0  0.11124  0.097134  0  1.027786  0
H  H25  1  0.62338999  0.77035309  0.26549085  1  0  0.089458  0  0.958279  0  0  0.097601  0  1.028307  0  0  0.098263  0  1.029314  0  0  0.111232  0.097131  0  1.027748  0
H  H26  1  0.87663561  0.22964449  0.76549150  1  0  0.089466  0  0.958432  0  0  0.097595  0  1.028466  0  0  0.09825  0  1.029473  0  0  0.111224  0.097125  0  1.027904  0
H  H27  1  0.37660429  0.27035852  0.23450756  1  0  0.089544  0  0.9583  0  0  0.097629  0  1.028325  0  0  0.09829  0  1.029332  0  0  0.111245  0.097158  0  1.027763  0
H  H28  1  0.66506281  0.35538214  0.90303887  1  0  0.340957  0  0.899726  0  0  0.320337  0  0.96878  0  0  0.329302  0  0.960644  0  0  0.325163  0.313879  0  0.974814  0
H  H29  1  0.16507454  0.14462070  0.09696790  1  0  0.341028  0  0.899577  0  0  0.320381  0  0.968643  0  0  0.329352  0  0.960495  0  0  0.325163  0.313911  0  0.974692  0
H  H30  1  0.33492945  0.85537835  0.59695983  1  0  0.340972  0  0.899607  0  0  0.320355  0  0.968655  0  0  0.32932  0  0.960515  0  0  0.325169  0.313895  0  0.97469  0
H  H31  1  0.83491621  0.64461400  0.40303870  1  0  0.340845  0  0.89993  0  0  0.320245  0  0.96892  0  0  0.329208  0  0.960777  0  0  0.325119  0.313782  0  0.974961  0
H  H32  1  0.81619059  0.47154186  0.84697892  1  0  0.339489  0  0.911279  0  0  0.319021  0  0.974687  0  0  0.327449  0  0.967501  0  0  0.314611  0.313004  0  0.979903  0
H  H33  1  0.31621362  0.02845962  0.15302159  1  0  0.339501  0  0.911208  0  0  0.319001  0  0.974652  0  0  0.32743  0  0.967462  0  0  0.314644  0.312984  0  0.979868  0
H  H34  1  0.18381566  0.97153747  0.65302474  1  0  0.339511  0  0.911233  0  0  0.319022  0  0.974674  0  0  0.327453  0  0.967481  0  0  0.314606  0.31301  0  0.979876  0
H  H35  1  0.68377135  0.52845624  0.34698072  1  0  0.339486  0  0.911185  0  0  0.318977  0  0.974658  0  0  0.327406  0  0.967467  0  0  0.314572  0.312963  0  0.97987  0
C  C36  1  0.65153043  0.68208966  0.81845915  1  0  0.271835  0  3.753944  0  0  0.254665  0  4.012785  0  0  0.268257  0  4.028742  0  0  0.095514  0.245418  0  4.001941  0
C  C37  1  0.15155283  0.81791628  0.18154375  1  0  0.272068  0  3.753774  0  0  0.254686  0  4.012776  0  0  0.26828  0  4.028727  0  0  0.09559  0.245441  0  4.001929  0
C  C38  1  0.34846752  0.18208155  0.68154918  1  0  0.271953  0  3.753916  0  0  0.254653  0  4.012912  0  0  0.268247  0  4.028869  0  0  0.095549  0.24541  0  4.002051  0
C  C39  1  0.84843428  0.31791203  0.31845650  1  0  0.271906  0  3.753689  0  0  0.254538  0  4.01268  0  0  0.268127  0  4.028641  0  0  0.095522  0.245281  0  4.001848  0
C  C40  1  0.46671236  0.63414572  0.88059861  1  0  -0.191725  0  3.714249  0  0  -0.17435  0  3.953803  0  0  -0.185962  0  3.975172  0  0  -0.026461  -0.166845  0  3.939534  0
C  C41  1  0.96671804  0.86586352  0.11940683  1  0  -0.191973  0  3.714121  0  0  -0.17446  0  3.953694  0  0  -0.186075  0  3.975062  0  0  -0.026402  -0.166947  0  3.939415  0
C  C42  1  0.53329480  0.13413813  0.61940065  1  0  -0.191856  0  3.714025  0  0  -0.174397  0  3.953642  0  0  -0.18601  0  3.975009  0  0  -0.026456  -0.166878  0  3.939354  0
C  C43  1  0.03327424  0.36585475  0.38059396  1  0  -0.191977  0  3.714222  0  0  -0.174516  0  3.953669  0  0  -0.186128  0  3.975037  0  0  -0.026448  -0.167003  0  3.939397  0
C  C44  1  0.45436626  0.50977795  0.90778279  1  0  0.649191  0  3.834705  0  0  0.605173  0  4.116861  0  0  0.63594  0  4.113353  0  0  0.251327  0.584372  0  4.118764  0
C  C45  1  0.95439055  0.99022787  0.09221743  1  0  0.649389  0  3.834713  0  0  0.605243  0  4.116981  0  0  0.63601  0  4.113463  0  0  0.25124  0.584442  0  4.118878  0
C  C46  1  0.54563119  0.00977303  0.59221219  1  0  0.649218  0  3.834901  0  0  0.605112  0  4.117145  0  0  0.635881  0  4.113633  0  0  0.251222  0.584302  0  4.119053  0
C  C47  1  0.04559911  0.49022067  0.40778436  1  0  0.649195  0  3.834863  0  0  0.605214  0  4.116896  0  0  0.635975  0  4.113389  0  0  0.251198  0.584416  0  4.118798  0
C  C48  1  0.27652071  0.70838922  0.92096761  1  0  -0.040636  0  3.743672  0  0  -0.067322  0  3.995887  0  0  -0.063662  0  4.014565  0  0  -0.081278  -0.069454  0  3.983131  0
C  C49  1  0.77652690  0.79161284  0.07903894  1  0  -0.04047  0  3.7436  0  0  -0.067207  0  3.995892  0  0  -0.063543  0  4.014566  0  0  -0.081314  -0.069338  0  3.983127  0
C  C50  1  0.72348489  0.20838378  0.57903212  1  0  -0.040477  0  3.743657  0  0  -0.06723  0  3.995915  0  0  -0.063568  0  4.014594  0  0  -0.081233  -0.069364  0  3.983153  0
C  C51  1  0.22345665  0.29160242  0.42096204  1  0  -0.04058  0  3.743793  0  0  -0.067241  0  3.99603  0  0  -0.06358  0  4.014705  0  0  -0.081288  -0.069375  0  3.983275  0
C  C52  1  0.26835816  0.82621598  0.90263488  1  0  -0.101583  0  3.77351  0  0  -0.116359  0  4.031898  0  0  -0.121522  0  4.052161  0  0  -0.1007  -0.113151  0  4.018248  0
C  C53  1  0.76837047  0.67379130  0.09737497  1  0  -0.101638  0  3.773673  0  0  -0.116483  0  4.032072  0  0  -0.12164  0  4.052337  0  0  -0.10073  -0.113269  0  4.018411  0
C  C54  1  0.73164087  0.32620784  0.59736915  1  0  -0.101533  0  3.773723  0  0  -0.116367  0  4.032136  0  0  -0.121531  0  4.052406  0  0  -0.100715  -0.113151  0  4.018489  0
C  C55  1  0.23161556  0.17378179  0.40262302  1  0  -0.101563  0  3.77377  0  0  -0.11639  0  4.032145  0  0  -0.121547  0  4.052414  0  0  -0.100744  -0.113182  0  4.018494  0
C  C56  1  0.45374306  0.87232767  0.84201498  1  0  -0.027856  0  3.758116  0  0  -0.046307  0  4.016887  0  0  -0.042142  0  4.032297  0  0  -0.083578  -0.048735  0  4.006325  0
C  C57  1  0.95375481  0.62767901  0.15799641  1  0  -0.027756  0  3.757882  0  0  -0.046192  0  4.016698  0  0  -0.042031  0  4.032115  0  0  -0.083611  -0.048625  0  4.006144  0
C  C58  1  0.54627554  0.37232335  0.65799221  1  0  -0.027676  0  3.758052  0  0  -0.046112  0  4.016855  0  0  -0.041939  0  4.03227  0  0  -0.083574  -0.04855  0  4.006307  0
C  C59  1  0.04622808  0.12767036  0.34200433  1  0  -0.027817  0  3.757902  0  0  -0.046232  0  4.016732  0  0  -0.042071  0  4.032154  0  0  -0.083538  -0.04866  0  4.006176  0
C  C60  1  0.64231020  0.80077280  0.79976459  1  0  -0.206268  0  3.77719  0  0  -0.22706  0  4.036007  0  0  -0.23483  0  4.056691  0  0  -0.108633  -0.221995  0  4.022072  0
C  C61  1  0.14232024  0.69922711  0.20024228  1  0  -0.206302  0  3.776713  0  0  -0.227074  0  4.035566  0  0  -0.23485  0  4.056262  0  0  -0.108637  -0.222014  0  4.021646  0
C  C62  1  0.35770169  0.30077151  0.70024016  1  0  -0.206445  0  3.777015  0  0  -0.227211  0  4.035849  0  0  -0.234986  0  4.056535  0  0  -0.108711  -0.222151  0  4.021941  0
C  C63  1  0.85766731  0.19922291  0.29975697  1  0  -0.20632  0  3.776673  0  0  -0.227148  0  4.035501  0  0  -0.234915  0  4.056181  0  0  -0.108689  -0.222079  0  4.02158  0
C  C64  1  0.01063284  0.65300356  0.71144705  1  0  -0.076438  0  3.610571  0  0  -0.135146  0  3.870069  0  0  -0.131168  0  3.871097  0  0  -0.06046  -0.138074  0  3.869497  0
C  C65  1  0.51064082  0.84700371  0.28855290  1  0  -0.076471  0  3.610375  0  0  -0.135282  0  3.869956  0  0  -0.13134  0  3.871027  0  0  -0.060457  -0.138209  0  3.869388  0
C  C66  1  0.98937598  0.15299810  0.78855282  1  0  -0.076311  0  3.61056  0  0  -0.135077  0  3.870101  0  0  -0.131111  0  3.871153  0  0  -0.060369  -0.138005  0  3.869529  0
C  C67  1  0.48935800  0.34700454  0.21144334  1  0  -0.076538  0  3.610563  0  0  -0.135187  0  3.869926  0  0  -0.131229  0  3.870974  0  0  -0.060462  -0.138109  0  3.869351  0
C  C68  1  0.86547472  0.67929891  0.62445601  1  0  0.708984  0  3.876709  0  0  0.66471  0  4.177942  0  0  0.696129  0  4.168798  0  0  0.228491  0.643402  0  4.18352  0
C  C69  1  0.36548397  0.82071239  0.37554179  1  0  0.709213  0  3.876123  0  0  0.664764  0  4.177676  0  0  0.696195  0  4.168525  0  0  0.228448  0.643459  0  4.183256  0
C  C70  1  0.13453561  0.17929416  0.87554576  1  0  0.709054  0  3.876677  0  0  0.664667  0  4.178126  0  0  0.696089  0  4.168978  0  0  0.22844  0.643363  0  4.183712  0
C  C71  1  0.63451951  0.32070878  0.12445714  1  0  0.709051  0  3.876608  0  0  0.664628  0  4.178032  0  0  0.696052  0  4.168886  0  0  0.228402  0.643313  0  4.183616  0
N  N72  1  0.65513650  0.43856505  0.88115551  1  0  -0.67796  0  3.120694  0  0  -0.641364  0  3.361834  0  0  -0.663573  0  3.354504  0  0  -0.553968  -0.626197  0  3.366932  0
N  N73  1  0.15514122  0.06143609  0.11884604  1  0  -0.678114  0  3.120605  0  0  -0.641434  0  3.361808  0  0  -0.663649  0  3.354489  0  0  -0.554014  -0.626245  0  3.366901  0
N  N74  1  0.34486428  0.93855941  0.61884561  1  0  -0.678006  0  3.120457  0  0  -0.64137  0  3.361638  0  0  -0.663579  0  3.354309  0  0  -0.553953  -0.626188  0  3.366701  0
N  N75  1  0.84485744  0.56143031  0.38115816  1  0  -0.677793  0  3.12099  0  0  -0.64122  0  3.362148  0  0  -0.663413  0  3.354815  0  0  -0.553841  -0.626044  0  3.367224  0
O  O76  1  0.25892837  0.47505897  0.95504841  1  0  -0.676426  0  1.919361  0  0  -0.631853  0  2.148715  0  0  -0.65212  0  2.139004  0  0  -0.383161  -0.617702  0  2.154975  0
O  O77  1  0.75893896  0.02495049  0.04496077  1  0  -0.676507  0  1.919354  0  0  -0.631889  0  2.148769  0  0  -0.652156  0  2.139043  0  0  -0.383094  -0.617754  0  2.155034  0
O  O78  1  0.74106137  0.97505494  0.54494605  1  0  -0.676397  0  1.91954  0  0  -0.631793  0  2.148943  0  0  -0.652064  0  2.139229  0  0  -0.383117  -0.617657  0  2.155218  0
O  O79  1  0.24105225  0.52493945  0.45504220  1  0  -0.676441  0  1.91931  0  0  -0.631877  0  2.148619  0  0  -0.652151  0  2.138916  0  0  -0.383079  -0.617733  0  2.154884  0
O  O80  1  0.83387884  0.60867137  0.77842376  1  0  -0.276403  0  2.413835  0  0  -0.200271  0  2.643161  0  0  -0.219597  0  2.64714  0  0  -0.171723  -0.186526  0  2.640048  0
O  O81  1  0.33389870  0.89133224  0.22157149  1  0  -0.276418  0  2.41416  0  0  -0.20008  0  2.643448  0  0  -0.219389  0  2.647427  0  0  -0.171738  -0.186336  0  2.640335  0
O  O82  1  0.16612886  0.10866975  0.72157491  1  0  -0.276429  0  2.414289  0  0  -0.200243  0  2.643677  0  0  -0.219568  0  2.647665  0  0  -0.171739  -0.186504  0  2.640559  0
O  O83  1  0.66610536  0.39133482  0.27842595  1  0  -0.276309  0  2.413995  0  0  -0.200006  0  2.643206  0  0  -0.219324  0  2.647183  0  0  -0.171656  -0.186258  0  2.640092  0
O  O84  1  0.61723384  0.65287981  0.61496663  1  0  -0.681256  0  1.941691  0  0  -0.636177  0  2.174579  0  0  -0.657856  0  2.163911  0  0  -0.367496  -0.621046  0  2.181603  0
O  O85  1  0.11721560  0.84712971  0.38502782  1  0  -0.681395  0  1.941083  0  0  -0.636252  0  2.174065  0  0  -0.657937  0  2.163396  0  0  -0.367568  -0.621118  0  2.181086  0
O  O86  1  0.38279553  0.15287680  0.88502733  1  0  -0.681269  0  1.941334  0  0  -0.636175  0  2.174313  0  0  -0.657852  0  2.163643  0  0  -0.367522  -0.621048  0  2.181335  0
O  O87  1  0.88276884  0.34712013  0.11496776  1  0  -0.681285  0  1.941573  0  0  -0.636197  0  2.17457  0  0  -0.657875  0  2.163901  0  0  -0.367506  -0.621066  0  2.181592  0
O  O88  1  0.01876257  0.72738740  0.56646734  1  0  -0.804113  0  1.989994  0  0  -0.759331  0  2.241744  0  0  -0.779472  0  2.224673  0  0  -0.434796  -0.744941  0  2.253101  0
O  O89  1  0.51874588  0.77261897  0.43352997  1  0  -0.80411  0  1.990123  0  0  -0.75927  0  2.241958  0  0  -0.779404  0  2.224875  0  0  -0.43467  -0.744854  0  2.253262  0
O  O90  1  0.98126729  0.22738310  0.93352840  1  0  -0.804165  0  1.990455  0  0  -0.759342  0  2.242253  0  0  -0.779473  0  2.225174  0  0  -0.43475  -0.744913  0  2.253514  0
O  O91  1  0.48124219  0.27261957  0.06646515  1  0  -0.804114  0  1.98998  0  0  -0.759289  0  2.241783  0  0  -0.779426  0  2.224708  0  0  -0.434697  -0.744883  0  2.253112  0
