# generated using pymatgen
data_AlH9C24(BrO2)3
_symmetry_space_group_name_H-M   'P 1'
_cell_length_a   4.00352061
_cell_length_b   29.05306786
_cell_length_c   29.05260086
_cell_angle_alpha   119.99953044
_cell_angle_beta   90.00321874
_cell_angle_gamma   89.99452593
_symmetry_Int_Tables_number   1
_chemical_formula_structural   AlH9C24(BrO2)3
_chemical_formula_sum   'Al2 H18 C48 Br6 O12'
_cell_volume   2926.52183632
_cell_formula_units_Z   2
loop_
 _symmetry_equiv_pos_site_id
 _symmetry_equiv_pos_as_xyz
  1  'x, y, z'
loop_
 _atom_site_type_symbol
 _atom_site_label
 _atom_site_symmetry_multiplicity
 _atom_site_fract_x
 _atom_site_fract_y
 _atom_site_fract_z
 _atom_site_occupancy
 _atom_site_pbe_bader_charge
 _atom_site_pbe_bader_spin_density
 _atom_site_pbe_cm5_charge
 _atom_site_pbe_ddec_charge
 _atom_site_pbe_ddec_spin_density
 _atom_site_pbe_ddec_sum_bond_order
 _atom_site_pbe_magmom
Al  Al0  1  0.01080399  0.49999946  0.50000529  1  2.50697  0  0.425487  1.607791  0  2.560029  0
Al  Al1  1  0.01031847  0.16665986  0.83333426  1  2.506491  0  0.425641  1.607437  0  2.561085  0
H  H2  1  0.47106309  0.16819152  0.68997578  1  0.060099  0  0.109674  0.115796  0  0.984024  0
H  H3  1  0.48188662  0.21490607  0.63766705  1  0.037681  0  0.10785  0.111541  0  0.987424  0
H  H4  1  0.50915280  0.36540028  0.78425134  1  0.090891  0  0.108321  0.124752  0  0.98743  0
H  H5  1  0.50916448  0.30125977  0.54909031  1  0.090757  0  0.108303  0.124815  0  0.987314  0
H  H6  1  0.47176314  0.49847157  0.64337633  1  0.060046  0  0.109819  0.116013  0  0.983726  0
H  H7  1  0.48234576  0.45175606  0.69568108  1  0.037795  0  0.107885  0.111483  0  0.987169  0
H  H8  1  0.47117290  0.02176843  0.83180089  1  0.064794  0  0.109619  0.1157  0  0.984031  0
H  H9  1  0.48201064  0.92274511  0.78508232  1  0.043447  0  0.107887  0.111575  0  0.98711  0
H  H10  1  0.50917980  0.91884198  0.63459085  1  0.045861  0  0.108335  0.124895  0  0.98746  0
H  H11  1  0.50919735  0.74782481  0.69874037  1  0.046307  0  0.108339  0.124886  0  0.98714  0
H  H12  1  0.47173325  0.64489866  0.50152382  1  0.064966  0  0.109787  0.115921  0  0.983853  0
H  H13  1  0.48238402  0.74391918  0.54824205  1  0.043053  0  0.107898  0.111554  0  0.987057  0
H  H14  1  0.47113269  0.31003290  0.97822117  1  0.062029  0  0.109663  0.115941  0  0.984067  0
H  H15  1  0.48190571  0.36234603  0.07724138  1  0.099176  0  0.107831  0.111504  0  0.987377  0
H  H16  1  0.50920093  0.21577242  0.08117057  1  0.094199  0  0.108292  0.124739  0  0.987459  0
H  H17  1  0.50923416  0.45092323  0.25218277  1  0.092933  0  0.108402  0.124911  0  0.987144  0
H  H18  1  0.47170102  0.35662839  0.35510451  1  0.060805  0  0.109809  0.115947  0  0.983826  0
H  H19  1  0.48238953  0.30432951  0.25608073  1  0.100108  0  0.107924  0.111582  0  0.987095  0
C  C20  1  0.50794590  0.46084539  0.41864053  1  1.581914  0  0.277329  0.669948  0  4.058914  0
C  C21  1  0.50801156  0.45778620  0.53915655  1  1.574851  0  0.27728  0.670204  0  4.059021  0
C  C22  1  0.50792181  0.58136416  0.54221262  1  1.575478  0  0.277449  0.670279  0  4.058442  0
C  C23  1  0.50756314  0.20889049  0.79420291  1  1.575394  0  0.277045  0.669293  0  4.059164  0
C  C24  1  0.50760543  0.08529852  0.79110302  1  1.57664  0  0.276988  0.669144  0  4.059455  0
C  C25  1  0.50758135  0.20579894  0.91469690  1  1.578386  0  0.276833  0.669092  0  4.059601  0
C  C26  1  0.50006320  0.23975638  0.76578680  1  0.025819  0  -0.009321  -0.072361  0  3.925503  0
C  C27  1  0.48372351  0.21145541  0.71004734  1  0.020281  0  -0.076687  -0.077088  0  3.980001  0
C  C28  1  0.48868416  0.23743643  0.68092838  1  0.004801  0  -0.082471  -0.131851  0  3.956394  0
C  C29  1  0.50035980  0.29348842  0.70731128  1  0.035793  0  0.005233  0.156605  0  4.107497  0
C  C30  1  0.50767485  0.32217856  0.76335003  1  0.156835  0  -0.087258  -0.17814  0  3.923187  0
C  C31  1  0.51094460  0.29544776  0.79185638  1  -0.11072  0  -0.006907  0.105268  0  3.94674  0
C  C32  1  0.50115115  0.32108341  0.67868348  1  -0.066297  0  -0.039457  -0.099949  0  4.098879  0
C  C33  1  0.50120268  0.34557506  0.65465847  1  -0.291996  0  -0.039165  -0.099629  0  4.098602  0
C  C34  1  0.50051784  0.37317282  0.62603342  1  0.036912  0  0.005346  0.157076  0  4.107033  0
C  C35  1  0.50775747  0.34448296  0.56998950  1  0.156007  0  -0.087292  -0.178469  0  3.923454  0
C  C36  1  0.51109941  0.37121235  0.54148933  1  -0.110453  0  -0.006714  0.105707  0  3.946846  0
C  C37  1  0.50043477  0.42690507  0.56755494  1  0.026486  0  -0.009457  -0.072969  0  3.924708  0
C  C38  1  0.48422560  0.45520760  0.62330885  1  0.020092  0  -0.076397  -0.076521  0  3.979043  0
C  C39  1  0.48905884  0.42922088  0.65240867  1  0.003869  0  -0.082958  -0.132527  0  3.95727  0
C  C40  1  0.50011381  0.02601934  0.76023379  1  0.132465  0  -0.0093  -0.072418  0  3.9252  0
C  C41  1  0.48379842  0.99857489  0.78853739  1  -0.109184  0  -0.076548  -0.076713  0  3.979312  0
C  C42  1  0.48875539  0.94348127  0.76255217  1  0.189277  0  -0.082555  -0.132167  0  3.95674  0
C  C43  1  0.50040898  0.91381043  0.70650343  1  0.082242  0  0.005213  0.156687  0  4.107414  0
C  C44  1  0.50770718  0.94116089  0.67780760  1  -0.027376  0  -0.087416  -0.178534  0  3.922873  0
C  C45  1  0.51097807  0.99639753  0.70454400  1  -0.089107  0  -0.00669  0.105567  0  3.946752  0
C  C46  1  0.50122216  0.85759232  0.67890839  1  -0.077801  0  -0.039348  -0.099716  0  4.09881  0
C  C47  1  0.50129645  0.80907645  0.65442231  1  -0.28956  0  -0.039249  -0.099815  0  4.098246  0
C  C48  1  0.50056848  0.75285194  0.62682404  1  0.0824  0  0.005445  0.157339  0  4.106432  0
C  C49  1  0.50776503  0.72549806  0.65551496  1  -0.027729  0  -0.087286  -0.178496  0  3.922822  0
C  C50  1  0.51105336  0.67026896  0.62878337  1  -0.089565  0  -0.00677  0.105498  0  3.94686  0
C  C51  1  0.50037666  0.64064580  0.57309256  1  0.13245  0  -0.009326  -0.072615  0  3.924674  0
C  C52  1  0.48420057  0.66809307  0.54478948  1  -0.109432  0  -0.076461  -0.076566  0  3.979308  0
C  C53  1  0.48908494  0.72318223  0.57077706  1  0.189682  0  -0.083054  -0.132823  0  3.957219  0
C  C54  1  0.50009269  0.23421940  0.97397933  1  0.12597  0  -0.009236  -0.072408  0  3.92496  0
C  C55  1  0.48377371  0.28996762  0.00141631  1  -0.06806  0  -0.076628  -0.07716  0  3.97923  0
C  C56  1  0.48871801  0.31908658  0.05651543  1  -0.052476  0  -0.082461  -0.131755  0  3.956577  0
C  C57  1  0.50039297  0.29271040  0.08619124  1  0.068948  0  0.00535  0.156511  0  4.107681  0
C  C58  1  0.50770292  0.23666954  0.05884504  1  0.04332  0  -0.087379  -0.178215  0  3.923741  0
C  C59  1  0.51095867  0.20816313  0.00361450  1  -0.129071  0  -0.00689  0.105436  0  3.947357  0
C  C60  1  0.50120880  0.32133796  0.14241100  1  -0.419066  0  -0.039461  -0.099704  0  4.09914  0
C  C61  1  0.50128032  0.34535866  0.19092769  1  0.219169  0  -0.039234  -0.100027  0  4.098598  0
C  C62  1  0.50057000  0.37398012  0.24715287  1  0.069447  0  0.005378  0.157551  0  4.106428  0
C  C63  1  0.50778976  0.43002440  0.27450934  1  0.043549  0  -0.087427  -0.178724  0  3.923247  0
C  C64  1  0.51108825  0.45851729  0.32973754  1  -0.128454  0  -0.006832  0.105387  0  3.947059  0
C  C65  1  0.50040528  0.43245027  0.35936108  1  0.124489  0  -0.009177  -0.072181  0  3.924089  0
C  C66  1  0.48420330  0.37669740  0.33190804  1  -0.066026  0  -0.076453  -0.076723  0  3.979196  0
C  C67  1  0.48908534  0.34759939  0.27681959  1  -0.053656  0  -0.082991  -0.132735  0  3.957321  0
Br  Br68  1  0.50629963  0.33714536  0.86731473  1  -0.053177  0  0.020262  -0.071085  0  1.461469  0
Br  Br69  1  0.50636013  0.32952224  0.46602768  1  -0.052936  0  0.020129  -0.071263  0  1.461241  0
Br  Br70  1  0.50641690  0.03016045  0.66284638  1  -0.057225  0  0.02016  -0.071192  0  1.461379  0
Br  Br71  1  0.50626285  0.63649289  0.67047104  1  -0.057022  0  0.020126  -0.071235  0  1.46117  0
Br  Br72  1  0.50636661  0.13270326  0.96987157  1  -0.048995  0  0.020191  -0.071205  0  1.461311  0
Br  Br73  1  0.50629315  0.53398098  0.36352166  1  -0.049001  0  0.020106  -0.07127  0  1.461232  0
O  O74  1  0.74774811  0.55813167  0.55106304  1  -1.247961  0  -0.23334  -0.595475  0  2.405537  0
O  O75  1  0.74772346  0.49292450  0.44187398  1  -1.252597  0  -0.233201  -0.595178  0  2.405861  0
O  O76  1  0.74780951  0.44893845  0.50708092  1  -1.245529  0  -0.233036  -0.595124  0  2.406004  0
O  O77  1  0.27665386  0.55840035  0.50807022  1  -1.254162  0  -0.235332  -0.594299  0  2.362983  0
O  O78  1  0.27672804  0.49193553  0.55033830  1  -1.254107  0  -0.235462  -0.594639  0  2.362962  0
O  O79  1  0.27668053  0.44966415  0.44160342  1  -1.260171  0  -0.235348  -0.594398  0  2.363031  0
O  O80  1  0.74726679  0.17371952  0.89146529  1  -1.250554  0  -0.23293  -0.594931  0  2.406833  0
O  O81  1  0.74722819  0.21772829  0.82628107  1  -1.246461  0  -0.232914  -0.594909  0  2.407157  0
O  O82  1  0.74728958  0.10853319  0.78226090  1  -1.247607  0  -0.233063  -0.595  0  2.406727  0
O  O83  1  0.27618893  0.21698099  0.89173916  1  -1.258414  0  -0.235168  -0.593685  0  2.362312  0
O  O84  1  0.27623807  0.10825712  0.82524694  1  -1.255424  0  -0.23523  -0.593667  0  2.362192  0
O  O85  1  0.27618387  0.17474816  0.78301461  1  -1.254005  0  -0.235353  -0.593817  0  2.361846  0
