# generated using pymatgen
data_NiH28C35SN6O5
_symmetry_space_group_name_H-M   'P 1'
_cell_length_a   12.69767991
_cell_length_b   15.33241844
_cell_length_c   17.38895067
_cell_angle_alpha   90.00002706
_cell_angle_beta   104.27834897
_cell_angle_gamma   90.00007080
_symmetry_Int_Tables_number   1
_chemical_formula_structural   NiH28C35SN6O5
_chemical_formula_sum   'Ni4 H112 C140 S4 N24 O20'
_cell_volume   3280.80969582
_cell_formula_units_Z   4
loop_
 _symmetry_equiv_pos_site_id
 _symmetry_equiv_pos_as_xyz
  1  'x, y, z'
loop_
 _atom_site_type_symbol
 _atom_site_label
 _atom_site_symmetry_multiplicity
 _atom_site_fract_x
 _atom_site_fract_y
 _atom_site_fract_z
 _atom_site_occupancy
 _atom_site_pbe_bader_charge
 _atom_site_pbe_bader_spin_density
 _atom_site_pbe_cm5_charge
 _atom_site_pbe_ddec_charge
 _atom_site_pbe_ddec_spin_density
 _atom_site_pbe_ddec_sum_bond_order
 _atom_site_pbe_magmom
Ni  Ni0  1  0.25699115  0.22084027  0.86537884  1  1.168145  1.555156  0.65676  0.720234  1.777778  2.562085  1.542
Ni  Ni1  1  0.74300938  0.72084312  0.63462024  1  1.168118  1.555156  0.656761  0.72019  1.777774  2.562192  1.542
Ni  Ni2  1  0.74300784  0.77915929  0.13462171  1  1.168296  1.555145  0.656748  0.720185  1.77777  2.562224  1.542
Ni  Ni3  1  0.25699288  0.27915775  0.36537860  1  1.168164  1.555161  0.656748  0.720138  1.777775  2.562326  1.542
H  H4  1  0.87126425  0.34215538  0.65387769  1  0.068938  -1.8e-05  0.094827  0.085703  -4.1e-05  1.041837  0.0
H  H5  1  0.12873729  0.84215901  0.84612335  1  0.0689  -1.8e-05  0.094824  0.085644  -4.1e-05  1.041921  0.0
H  H6  1  0.12872987  0.65784484  0.34612024  1  0.068873  -1.8e-05  0.094847  0.085673  -4.1e-05  1.041908  0.0
H  H7  1  0.87127307  0.15784642  0.15388100  1  0.068672  -1.8e-05  0.094838  0.08566  -4.1e-05  1.041895  0.0
H  H8  1  0.79299572  0.35145585  0.50881095  1  0.135819  0.000156  0.082635  0.101351  6e-05  1.088869  0.0
H  H9  1  0.20700341  0.85145769  0.99118907  1  0.13579  0.000156  0.08265  0.101379  6e-05  1.088834  0.0
H  H10  1  0.20700411  0.64854371  0.49118457  1  0.135812  0.000156  0.082643  0.101335  6e-05  1.0889  0.0
H  H11  1  0.79299720  0.14854514  0.00881521  1  0.136  0.000156  0.082661  0.101372  6e-05  1.088877  0.0
H  H12  1  0.05851259  0.19527333  0.47153346  1  0.133277  0.000296  0.10138  0.124849  0.000244  1.046443  0.0
H  H13  1  0.94148719  0.69526914  0.02846376  1  0.133324  0.000296  0.10138  0.124885  0.000244  1.046331  0.0
H  H14  1  0.94149372  0.80472754  0.52846842  1  0.133131  0.000296  0.101378  0.12486  0.000244  1.046415  0.0
H  H15  1  0.05851020  0.30472651  0.97153304  1  0.133302  0.000296  0.10139  0.124883  0.000244  1.046413  0.0
H  H16  1  0.13261618  0.18394381  0.61587337  1  0.064998  0.000248  0.100423  0.1012  0.000161  1.01377  0.0
H  H17  1  0.86738756  0.68394300  0.88411938  1  0.06614  0.000249  0.100424  0.101214  0.000161  1.013814  0.0
H  H18  1  0.86738200  0.81605836  0.38412703  1  0.065396  0.000248  0.100431  0.101207  0.000161  1.013792  0.0
H  H19  1  0.13262042  0.31605722  0.11587073  1  0.065046  0.000248  0.100404  0.101122  0.000161  1.013856  0.0
H  H20  1  0.66779126  0.42170621  0.22150280  1  0.083618  0.000176  0.094319  0.100953  6.9e-05  1.051657  0.0
H  H21  1  0.33220646  0.92170937  0.27849645  1  0.083661  0.000176  0.09432  0.100985  6.9e-05  1.051623  0.0
H  H22  1  0.33220773  0.57829336  0.77849832  1  0.083611  0.000176  0.09431  0.100934  6.9e-05  1.051639  0.0
H  H23  1  0.66779010  0.07828759  0.72150308  1  0.083544  0.000176  0.094328  0.100975  6.9e-05  1.051644  0.0
H  H24  1  0.50679046  0.43251196  0.10568042  1  0.088418  1.3e-05  0.100906  0.104433  -2.3e-05  1.013642  0.0
H  H25  1  0.49320484  0.93251339  0.39431896  1  0.088189  1.3e-05  0.100952  0.104532  -2.3e-05  1.013699  0.0
H  H26  1  0.49320365  0.56748695  0.89432268  1  0.088267  1.3e-05  0.100915  0.104481  -2.3e-05  1.01363  0.0
H  H27  1  0.50679335  0.06748618  0.60567856  1  0.088188  1.3e-05  0.100926  0.104476  -2.3e-05  1.013724  0.0
H  H28  1  0.53763546  0.16099772  0.05616683  1  0.067234  0.00025  0.095324  0.09064  0.000177  1.039824  0.0
H  H29  1  0.46236259  0.66100305  0.44383755  1  0.067256  0.00025  0.095322  0.090674  0.000177  1.039771  0.0
H  H30  1  0.46236188  0.83899924  0.94383917  1  0.067202  0.00025  0.095311  0.090616  0.000177  1.039781  0.0
H  H31  1  0.53763883  0.33899782  0.55616574  1  0.067287  0.00025  0.095315  0.090681  0.000177  1.039692  0.0
H  H32  1  0.69743772  0.14924300  0.17154321  1  0.036035  -3e-06  0.098649  0.104091  -2.1e-05  1.01025  0.0
H  H33  1  0.30256195  0.64924420  0.32845973  1  0.03586  -3e-06  0.098679  0.104124  -2.1e-05  1.010217  0.0
H  H34  1  0.30256371  0.85075722  0.82845951  1  0.036053  -3e-06  0.09864  0.10406  -2.1e-05  1.01033  0.0
H  H35  1  0.69743784  0.35075341  0.67154441  1  0.035864  -3e-06  0.098645  0.104066  -2.1e-05  1.010255  0.0
H  H36  1  0.07599297  0.09911312  0.80691755  1  0.088818  0.001867  0.114729  0.085382  0.000598  1.054832  0.001
H  H37  1  0.92400652  0.59911292  0.69308474  1  0.088791  0.001866  0.114734  0.085418  0.000597  1.05481  0.001
H  H38  1  0.92400196  0.90088775  0.19308456  1  0.088545  0.001867  0.11472  0.085366  0.000598  1.054847  0.001
H  H39  1  0.07599410  0.40088273  0.30691668  1  0.088751  0.001867  0.114713  0.085373  0.000598  1.054859  0.001
H  H40  1  0.95568765  0.00338830  0.85746511  1  0.099904  0.001027  0.104795  0.10666  0.0005  1.034425  0.0
H  H41  1  0.04430599  0.50338849  0.64253492  1  0.099986  0.001027  0.104814  0.106643  0.0005  1.034499  0.0
H  H42  1  0.04430808  0.99661061  0.14253772  1  0.099892  0.001027  0.104814  0.106651  0.0005  1.034432  0.0
H  H43  1  0.95568408  0.49660782  0.35746170  1  0.099866  0.001027  0.104793  0.106662  0.0005  1.034433  0.0
H  H44  1  0.14384834  0.06698562  0.09490410  1  0.075499  0.001136  0.1061  0.108245  0.000552  1.028109  0.001
H  H45  1  0.85614957  0.56698807  0.40509503  1  0.075478  0.001136  0.10609  0.108236  0.000552  1.028114  0.001
H  H46  1  0.85614820  0.93301395  0.90509887  1  0.075544  0.001136  0.106101  0.108248  0.000552  1.028111  0.001
H  H47  1  0.14384782  0.43301541  0.59490120  1  0.075552  0.001136  0.106086  0.108264  0.000552  1.028108  0.001
H  H48  1  0.25753729  0.16161913  0.03193985  1  0.119856  0.002033  0.117677  0.09505  0.00075  1.003344  0.001
H  H49  1  0.74246485  0.66162150  0.46806181  1  0.119841  0.002033  0.117639  0.094979  0.00075  1.003375  0.001
H  H50  1  0.74245926  0.83838109  0.96806312  1  0.119846  0.002034  0.117696  0.095044  0.00075  1.003313  0.001
H  H51  1  0.25753821  0.33838133  0.53193890  1  0.119876  0.002033  0.117684  0.095072  0.00075  1.003333  0.001
H  H52  1  0.21233330  0.36255498  0.73746924  1  0.089726  0.002047  0.116275  0.084155  0.0007  1.018901  0.001
H  H53  1  0.78766341  0.86255533  0.76253093  1  0.089678  0.002047  0.116255  0.084133  0.0007  1.018913  0.001
H  H54  1  0.78766732  0.63744589  0.26253046  1  0.089701  0.002047  0.116283  0.084195  0.0007  1.018858  0.001
H  H55  1  0.21233396  0.13744294  0.23747047  1  0.089729  0.002047  0.116282  0.084192  0.0007  1.018856  0.001
H  H56  1  0.32039253  0.46866613  0.67826215  1  0.076972  0.001047  0.100361  0.105202  0.0005  1.050663  0.0
H  H57  1  0.67960599  0.96866901  0.82173667  1  0.077003  0.001046  0.100349  0.105208  0.0005  1.050659  0.0
H  H58  1  0.67961215  0.53133409  0.32173886  1  0.076921  0.001047  0.100344  0.10517  0.0005  1.050656  0.0
H  H59  1  0.32039138  0.03133447  0.17826243  1  0.07698  0.001047  0.100367  0.105221  0.0005  1.050667  0.0
H  H60  1  0.61030557  0.35116691  0.82567587  1  0.096552  0.000982  0.10652  0.114637  0.000469  1.008771  0.0
H  H61  1  0.38969358  0.85116551  0.67431956  1  0.096536  0.000982  0.106534  0.114655  0.000469  1.008838  0.0
H  H62  1  0.38969505  0.64883200  0.17432497  1  0.096577  0.000982  0.106524  0.114622  0.000469  1.008811  0.0
H  H63  1  0.61030706  0.14883471  0.32567669  1  0.096574  0.000982  0.10651  0.1146  0.000469  1.00884  0.0
H  H64  1  0.49165203  0.25159419  0.87785903  1  0.124347  0.001698  0.112541  0.08577  0.000513  1.036279  0.001
H  H65  1  0.50834936  0.75159222  0.62214080  1  0.124307  0.001698  0.112508  0.085726  0.000513  1.036253  0.001
H  H66  1  0.50834696  0.74840538  0.12214152  1  0.124354  0.001698  0.112546  0.085733  0.000513  1.036331  0.001
H  H67  1  0.49165451  0.24840734  0.37786064  1  0.124305  0.001698  0.112533  0.085707  0.000513  1.036309  0.001
H  H68  1  0.75194334  0.62641449  0.78495368  1  0.158849  0.001904  0.119146  0.095804  0.000687  1.035316  0.002
H  H69  1  0.24805784  0.12641286  0.71504375  1  0.158763  0.001904  0.119159  0.095836  0.000687  1.035284  0.002
H  H70  1  0.24806134  0.37358834  0.21504905  1  0.1589  0.001904  0.119151  0.095816  0.000687  1.035253  0.002
H  H71  1  0.75194361  0.87358932  0.28495265  1  0.158853  0.001904  0.119117  0.095777  0.000687  1.035251  0.002
H  H72  1  0.64808506  0.50947399  0.83572509  1  0.113772  0.00107  0.112138  0.120217  0.000517  1.000126  0.0
H  H73  1  0.35191106  0.00947505  0.66426735  1  0.11363  0.001071  0.112085  0.120129  0.000517  1.000144  0.0
H  H74  1  0.35191556  0.49052884  0.16427403  1  0.113755  0.00107  0.112136  0.120169  0.000517  1.000117  0.0
H  H75  1  0.64808635  0.99053169  0.33572428  1  0.113765  0.00107  0.112114  0.120177  0.000517  1.000107  0.0
H  H76  1  0.45160187  0.48085929  0.59587862  1  0.077041  0.001124  0.110204  0.118562  0.000523  0.995991  0.0
H  H77  1  0.54839343  0.98085948  0.90411904  1  0.077108  0.001124  0.11021  0.118595  0.000523  0.996025  0.0
H  H78  1  0.54839793  0.51913962  0.40412265  1  0.077018  0.001124  0.110204  0.118538  0.000523  0.996001  0.0
H  H79  1  0.45160151  0.01914205  0.09587789  1  0.077001  0.001124  0.110187  0.118519  0.000523  0.996021  0.0
H  H80  1  0.56569585  0.59857593  0.55596547  1  0.128652  0.002004  0.118162  0.092672  0.000715  1.025751  0.002
H  H81  1  0.43429877  0.09857396  0.94403306  1  0.128696  0.002004  0.11814  0.092672  0.000715  1.025719  0.002
H  H82  1  0.43430476  0.40142429  0.44403653  1  0.128625  0.002003  0.118172  0.092656  0.000715  1.025761  0.002
H  H83  1  0.56569535  0.90142561  0.05596545  1  0.128651  0.002004  0.118154  0.092689  0.000715  1.025787  0.002
H  H84  1  0.93918454  0.24756817  0.36885984  1  0.490277  6.5e-05  0.311694  0.279629  3.9e-05  0.975095  0.0
H  H85  1  0.06081369  0.74756576  0.13113770  1  0.490218  6.5e-05  0.311684  0.279589  3.9e-05  0.975156  0.0
H  H86  1  0.06082096  0.75243335  0.63114016  1  0.490274  6.5e-05  0.311711  0.279675  3.9e-05  0.974996  0.0
H  H87  1  0.93918124  0.25243120  0.86886038  1  0.490184  6.5e-05  0.311711  0.279645  3.9e-05  0.975048  0.0
H  H88  1  0.85024421  0.24271759  0.26051118  1  0.513729  -2.2e-05  0.300619  0.267782  -2.2e-05  1.01231  0.0
H  H89  1  0.14975401  0.74271598  0.23948694  1  0.513673  -2.2e-05  0.300642  0.267795  -2.2e-05  1.012363  0.0
H  H90  1  0.14975886  0.75728654  0.73948609  1  0.513553  -2.2e-05  0.300635  0.267721  -2.2e-05  1.012387  0.0
H  H91  1  0.85024173  0.25727968  0.76051417  1  0.513767  -2.2e-05  0.300659  0.267795  -2.2e-05  1.012301  0.0
H  H92  1  0.24842617  0.35964292  0.93719475  1  0.643273  9e-05  0.280926  0.371567  0.00014  0.981937  0.0
H  H93  1  0.75157380  0.85964443  0.56280313  1  0.643245  9e-05  0.280932  0.371558  0.00014  0.981948  0.0
H  H94  1  0.75157200  0.64035600  0.06280795  1  0.643273  9e-05  0.280916  0.371539  0.00014  0.981982  0.0
H  H95  1  0.24842846  0.14035579  0.43719398  1  0.643254  9e-05  0.280926  0.371562  0.00014  0.98194  0.0
H  H96  1  0.13628448  0.36041050  0.86313292  1  0.591192  0.000542  0.303272  0.378953  0.000426  0.935734  0.0
H  H97  1  0.86371467  0.86041346  0.63686596  1  0.591177  0.000541  0.303247  0.378927  0.000426  0.935796  0.0
H  H98  1  0.86371614  0.63959168  0.13686907  1  0.591197  0.000542  0.303286  0.37899  0.000426  0.935662  0.0
H  H99  1  0.13628433  0.13958936  0.36313228  1  0.591184  0.000541  0.303308  0.378974  0.000426  0.935667  0.0
H  H100  1  0.89228937  0.45230699  0.76605509  1  0.076368  -5.3e-05  0.106665  0.069997  -7.2e-05  1.001576  0.0
H  H101  1  0.10770667  0.95230794  0.73394729  1  0.076374  -5.3e-05  0.106633  0.069985  -7.1e-05  1.001616  0.0
H  H102  1  0.10771368  0.54769323  0.23394734  1  0.076284  -5.3e-05  0.106644  0.069939  -7.2e-05  1.001712  0.0
H  H103  1  0.89229314  0.04769228  0.26605225  1  0.076355  -5.3e-05  0.106629  0.069988  -7.2e-05  1.001584  0.0
H  H104  1  0.85451153  0.44407804  0.89801995  1  0.051797  4.2e-05  0.103464  0.106489  1.4e-05  1.017823  0.0
H  H105  1  0.14549181  0.94408156  0.60198433  1  0.051341  4.2e-05  0.103506  0.106538  1.4e-05  1.017804  0.0
H  H106  1  0.14549721  0.55591370  0.10198467  1  0.051413  4.2e-05  0.103513  0.106547  1.4e-05  1.017773  0.0
H  H107  1  0.85450800  0.05591866  0.39801521  1  0.051354  4.2e-05  0.103506  0.106553  1.4e-05  1.017794  0.0
H  H108  1  0.17070310  0.56090599  0.99286710  1  0.077565  1.9e-05  0.109834  0.116797  -9e-06  0.996968  0.0
H  H109  1  0.82929634  0.06090419  0.50713114  1  0.077522  1.9e-05  0.109844  0.11682  -9e-06  0.996988  0.0
H  H110  1  0.82930240  0.43908901  0.00713463  1  0.077562  1.9e-05  0.109824  0.116808  -9e-06  0.996925  0.0
H  H111  1  0.17070023  0.93909277  0.49286667  1  0.07756  1.9e-05  0.109844  0.116837  -9e-06  0.996935  0.0
H  H112  1  0.19354051  0.56475859  0.85695311  1  0.100182  -7e-06  0.108419  0.08  -2.9e-05  1.012454  0.0
H  H113  1  0.80645488  0.06475553  0.64304382  1  0.100156  -7e-06  0.108396  0.079959  -2.9e-05  1.012512  0.0
H  H114  1  0.80645768  0.43524359  0.14304672  1  0.100209  -7e-06  0.108387  0.079957  -2.9e-05  1.012461  0.0
H  H115  1  0.19354493  0.93524208  0.35695630  1  0.100241  -7e-06  0.108392  0.07994  -2.9e-05  1.012533  0.0
C  C116  1  0.04940419  0.25397124  0.73349784  1  1.565901  0.000436  0.204554  0.568205  0.000156  4.211356  0.0
C  C117  1  0.95059884  0.75397697  0.76649998  1  1.565958  0.000436  0.204518  0.568234  0.000155  4.211473  0.0
C  C118  1  0.95059237  0.74602506  0.26650169  1  1.565866  0.000437  0.204565  0.568257  0.000156  4.211593  0.0
C  C119  1  0.04940992  0.24602846  0.23349832  1  1.565985  0.000437  0.204577  0.568277  0.000156  4.211838  0.0
C  C120  1  0.00532601  0.26043919  0.64564804  1  -0.091924  0.006769  -0.038442  -0.079871  0.00399  4.02938  0.005
C  C121  1  0.99467621  0.76043914  0.85435079  1  -0.091931  0.006769  -0.038439  -0.079859  0.003991  4.029483  0.005
C  C122  1  0.99467216  0.73956233  0.35435293  1  -0.09189  0.006768  -0.038447  -0.07985  0.00399  4.029418  0.005
C  C123  1  0.00533173  0.23956303  0.14564909  1  -0.091896  0.006768  -0.038533  -0.079983  0.00399  4.029468  0.005
C  C124  1  0.91051771  0.30794095  0.61363251  1  -0.073333  0.000325  -0.09201  -0.078615  -8.4e-05  4.01872  0.0
C  C125  1  0.08948541  0.80794196  0.88636822  1  -0.073363  0.000325  -0.092028  -0.078548  -8.3e-05  4.018794  0.0
C  C126  1  0.08947886  0.69205927  0.38636471  1  -0.072684  0.000325  -0.091961  -0.078506  -8.3e-05  4.018708  0.0
C  C127  1  0.91052415  0.19205956  0.11363425  1  -0.072937  0.000324  -0.091972  -0.078478  -8.4e-05  4.018768  0.0
C  C128  1  0.86652798  0.31415519  0.53230298  1  0.029792  0.000609  -0.109577  -0.188597  0.000278  3.979648  0.001
C  C129  1  0.13347515  0.81415499  0.96769661  1  0.029792  0.000609  -0.109604  -0.188679  0.000278  3.979771  0.001
C  C130  1  0.13347428  0.68584503  0.46769414  1  0.02926  0.000609  -0.109633  -0.188656  0.000278  3.979632  0.001
C  C131  1  0.86653116  0.18584458  0.03230584  1  0.029484  0.000609  -0.10964  -0.188695  0.000278  3.979751  0.001
C  C132  1  0.91842799  0.27197921  0.47995852  1  0.283512  -0.0007  0.099969  0.24954  -0.000798  4.007074  0.0
C  C133  1  0.08157354  0.77198002  0.02003963  1  0.283419  -0.0007  0.099978  0.249594  -0.000798  4.007211  0.0
C  C134  1  0.08157427  0.72801970  0.52004032  1  0.283466  -0.000699  0.100017  0.249662  -0.000798  4.007303  0.0
C  C135  1  0.91842952  0.22802020  0.97995993  1  0.283631  -0.0007  0.100012  0.249653  -0.000798  4.007316  0.0
C  C136  1  0.01525239  0.22555034  0.51155160  1  -0.113097  0.000661  -0.10506  -0.197008  0.00029  3.974541  0.001
C  C137  1  0.98474896  0.72555101  0.98844648  1  -0.11303  0.000661  -0.105062  -0.197019  0.00029  3.974475  0.001
C  C138  1  0.98475148  0.77444792  0.48844983  1  -0.112956  0.000661  -0.105042  -0.196996  0.00029  3.974657  0.001
C  C139  1  0.01525167  0.27444856  0.01155092  1  -0.113124  0.000661  -0.105068  -0.197102  0.00029  3.974664  0.001
C  C140  1  0.05772832  0.22019180  0.59276821  1  0.036268  -0.000715  -0.090616  -0.078097  -0.000854  4.01349  -0.001
C  C141  1  0.94227303  0.72019238  0.90722986  1  0.035066  -0.000715  -0.090637  -0.078138  -0.000854  4.013749  -0.001
C  C142  1  0.94226985  0.77980842  0.40723391  1  0.035802  -0.000715  -0.090672  -0.078178  -0.000854  4.013704  -0.001
C  C143  1  0.05773249  0.27980979  0.09276670  1  0.036045  -0.000715  -0.090563  -0.077914  -0.000854  4.013341  -0.001
C  C144  1  0.78699892  0.29802458  0.34698053  1  0.781076  1.1e-05  0.229818  0.386005  -3.8e-05  4.105372  0.0
C  C145  1  0.21300021  0.79802429  0.15301835  1  0.781063  1.1e-05  0.229884  0.386176  -3.8e-05  4.105356  0.0
C  C146  1  0.21300659  0.70197499  0.65301775  1  0.78097  1.1e-05  0.229844  0.386104  -3.8e-05  4.105388  0.0
C  C147  1  0.78699716  0.20197137  0.84698305  1  0.780696  1.1e-05  0.229849  0.386067  -3.8e-05  4.105494  0.0
C  C148  1  0.69225114  0.28464369  0.20467625  1  0.327962  -0.000552  0.092053  0.237225  -0.000621  4.036577  0.0
C  C149  1  0.30774634  0.78464422  0.29532290  1  0.32795  -0.000552  0.0921  0.237271  -0.000621  4.036514  0.0
C  C150  1  0.30774867  0.71535783  0.79532330  1  0.327962  -0.000552  0.092075  0.237275  -0.000621  4.036554  0.0
C  C151  1  0.69225021  0.21535273  0.70467835  1  0.328062  -0.000552  0.0921  0.237224  -0.000621  4.036689  0.0
C  C152  1  0.63861202  0.36464017  0.18552749  1  -0.036416  0.000645  -0.09788  -0.175387  0.000319  4.005668  0.0
C  C153  1  0.36138397  0.86464207  0.31447142  1  -0.036538  0.000645  -0.097859  -0.175391  0.000319  4.00562  0.0
C  C154  1  0.36138697  0.63536070  0.81447363  1  -0.036395  0.000645  -0.097857  -0.175331  0.000319  4.00566  0.0
C  C155  1  0.63861259  0.13535554  0.68552811  1  -0.036477  0.000645  -0.09786  -0.175388  0.000319  4.005753  0.0
C  C156  1  0.54855575  0.37054003  0.12131831  1  -0.000653  0.000688  -0.085999  -0.078478  0.000192  3.982639  0.001
C  C157  1  0.45143863  0.87054271  0.37868088  1  -0.000984  0.000689  -0.086064  -0.078635  0.000192  3.98261  0.001
C  C158  1  0.45143918  0.62945889  0.87868264  1  -0.00104  0.000689  -0.086009  -0.078562  0.000192  3.982678  0.001
C  C159  1  0.54855875  0.12945686  0.62131765  1  -0.000514  0.000689  -0.086016  -0.078519  0.000192  3.982661  0.001
C  C160  1  0.50992996  0.29695930  0.07501204  1  -0.03593  0.006657  -0.026992  -0.051465  0.003986  3.987295  0.005
C  C161  1  0.49006754  0.79696269  0.42498827  1  -0.035338  0.006656  -0.026919  -0.051332  0.003986  3.987001  0.005
C  C162  1  0.49006822  0.70303961  0.92498951  1  -0.035371  0.006657  -0.027018  -0.051494  0.003986  3.987185  0.005
C  C163  1  0.50993145  0.20303818  0.57501286  1  -0.035946  0.006656  -0.026944  -0.051346  0.003985  3.986942  0.005
C  C164  1  0.56624512  0.21801158  0.09262499  1  -0.033074  -0.000342  -0.090728  -0.081804  -0.000459  4.004996  0.0
C  C165  1  0.43375305  0.71801491  0.40737598  1  -0.032891  -0.000342  -0.090717  -0.08187  -0.000458  4.004979  0.0
C  C166  1  0.43375062  0.78198668  0.90737669  1  -0.032848  -0.000342  -0.090646  -0.081658  -0.000458  4.004907  0.0
C  C167  1  0.56624919  0.28198466  0.59262631  1  -0.03297  -0.000342  -0.090732  -0.081943  -0.000458  4.005007  0.0
C  C168  1  0.65627866  0.21168909  0.15682428  1  -0.013651  0.000159  -0.098173  -0.179076  1.3e-05  3.991341  0.0
C  C169  1  0.34372194  0.71169099  0.34317540  1  -0.013608  0.000159  -0.098266  -0.179138  1.3e-05  3.991387  0.0
C  C170  1  0.34372196  0.78831048  0.84317714  1  -0.013893  0.000159  -0.098255  -0.179211  1.3e-05  3.991648  0.0
C  C171  1  0.65627948  0.28830662  0.65682673  1  -0.013503  0.000159  -0.098181  -0.17904  1.3e-05  3.99157  0.0
C  C172  1  0.40882366  0.30284871  0.00890904  1  1.548649  0.000322  0.205422  0.56822  -0.00015  4.190758  0.0
C  C173  1  0.59117385  0.80285094  0.49109127  1  1.548755  0.000322  0.205392  0.568098  -0.00015  4.19096  0.0
C  C174  1  0.59117288  0.69714890  0.99109451  1  1.548756  0.000322  0.205386  0.568108  -0.00015  4.190903  0.0
C  C175  1  0.40882597  0.19715058  0.50890770  1  1.54867  0.000322  0.205429  0.568182  -0.00015  4.190797  0.0
C  C176  1  0.08849121  0.09008000  0.87053909  1  0.526379  -0.004181  0.041821  0.087515  -0.004825  3.940355  -0.003
C  C177  1  0.91150909  0.59007975  0.62946162  1  0.526133  -0.00418  0.041735  0.08735  -0.004826  3.940109  -0.003
C  C178  1  0.91150778  0.90991957  0.12946261  1  0.526606  -0.004182  0.041773  0.087459  -0.004826  3.940232  -0.003
C  C179  1  0.08849155  0.40991721  0.37053635  1  0.526144  -0.004179  0.041785  0.087462  -0.004825  3.940427  -0.003
C  C180  1  0.02053891  0.03617784  0.90034488  1  -0.046633  0.004202  -0.078661  -0.153465  0.002362  3.931742  0.003
C  C181  1  0.97946210  0.53617765  0.59965536  1  -0.046629  0.004203  -0.078699  -0.153446  0.002362  3.931749  0.003
C  C182  1  0.97946089  0.96382238  0.09965696  1  -0.046547  0.004202  -0.078691  -0.153434  0.002362  3.931612  0.003
C  C183  1  0.02053772  0.46381931  0.40034189  1  -0.046271  0.004203  -0.078714  -0.153566  0.002363  3.93172  0.003
C  C184  1  0.03655471  0.02678861  0.98270304  1  0.000696  -0.006338  0.013899  0.104195  -0.006966  3.963628  -0.004
C  C185  1  0.96344384  0.52678771  0.51729789  1  0.037579  -0.006311  0.013908  0.104189  -0.006967  3.963478  -0.004
C  C186  1  0.96344509  0.97321095  0.01729880  1  0.03819  -0.00631  0.013895  0.104144  -0.006966  3.963597  -0.004
C  C187  1  0.03655434  0.47321251  0.48270193  1  0.000913  -0.006338  0.013952  0.104329  -0.006966  3.963414  -0.004
C  C188  1  0.12551471  0.07120606  0.03056954  1  -0.036369  0.004606  -0.080693  -0.166422  0.002595  3.953257  0.004
C  C189  1  0.87448240  0.57120726  0.46942945  1  -0.037015  0.004609  -0.080663  -0.166411  0.002595  3.953163  0.004
C  C190  1  0.87448185  0.92879416  0.96943056  1  -0.037163  0.004607  -0.08069  -0.166375  0.002595  3.953306  0.004
C  C191  1  0.12551417  0.42879296  0.53056836  1  -0.037017  0.004607  -0.080754  -0.166555  0.002595  3.953207  0.004
C  C192  1  0.18959115  0.12453779  0.99628020  1  0.493162  -0.003981  0.045512  0.092375  -0.004464  3.941657  -0.003
C  C193  1  0.81040758  0.62453737  0.50372081  1  0.493953  -0.003983  0.04554  0.092481  -0.004464  3.941686  -0.003
C  C194  1  0.81040865  0.87546373  0.00372222  1  0.49343  -0.003981  0.04552  0.092411  -0.004464  3.94184  -0.003
C  C195  1  0.18959142  0.37546219  0.49627744  1  0.493446  -0.003982  0.045568  0.09239  -0.004464  3.941704  -0.003
C  C196  1  0.30084685  0.36259481  0.75516103  1  0.503566  -0.003916  0.048198  0.100474  -0.004429  3.932211  -0.002
C  C197  1  0.69915068  0.86259637  0.74483756  1  0.503724  -0.003915  0.048231  0.100488  -0.004429  3.932228  -0.002
C  C198  1  0.69915540  0.63740736  0.24483896  1  0.503707  -0.003915  0.048198  0.100428  -0.004429  3.932269  -0.002
C  C199  1  0.30084670  0.13740450  0.25516154  1  0.503734  -0.003916  0.048165  0.10044  -0.00443  3.932282  -0.002
C  C200  1  0.36110562  0.42051068  0.72178269  1  -0.012397  0.004328  -0.082794  -0.173398  0.002384  3.934312  0.003
C  C201  1  0.63889200  0.92051219  0.77821652  1  -0.012497  0.004328  -0.082838  -0.173421  0.002384  3.934257  0.003
C  C202  1  0.63889662  0.57949215  0.27821902  1  -0.01248  0.004328  -0.082735  -0.173247  0.002384  3.934278  0.003
C  C203  1  0.36110618  0.07949064  0.22178215  1  -0.012603  0.004329  -0.082779  -0.173382  0.002384  3.934329  0.003
C  C204  1  0.47481493  0.41983049  0.74818901  1  -0.027864  -0.005992  0.012587  0.105952  -0.006578  3.980753  -0.004
C  C205  1  0.52518271  0.91983056  0.75180732  1  -0.029707  -0.005994  0.01255  0.105816  -0.006578  3.981021  -0.004
C  C206  1  0.52518569  0.58017299  0.25181298  1  -0.027394  -0.005991  0.012548  0.105826  -0.006577  3.980925  -0.004
C  C207  1  0.47481549  0.08017226  0.24818905  1  -0.027347  -0.005992  0.012539  0.105836  -0.006578  3.980887  -0.004
C  C208  1  0.52240087  0.35756051  0.80501827  1  -0.014488  0.003793  -0.076573  -0.160462  0.002138  3.932432  0.003
C  C209  1  0.47759666  0.85756051  0.69497916  1  -0.014477  0.003793  -0.076526  -0.160458  0.002138  3.932622  0.003
C  C210  1  0.47759894  0.64244036  0.19498357  1  -0.014567  0.003793  -0.07657  -0.160433  0.002138  3.932585  0.003
C  C211  1  0.52240235  0.14244167  0.30501736  1  -0.014543  0.003793  -0.076574  -0.160462  0.002138  3.932571  0.003
C  C212  1  0.45629311  0.30101167  0.83418924  1  0.492243  -0.004263  0.051579  0.104831  -0.005  3.931037  -0.003
C  C213  1  0.54370513  0.80101172  0.66580888  1  0.492071  -0.004263  0.051601  0.104915  -0.005  3.930892  -0.003
C  C214  1  0.54370507  0.69898724  0.16581116  1  0.492217  -0.004263  0.051576  0.104854  -0.004999  3.931033  -0.003
C  C215  1  0.45629550  0.19898850  0.33418966  1  0.492182  -0.004263  0.051625  0.10499  -0.005  3.930964  -0.003
C  C216  1  0.68572314  0.59091645  0.74561615  1  0.446386  -0.004614  0.048539  0.091195  -0.0053  3.931745  -0.003
C  C217  1  0.31427554  0.09091687  0.75438138  1  0.446596  -0.004614  0.048456  0.09094  -0.005299  3.931808  -0.003
C  C218  1  0.31427910  0.40908703  0.25438556  1  0.446345  -0.004614  0.048491  0.091117  -0.0053  3.931827  -0.003
C  C219  1  0.68572347  0.90908726  0.24561629  1  0.44648  -0.004613  0.048512  0.09113  -0.005299  3.931811  -0.003
C  C220  1  0.62846371  0.52545513  0.77269609  1  -0.007046  0.005305  -0.078345  -0.173468  0.00291  3.944011  0.004
C  C221  1  0.37153567  0.02545820  0.72729982  1  -0.007144  0.005306  -0.078279  -0.173242  0.002911  3.943892  0.004
C  C222  1  0.37153691  0.47454704  0.22730475  1  -0.006888  0.005304  -0.078343  -0.173393  0.00291  3.944056  0.004
C  C223  1  0.62846334  0.97454723  0.27269498  1  -0.007044  0.005304  -0.078334  -0.17339  0.00291  3.944033  0.004
C  C224  1  0.54143503  0.48465003  0.71942419  1  -0.086262  -0.007339  0.014938  0.105816  -0.008033  3.987321  -0.005
C  C225  1  0.45856353  0.98464875  0.78057233  1  -0.08422  -0.007338  0.01493  0.105818  -0.008034  3.987407  -0.005
C  C226  1  0.45856640  0.51535214  0.28057680  1  -0.086757  -0.00734  0.014926  0.105802  -0.008034  3.987254  -0.005
C  C227  1  0.54143466  0.01535147  0.21942462  1  -0.086766  -0.007339  0.014943  0.105837  -0.008033  3.987261  -0.005
C  C228  1  0.51841148  0.51049850  0.63971077  1  0.019105  0.005462  -0.079967  -0.158712  0.003015  3.942309  0.004
C  C229  1  0.48158787  0.01049718  0.86028570  1  0.018935  0.005463  -0.079953  -0.15875  0.003016  3.942299  0.004
C  C230  1  0.48159158  0.48950302  0.36028936  1  0.019063  0.005463  -0.080003  -0.158735  0.003016  3.942239  0.004
C  C231  1  0.51840789  0.98950238  0.13971080  1  0.019068  0.005463  -0.079976  -0.158719  0.003016  3.942223  0.004
C  C232  1  0.58108438  0.57520913  0.61694696  1  0.456502  -0.004327  0.046599  0.089898  -0.004952  3.926267  -0.003
C  C233  1  0.41890939  0.07520711  0.88304968  1  0.456517  -0.004329  0.046586  0.08987  -0.004954  3.926296  -0.003
C  C234  1  0.41891624  0.42479240  0.38305389  1  0.45654  -0.004329  0.046618  0.089918  -0.004953  3.926055  -0.003
C  C235  1  0.58108393  0.92479116  0.11694638  1  0.456574  -0.004328  0.046638  0.089931  -0.004953  3.926216  -0.003
C  C236  1  0.95242475  0.47634042  0.81796856  1  0.508645  7.2e-05  0.04043  0.097339  1.6e-05  4.01869  0.0
C  C237  1  0.04757458  0.97634324  0.68203443  1  0.508617  7.2e-05  0.04055  0.097503  1.6e-05  4.018836  0.0
C  C238  1  0.04757992  0.52365784  0.18203589  1  0.508538  7.2e-05  0.040492  0.097499  1.6e-05  4.018763  0.0
C  C239  1  0.95242767  0.02365763  0.31796498  1  0.508639  7.2e-05  0.040556  0.097478  1.6e-05  4.018819  0.0
C  C240  1  0.93138070  0.47181016  0.89276067  1  -0.057633  0.000124  -0.085826  -0.177204  6.3e-05  3.941315  0.0
C  C241  1  0.06862270  0.97181231  0.60724191  1  -0.057116  0.000124  -0.08592  -0.177315  6.4e-05  3.941373  0.0
C  C242  1  0.06862560  0.52818419  0.10724293  1  -0.057073  0.000124  -0.085944  -0.177337  6.3e-05  3.941256  0.0
C  C243  1  0.93137712  0.02818660  0.39275706  1  -0.05702  0.000124  -0.085959  -0.177398  6.4e-05  3.941382  0.0
C  C244  1  0.00931751  0.50181933  0.95958087  1  0.015302  0.000606  0.01308  0.101489  0.000372  3.968177  0.0
C  C245  1  0.99068262  0.00182162  0.54041976  1  0.01528  0.000606  0.013143  0.101567  0.000372  3.968266  0.0
C  C246  1  0.99068473  0.49817763  0.04041969  1  -0.024914  0.000609  0.013126  0.101523  0.000372  3.968267  0.0
C  C247  1  0.00931475  0.99817729  0.45957991  1  -0.024915  0.000609  0.013151  0.101576  0.000372  3.968276  0.0
C  C248  1  0.10545574  0.53568683  0.94518749  1  -0.043189  0.000553  -0.079752  -0.160052  0.000377  3.924903  0.0
C  C249  1  0.89454447  0.03568708  0.55481030  1  -0.043193  0.000553  -0.079732  -0.160018  0.000377  3.924969  0.0
C  C250  1  0.89454894  0.46431208  0.05481351  1  -0.043141  0.000553  -0.079778  -0.160122  0.000377  3.925056  0.0
C  C251  1  0.10545291  0.96431184  0.44518708  1  -0.043112  0.000553  -0.079806  -0.160137  0.000377  3.925082  0.0
C  C252  1  0.11895159  0.53802500  0.86809780  1  0.513942  0.000413  0.042291  0.093996  0.000261  3.989395  0.0
C  C253  1  0.88104863  0.03802527  0.63189942  1  0.514142  0.000413  0.042295  0.094018  0.000262  3.989462  0.0
C  C254  1  0.88105147  0.46197652  0.13190234  1  0.514024  0.000413  0.042314  0.09407  0.000262  3.989235  0.0
C  C255  1  0.11895201  0.96197560  0.36809855  1  0.513899  0.000413  0.042285  0.094032  0.000261  3.989513  0.0
S  S256  1  0.68329348  0.34731160  0.37352982  1  -0.140006  0.000202  -0.206318  -0.444986  8.7e-05  2.198459  0.0
S  S257  1  0.31670735  0.84731271  0.12647284  1  -0.139997  0.000202  -0.206358  -0.445069  8.7e-05  2.198453  0.0
S  S258  1  0.31671039  0.65268796  0.62647162  1  -0.140063  0.000202  -0.206335  -0.445016  8.7e-05  2.198548  0.0
S  S259  1  0.68329326  0.15268034  0.87353030  1  -0.139841  0.000202  -0.206326  -0.445051  8.7e-05  2.1985  0.0
N  N260  1  0.88336972  0.27283683  0.39710000  1  -1.247915  -9.2e-05  -0.393918  -0.346299  -0.000124  3.593883  0.0
N  N261  1  0.11663100  0.77283511  0.10289686  1  -1.247812  -9.2e-05  -0.393906  -0.346364  -0.000124  3.594126  0.0
N  N262  1  0.11663417  0.72716274  0.60289741  1  -1.247796  -9.2e-05  -0.393956  -0.346492  -0.000124  3.594014  0.0
N  N263  1  0.88336719  0.22716185  0.89710182  1  -1.247735  -9.2e-05  -0.393936  -0.346384  -0.000124  3.593994  0.0
N  N264  1  0.78292345  0.27530146  0.26999537  1  -1.262792  -0.000179  -0.405083  -0.369077  -0.000189  3.579365  0.0
N  N265  1  0.21707483  0.77530121  0.23000276  1  -1.262774  -0.000179  -0.405137  -0.369124  -0.000189  3.579349  0.0
N  N266  1  0.21707963  0.72470137  0.73000189  1  -1.262536  -0.000179  -0.405114  -0.369019  -0.000189  3.579379  0.0
N  N267  1  0.78292172  0.22469640  0.76999849  1  -1.262693  -0.000179  -0.405207  -0.369065  -0.000189  3.579359  0.0
N  N268  1  0.34715131  0.30418854  0.81113469  1  -1.228802  0.067163  -0.321961  -0.218221  0.039299  3.563869  0.061
N  N269  1  0.65284773  0.80418741  0.68886645  1  -1.228726  0.06716  -0.321963  -0.21818  0.039298  3.563821  0.061
N  N270  1  0.65284605  0.69581168  0.18886671  1  -1.228779  0.067162  -0.321966  -0.218191  0.039299  3.563903  0.061
N  N271  1  0.34715371  0.19581020  0.31113397  1  -1.228765  0.067164  -0.321935  -0.218222  0.039301  3.563909  0.061
N  N272  1  0.66239739  0.61583943  0.66905952  1  -1.210481  0.076491  -0.321108  -0.214964  0.044726  3.579827  0.069
N  N273  1  0.33760052  0.11583991  0.83093731  1  -1.210473  0.076489  -0.321051  -0.214788  0.044725  3.579895  0.069
N  N274  1  0.33760404  0.38416014  0.33094147  1  -1.210528  0.076488  -0.321111  -0.2149  0.044725  3.579752  0.069
N  N275  1  0.66239604  0.88416292  0.16906049  1  -1.210502  0.07649  -0.321076  -0.214911  0.044725  3.579864  0.069
N  N276  1  0.17079118  0.13519948  0.91726921  1  -1.238755  0.073796  -0.3266  -0.211993  0.043027  3.57756  0.066
N  N277  1  0.82920757  0.63520173  0.58273066  1  -1.238691  0.07379  -0.326559  -0.211943  0.043026  3.577469  0.066
N  N278  1  0.82920782  0.86480009  0.08273134  1  -1.238963  0.073794  -0.326592  -0.212007  0.043027  3.577698  0.066
N  N279  1  0.17079143  0.36479848  0.41726702  1  -1.238779  0.073795  -0.326558  -0.21185  0.043028  3.57758  0.066
N  N280  1  0.04461157  0.50846536  0.80439340  1  -1.214816  0.000471  -0.327309  -0.283056  0.00024  3.321007  0.0
N  N281  1  0.95538533  0.00846574  0.69560665  1  -1.214976  0.000471  -0.327419  -0.283253  0.00024  3.321129  0.0
N  N282  1  0.95538985  0.49153682  0.19561104  1  -1.214871  0.000471  -0.327331  -0.283168  0.00024  3.320799  0.0
N  N283  1  0.04461449  0.99153513  0.30439117  1  -1.214962  0.000471  -0.327348  -0.283133  0.00024  3.321043  0.0
O  O284  1  0.14330807  0.21832134  0.75680409  1  -1.168074  0.066936  -0.315345  -0.564684  0.037645  2.430076  0.061
O  O285  1  0.85669326  0.71832305  0.74319801  1  -1.168101  0.066945  -0.315369  -0.564725  0.03765  2.42993  0.061
O  O286  1  0.85669255  0.78168149  0.24319560  1  -1.168051  0.066934  -0.315331  -0.564661  0.037644  2.430027  0.061
O  O287  1  0.14331304  0.28167977  0.25680789  1  -1.168207  0.066936  -0.315354  -0.564738  0.037646  2.430223  0.061
O  O288  1  0.99364561  0.28428658  0.77906157  1  -1.205482  0.000451  -0.327897  -0.580092  -0.000556  2.234355  0.0
O  O289  1  0.00635583  0.78429068  0.72093943  1  -1.205415  0.00045  -0.327817  -0.580038  -0.000556  2.234469  0.0
O  O290  1  0.00635419  0.71571494  0.22094028  1  -1.20551  0.000452  -0.327896  -0.580123  -0.000555  2.234647  0.0
O  O291  1  0.99364885  0.21571606  0.27906100  1  -1.205475  0.000451  -0.327878  -0.580096  -0.000556  2.234684  0.0
O  O292  1  0.37728286  0.23131360  0.97126723  1  -1.165162  0.074978  -0.31945  -0.569195  0.042006  2.377937  0.069
O  O293  1  0.62271444  0.73131561  0.52873069  1  -1.165008  0.074973  -0.319433  -0.569118  0.042005  2.378061  0.069
O  O294  1  0.62271532  0.76868467  0.02873260  1  -1.165106  0.074978  -0.319385  -0.569077  0.042006  2.378023  0.069
O  O295  1  0.37728375  0.26868656  0.47126856  1  -1.165107  0.074972  -0.319423  -0.569128  0.042004  2.377952  0.069
O  O296  1  0.36089638  0.37581265  0.99488349  1  -1.176123  -0.000104  -0.330611  -0.545571  -0.001138  2.132292  0.0
O  O297  1  0.63910360  0.87581402  0.50511555  1  -1.176282  -0.000104  -0.330624  -0.54554  -0.001138  2.132318  0.0
O  O298  1  0.63909772  0.62418366  0.00511904  1  -1.176281  -0.000103  -0.330625  -0.545539  -0.001138  2.132253  0.0
O  O299  1  0.36089784  0.12418685  0.49488142  1  -1.176129  -0.000103  -0.330677  -0.545621  -0.001138  2.132324  0.0
O  O300  1  0.18120613  0.32617979  0.90604026  1  -1.199904  0.065499  -0.566293  -0.741533  0.036896  2.247559  0.057
O  O301  1  0.81879378  0.82618139  0.59395760  1  -1.199852  0.0655  -0.566294  -0.741515  0.036896  2.247626  0.057
O  O302  1  0.81879124  0.67382108  0.09396057  1  -1.19997  0.065508  -0.56631  -0.741566  0.036895  2.247488  0.057
O  O303  1  0.18120848  0.17381948  0.40604066  1  -1.199876  0.065502  -0.566332  -0.741524  0.036897  2.247479  0.057
