# generated using pymatgen
data_CdH10C16(NO)4
_symmetry_space_group_name_H-M   'P 1'
_cell_length_a   7.74078163
_cell_length_b   15.20256259
_cell_length_c   17.77992660
_cell_angle_alpha   71.85118900
_cell_angle_beta   77.41481707
_cell_angle_gamma   75.25794380
_symmetry_Int_Tables_number   1
_chemical_formula_structural   CdH10C16(NO)4
_chemical_formula_sum   'Cd4 H40 C64 N16 O16'
_cell_volume   1900.79039228
_cell_formula_units_Z   4
loop_
 _symmetry_equiv_pos_site_id
 _symmetry_equiv_pos_as_xyz
  1  'x, y, z'
loop_
 _atom_site_type_symbol
 _atom_site_label
 _atom_site_symmetry_multiplicity
 _atom_site_fract_x
 _atom_site_fract_y
 _atom_site_fract_z
 _atom_site_occupancy
 _atom_site_pbe_bader_charge
 _atom_site_pbe_bader_spin_density
 _atom_site_pbe_cm5_charge
 _atom_site_pbe_ddec_charge
 _atom_site_pbe_ddec_spin_density
 _atom_site_pbe_ddec_sum_bond_order
 _atom_site_pbe_magmom
Cd  Cd0  1  0.74638022  0.51378531  0.53246116  1  1.281588  0  0.784633  0.891117  0  2.17216  0
Cd  Cd1  1  0.79249849  0.98636955  0.96752818  1  1.284088  0  0.784984  0.891964  0  2.172865  0
Cd  Cd2  1  0.25361357  0.48621658  0.46753668  1  1.281473  0  0.784671  0.891139  0  2.172024  0
Cd  Cd3  1  0.20750777  0.01363093  0.03246937  1  1.284129  0  0.784955  0.891874  0  2.173043  0
H  H4  1  0.76767725  0.81744906  0.12666811  1  0.098746  0  0.105769  0.10614  0  1.009229  0
H  H5  1  0.71179760  0.68232180  0.37305070  1  0.08951  0  0.105461  0.105339  0  1.011211  0
H  H6  1  0.23232271  0.18255423  0.87333270  1  0.098778  0  0.105782  0.106172  0  1.009241  0
H  H7  1  0.28821004  0.31767514  0.62694821  1  0.089511  0  0.105431  0.105327  0  1.011186  0
H  H8  1  0.64939853  0.66927713  0.17634473  1  0.112088  0  0.109956  0.119272  0  0.994256  0
H  H9  1  0.49497603  0.83043314  0.32344132  1  0.087305  0  0.110018  0.119312  0  0.994904  0
H  H10  1  0.35060072  0.33072761  0.82364901  1  0.112243  0  0.109944  0.119224  0  0.99433  0
H  H11  1  0.50502445  0.16956522  0.67655792  1  0.087293  0  0.110022  0.119305  0  0.994889  0
H  H12  1  0.19468910  0.50605251  0.17422421  1  0.090393  0  0.107411  0.118303  0  0.999693  0
H  H13  1  0.87418512  0.99378928  0.32614918  1  0.096841  0  0.108058  0.11881  0  0.999765  0
H  H14  1  0.80530392  0.49394796  0.82577408  1  0.090348  0  0.107409  0.118319  0  0.999737  0
H  H15  1  0.12581187  0.00621120  0.67384872  1  0.096903  0  0.10807  0.118818  0  0.999774  0
H  H16  1  0.31192707  0.65732860  0.12234394  1  0.094719  0  0.105951  0.109277  0  0.999991  0
H  H17  1  0.09097541  0.84257233  0.37786205  1  0.097453  0  0.105773  0.109107  0  0.999375  0
H  H18  1  0.68807288  0.34267117  0.87765554  1  0.094654  0  0.105946  0.109255  0  1.000013  0
H  H19  1  0.90902502  0.15742956  0.62213570  1  0.097397  0  0.105775  0.109097  0  0.999433  0
H  H20  1  0.88402493  0.17756035  0.25357176  1  0.103587  0  0.100336  0.101117  0  1.013747  0
H  H21  1  0.31612802  0.32234288  0.24626251  1  0.081725  0  0.100292  0.100462  0  1.013747  0
H  H22  1  0.11598177  0.82243939  0.74643269  1  0.10412  0  0.100342  0.101127  0  1.013796  0
H  H23  1  0.68386509  0.67765405  0.75373896  1  0.081592  0  0.100287  0.100421  0  1.013763  0
H  H24  1  0.79448184  0.32122038  0.30119730  1  0.068389  0  0.104796  0.112665  0  1.015777  0
H  H25  1  0.41786042  0.17864596  0.19865889  1  0.073507  0  0.104462  0.112106  0  1.016013  0
H  H26  1  0.20552235  0.67878220  0.69880271  1  0.068379  0  0.104802  0.1127  0  1.015724  0
H  H27  1  0.58213410  0.82135095  0.80134582  1  0.073592  0  0.104466  0.112054  0  1.01604  0
H  H28  1  0.02218456  0.48101412  0.06994533  1  0.068541  0  0.101716  0.109964  0  1.030164  0
H  H29  1  0.57239999  0.01871087  0.43009729  1  0.078878  0  0.101279  0.109151  0  1.030308  0
H  H30  1  0.97781054  0.51898424  0.93005106  1  0.068567  0  0.101711  0.109967  0  1.030224  0
H  H31  1  0.42760269  0.98128888  0.56990586  1  0.078952  0  0.101294  0.10914  0  1.030324  0
H  H32  1  0.11594642  0.33412715  0.02469175  1  0.115079  0  0.10449  0.111511  0  1.005042  0
H  H33  1  0.47412286  0.16561022  0.47537129  1  0.107547  0  0.10456  0.112084  0  1.004697  0
H  H34  1  0.88404800  0.66586978  0.97530903  1  0.115064  0  0.10453  0.111518  0  1.004999  0
H  H35  1  0.52587526  0.83439095  0.52462969  1  0.107589  0  0.104537  0.112043  0  1.004724  0
H  H36  1  0.98156862  0.46688742  0.35316515  1  0.273652  0  0.148719  0.148846  0  1.028637  0
H  H37  1  0.80165158  0.03296530  0.14694505  1  0.283203  0  0.148404  0.148661  0  1.029374  0
H  H38  1  0.01843445  0.53311447  0.64683233  1  0.273668  0  0.148697  0.14881  0  1.028718  0
H  H39  1  0.19834660  0.96702881  0.85305667  1  0.283223  0  0.148435  0.148709  0  1.029316  0
H  H40  1  0.47269393  0.51273039  0.27759094  1  0.201977  0  0.158504  0.143911  0  0.967347  0
H  H41  1  0.26284394  0.98723263  0.22236316  1  0.206702  0  0.158365  0.14338  0  0.967088  0
H  H42  1  0.52730469  0.48727290  0.72240943  1  0.201949  0  0.158499  0.143863  0  0.967293  0
H  H43  1  0.73715067  0.01276714  0.77763516  1  0.206761  0  0.158365  0.143402  0  0.967048  0
C  C44  1  0.12094509  0.83463126  0.09207407  1  1.547132  0  0.195149  0.574055  0  4.197891  0
C  C45  1  0.04758074  0.66525769  0.40783978  1  1.5443  0  0.194021  0.570974  0  4.202571  0
C  C46  1  0.87906129  0.16536920  0.90792853  1  1.547155  0  0.195111  0.574015  0  4.198024  0
C  C47  1  0.95241785  0.33474208  0.59215815  1  1.544459  0  0.194074  0.571094  0  4.202619  0
C  C48  1  0.04739617  0.74603348  0.12148319  1  0.03167  0  -0.013271  -0.026559  0  3.948185  0
C  C49  1  0.91466499  0.75378014  0.37848781  1  -0.017557  0  -0.013313  -0.02661  0  3.948187  0
C  C50  1  0.95260730  0.25396767  0.87852008  1  0.031637  0  -0.013269  -0.02655  0  3.948247  0
C  C51  1  0.08533336  0.24622033  0.62151165  1  -0.018164  0  -0.013268  -0.026652  0  3.948356  0
C  C52  1  0.86094694  0.74949378  0.13698333  1  0.00578  0  -0.072276  -0.04168  0  3.950207  0
C  C53  1  0.74732172  0.75027597  0.36286657  1  0.024013  0  -0.071886  -0.03997  0  3.950936  0
C  C54  1  0.13905381  0.25050739  0.86301683  1  0.005819  0  -0.072319  -0.041767  0  3.950376  0
C  C55  1  0.25268007  0.24972239  0.63713198  1  0.024094  0  -0.071864  -0.039974  0  3.951004  0
C  C56  1  0.79477444  0.66645302  0.16456978  1  -0.033967  0  -0.089183  -0.170942  0  3.985489  0
C  C57  1  0.62561612  0.83328565  0.33533147  1  -0.0109  0  -0.089447  -0.171686  0  3.986196  0
C  C58  1  0.20522576  0.33354956  0.83543006  1  -0.034122  0  -0.089147  -0.170895  0  3.985535  0
C  C59  1  0.37438540  0.16671341  0.66466692  1  -0.01087  0  -0.089426  -0.171613  0  3.986254  0
C  C60  1  0.91582978  0.57935591  0.17724478  1  0.247598  0  0.086948  0.142544  0  4.059296  0
C  C61  1  0.67201234  0.92043361  0.32281668  1  0.250243  0  0.08721  0.142845  0  4.060666  0
C  C62  1  0.08416536  0.42064597  0.82275405  1  0.247667  0  0.086931  0.14263  0  4.059235  0
C  C63  1  0.32798492  0.07956616  0.67718138  1  0.250109  0  0.087268  0.14294  0  4.060716  0
C  C64  1  0.10271320  0.57458819  0.16205847  1  -0.060067  0  -0.090463  -0.162561  0  3.98979  0
C  C65  1  0.83876225  0.92522600  0.33815276  1  -0.054463  0  -0.090961  -0.163688  0  3.992255  0
C  C66  1  0.89728487  0.42541299  0.83794026  1  -0.060103  0  -0.090502  -0.16268  0  3.989862  0
C  C67  1  0.16123634  0.07477377  0.66184517  1  -0.054488  0  -0.091042  -0.163836  0  3.992333  0
C  C68  1  0.16734897  0.65823438  0.13407535  1  -0.047452  0  -0.078392  -0.074372  0  3.96472  0
C  C69  1  0.95912525  0.84161358  0.36608108  1  -0.010357  0  -0.078339  -0.073902  0  3.964312  0
C  C70  1  0.83265050  0.34176678  0.86592663  1  -0.047436  0  -0.078344  -0.07429  0  3.964646  0
C  C71  1  0.04087570  0.15838691  0.63391587  1  -0.009669  0  -0.078348  -0.073799  0  3.964401  0
C  C72  1  0.06179227  0.15905127  0.10771964  1  1.520782  0  0.183376  0.549408  0  4.254491  0
C  C73  1  0.32878689  0.34074050  0.39226139  1  1.529386  0  0.18309  0.549285  0  4.252586  0
C  C74  1  0.93820564  0.84094706  0.89228324  1  1.52096  0  0.183519  0.549519  0  4.254417  0
C  C75  1  0.67121891  0.65925785  0.60773845  1  1.529536  0  0.183165  0.549409  0  4.252433  0
C  C76  1  0.00624820  0.24621423  0.13610150  1  -0.033575  0  -0.03319  -0.061545  0  4.000931  0
C  C77  1  0.38852389  0.25357638  0.36387164  1  -0.073401  0  -0.032473  -0.060899  0  4.001169  0
C  C78  1  0.99375342  0.75378481  0.86390138  1  -0.033425  0  -0.033145  -0.061483  0  4.000912  0
C  C79  1  0.61148034  0.74642267  0.63612930  1  -0.073475  0  -0.032474  -0.060892  0  4.001132  0
C  C80  1  0.91523906  0.24410455  0.21368836  1  -0.066486  0  -0.082334  -0.062884  0  3.995113  0
C  C81  1  0.37343228  0.25572874  0.28621847  1  -0.006183  0  -0.082325  -0.061819  0  3.992657  0
C  C82  1  0.08476335  0.75589590  0.78631463  1  -0.067203  0  -0.082317  -0.062888  0  3.995084  0
C  C83  1  0.62656188  0.74426889  0.71378271  1  -0.005842  0  -0.082375  -0.061847  0  3.992622  0
C  C84  1  0.86461431  0.32509587  0.24045972  1  -0.010156  0  -0.107817  -0.200084  0  4.005969  0
C  C85  1  0.43068430  0.17474270  0.25945044  1  0.023322  0  -0.107092  -0.19845  0  4.005092  0
C  C86  1  0.13539017  0.67490601  0.75954101  1  -0.009977  0  -0.107866  -0.200141  0  4.006008  0
C  C87  1  0.56931282  0.82525423  0.74055233  1  0.023203  0  -0.107036  -0.198334  0  4.004985  0
C  C88  1  0.90237053  0.41123251  0.18865746  1  0.253191  0  0.098589  0.174667  0  4.063736  0
C  C89  1  0.50228230  0.08858518  0.31132676  1  0.224574  0  0.098339  0.172423  0  4.065639  0
C  C90  1  0.09762436  0.58877008  0.81134178  1  0.253202  0  0.09857  0.174632  0  4.063824  0
C  C91  1  0.49772382  0.91141245  0.68867549  1  0.224239  0  0.098333  0.172417  0  4.065628  0
C  C92  1  0.99331324  0.41434482  0.11040900  1  0.008157  0  -0.107802  -0.200301  0  4.004559  0
C  C93  1  0.51760293  0.08542727  0.38962108  1  -0.005795  0  -0.1067  -0.197564  0  4.004052  0
C  C94  1  0.00668433  0.58565424  0.88959090  1  0.00814  0  -0.107794  -0.200299  0  4.004602  0
C  C95  1  0.48239999  0.91457177  0.61038055  1  -0.005733  0  -0.106718  -0.19752  0  4.004017  0
C  C96  1  0.04511991  0.33247953  0.08511750  1  -0.005625  0  -0.082715  -0.065659  0  3.977735  0
C  C97  1  0.46226586  0.16727420  0.41491774  1  -0.003186  0  -0.083143  -0.067772  0  3.979982  0
C  C98  1  0.95488222  0.66751810  0.91488402  1  -0.005805  0  -0.08277  -0.065711  0  3.977733  0
C  C99  1  0.53773650  0.83272626  0.58508300  1  -0.003174  0  -0.083138  -0.067746  0  3.980001  0
C  C100  1  0.83549446  0.48026026  0.35421259  1  0.940405  0  0.178262  0.093996  0  3.819282  0
C  C101  1  0.66999132  0.01962154  0.14584339  1  0.931204  0  0.178841  0.094643  0  3.817376  0
C  C102  1  0.16450729  0.51974163  0.64578503  1  0.940381  0  0.178263  0.093904  0  3.819197  0
C  C103  1  0.33000972  0.98037892  0.85415805  1  0.931218  0  0.178827  0.094577  0  3.817582  0
C  C104  1  0.57329677  0.50477236  0.31438941  1  0.990034  0  0.175903  0.078909  0  3.888631  0
C  C105  1  0.39240342  0.99513096  0.18560769  1  0.992525  0  0.176093  0.079369  0  3.890238  0
C  C106  1  0.42670155  0.49523164  0.68560968  1  0.9901  0  0.175981  0.079032  0  3.888432  0
C  C107  1  0.60759284  0.00486809  0.81439291  1  0.992544  0  0.176035  0.079276  0  3.890263  0
N  N108  1  0.70666232  0.48942540  0.41500830  1  -0.749442  0  -0.227148  -0.166591  0  3.402244  0
N  N109  1  0.61118436  0.01052102  0.08501976  1  -0.748516  0  -0.227267  -0.166906  0  3.401261  0
N  N110  1  0.29333997  0.51057507  0.58498964  1  -0.749458  0  -0.227134  -0.16654  0  3.402062  0
N  N111  1  0.38881537  0.98947591  0.91498106  1  -0.748619  0  -0.22725  -0.16682  0  3.401437  0
N  N112  1  0.54218210  0.50393062  0.39020074  1  -0.727469  0  -0.222923  -0.160351  0  3.393317  0
N  N113  1  0.43636607  0.99602566  0.10978462  1  -0.727248  0  -0.223302  -0.161002  0  3.394055  0
N  N114  1  0.45781864  0.49607056  0.60979885  1  -0.727496  0  -0.222994  -0.160499  0  3.39349  0
N  N115  1  0.56363284  0.00397339  0.89021571  1  -0.727237  0  -0.223309  -0.161051  0  3.394022  0
N  N116  1  0.75570456  0.48956312  0.28985253  1  -0.881916  0  -0.124951  0.075175  0  3.827815  0
N  N117  1  0.53505342  0.01025267  0.21018940  1  -0.89087  0  -0.12513  0.075192  0  3.828821  0
N  N118  1  0.24429242  0.51044089  0.71014613  1  -0.881918  0  -0.124925  0.075403  0  3.827491  0
N  N119  1  0.46494418  0.98974638  0.78981163  1  -0.890868  0  -0.125117  0.075294  0  3.8288  0
N  N120  1  0.84228212  0.49548371  0.21206333  1  -0.768451  0  -0.158687  -0.075251  0  3.612871  0
N  N121  1  0.54952781  0.00429553  0.28799577  1  -0.786722  0  -0.159096  -0.074129  0  3.612524  0
N  N122  1  0.15771142  0.50451888  0.78793491  1  -0.76838  0  -0.158645  -0.075291  0  3.612763  0
N  N123  1  0.45046874  0.99570281  0.71200556  1  -0.786623  0  -0.159138  -0.074293  0  3.612669  0
O  O124  1  0.16070609  0.16487574  0.03909744  1  -1.147149  0  -0.333771  -0.546577  0  2.243944  0
O  O125  1  0.36444659  0.33485829  0.46096671  1  -1.141462  0  -0.333614  -0.546691  0  2.24373  0
O  O126  1  0.83928829  0.83512473  0.96090241  1  -1.147391  0  -0.333867  -0.546636  0  2.24399  0
O  O127  1  0.63556183  0.66514359  0.53903250  1  -1.141417  0  -0.333614  -0.546702  0  2.243741  0
O  O128  1  0.01311056  0.08266831  0.15183460  1  -1.195942  0  -0.345804  -0.601446  0  2.178098  0
O  O129  1  0.24839401  0.41723726  0.34806215  1  -1.205497  0  -0.346063  -0.601679  0  2.175792  0
O  O130  1  0.98689798  0.91733002  0.84816891  1  -1.195908  0  -0.345862  -0.601516  0  2.178019  0
O  O131  1  0.75160515  0.58276110  0.65193722  1  -1.205764  0  -0.346087  -0.601727  0  2.175768  0
O  O132  1  0.28417331  0.83157292  0.09285397  1  -1.151994  0  -0.333913  -0.551261  0  2.105954  0
O  O133  1  0.20852058  0.66843027  0.40688106  1  -1.153541  0  -0.333108  -0.549615  0  2.107006  0
O  O134  1  0.71583251  0.16842543  0.90714644  1  -1.151884  0  -0.333867  -0.551244  0  2.106065  0
O  O135  1  0.79147194  0.33156809  0.59311784  1  -1.153517  0  -0.333082  -0.549633  0  2.106945  0
O  O136  1  0.00991867  0.91388436  0.06674042  1  -1.176098  0  -0.346178  -0.593557  0  2.34992  0
O  O137  1  0.99055034  0.58594709  0.43330746  1  -1.168295  0  -0.34571  -0.591966  0  2.352535  0
O  O138  1  0.99008614  0.08611680  0.93326328  1  -1.176132  0  -0.346184  -0.593534  0  2.349954  0
O  O139  1  0.00944133  0.41405339  0.56668984  1  -1.168597  0  -0.345781  -0.592032  0  2.352573  0
