# generated using pymatgen
data_B2H24Pb(C7N4)4
_symmetry_space_group_name_H-M   'P 1'
_cell_length_a   12.96434411
_cell_length_b   15.86083767
_cell_length_c   18.10965127
_cell_angle_alpha   90.00000427
_cell_angle_beta   100.31166976
_cell_angle_gamma   90.00010108
_symmetry_Int_Tables_number   1
_chemical_formula_structural   B2H24Pb(C7N4)4
_chemical_formula_sum   'B8 H96 Pb4 C112 N64'
_cell_volume   3663.65887455
_cell_formula_units_Z   4
loop_
 _symmetry_equiv_pos_site_id
 _symmetry_equiv_pos_as_xyz
  1  'x, y, z'
loop_
 _atom_site_type_symbol
 _atom_site_label
 _atom_site_symmetry_multiplicity
 _atom_site_fract_x
 _atom_site_fract_y
 _atom_site_fract_z
 _atom_site_occupancy
 _atom_site_pbe_bader_charge
 _atom_site_pbe_bader_spin_density
 _atom_site_pbe_cm5_charge
 _atom_site_pbe_ddec_charge
 _atom_site_pbe_ddec_spin_density
 _atom_site_pbe_ddec_sum_bond_order
 _atom_site_pbe_magmom
B  B0  1  0.30687612  0.86776589  0.46229079  1  1.920911  0  -0.224742  0.118788  0  3.666551  0
B  B1  1  0.80687687  0.63223458  0.96229145  1  1.920911  0  -0.22473  0.118781  0  3.666585  0
B  B2  1  0.69312387  0.13223503  0.53770816  1  1.920908  0  -0.224737  0.118823  0  3.66663  0
B  B3  1  0.19312391  0.36776508  0.03770761  1  1.920912  0  -0.22474  0.118793  0  3.666595  0
B  B4  1  0.33145788  0.86139737  0.02094009  1  1.916601  0  -0.222157  0.118676  0  3.661522  0
B  B5  1  0.83145706  0.63860309  0.52093889  1  1.916595  0  -0.222183  0.118584  0  3.661544  0
B  B6  1  0.66854605  0.13860292  0.97906046  1  1.916597  0  -0.222145  0.118644  0  3.661616  0
B  B7  1  0.16854215  0.36139720  0.47906052  1  1.916602  0  -0.222152  0.118681  0  3.661482  0
H  H8  1  0.36534829  0.81011891  0.45183446  1  -0.58936  0  0.02988  -0.169007  0  1.061034  0
H  H9  1  0.86534839  0.68988164  0.95183504  1  -0.589372  0  0.029887  -0.169006  0  1.06106  0
H  H10  1  0.63465170  0.18988201  0.54816449  1  -0.589371  0  0.029868  -0.169035  0  1.061088  0
H  H11  1  0.13465161  0.31011802  0.04816392  1  -0.589366  0  0.029871  -0.169024  0  1.06108  0
H  H12  1  0.29457511  0.87200967  0.52701781  1  -0.580906  0  0.036918  -0.149226  0  1.038881  0
H  H13  1  0.79457560  0.62799137  0.02701926  1  -0.580927  0  0.03689  -0.149267  0  1.038882  0
H  H14  1  0.70542410  0.12799125  0.47298105  1  -0.580933  0  0.036906  -0.149257  0  1.038909  0
H  H15  1  0.20542440  0.37200829  0.97298024  1  -0.58095  0  0.036909  -0.149256  0  1.038876  0
H  H16  1  0.26836639  0.81051035  0.03675828  1  -0.58351  0  0.037006  -0.16058  0  1.065795  0
H  H17  1  0.76836648  0.68948939  0.53675830  1  -0.583515  0  0.037005  -0.160568  0  1.065796  0
H  H18  1  0.73163517  0.18948931  0.96324032  1  -0.583534  0  0.036998  -0.160582  0  1.065826  0
H  H19  1  0.23163274  0.31050964  0.46324166  1  -0.583513  0  0.037007  -0.160584  0  1.065802  0
H  H20  1  0.33685813  0.86130915  0.95491685  1  -0.576942  0  0.041128  -0.146899  0  1.063733  0
H  H21  1  0.83685629  0.63869010  0.45491636  1  -0.576963  0  0.04113  -0.146877  0  1.063736  0
H  H22  1  0.66314971  0.13869177  0.04508475  1  -0.576942  0  0.041133  -0.146865  0  1.063724  0
H  H23  1  0.16314292  0.36130956  0.54508305  1  -0.576952  0  0.041125  -0.146898  0  1.063734  0
H  H24  1  0.87914777  0.85401040  0.23906697  1  0.076537  0  0.115485  0.089275  0  1.014679  0
H  H25  1  0.37914993  0.64599204  0.73906915  1  0.076425  0  0.115467  0.089245  0  1.01465  0
H  H26  1  0.12084987  0.14598926  0.76093169  1  0.076434  0  0.115487  0.089288  0  1.014681  0
H  H27  1  0.62085165  0.35401014  0.26093222  1  0.076541  0  0.115491  0.089326  0  1.014659  0
H  H28  1  0.93423653  0.84219390  0.02049993  1  0.089217  0  0.110202  0.082383  0  1.012935  0
H  H29  1  0.43423322  0.65780797  0.52050031  1  0.089231  0  0.110199  0.082361  0  1.012927  0
H  H30  1  0.06576425  0.15780260  0.97949968  1  0.089233  0  0.110199  0.082386  0  1.012909  0
H  H31  1  0.56576365  0.34219358  0.47949990  1  0.089222  0  0.110209  0.082368  0  1.01293  0
H  H32  1  0.12942020  0.83859641  0.06989571  1  0.093676  0  0.114918  0.092424  0  1.027565  0
H  H33  1  0.62941787  0.66140502  0.56989432  1  0.093859  0  0.114935  0.092495  0  1.027417  0
H  H34  1  0.87058058  0.16140451  0.93010500  1  0.09368  0  0.114899  0.092419  0  1.027555  0
H  H35  1  0.37057977  0.33859464  0.43010434  1  0.093679  0  0.114898  0.092445  0  1.027477  0
H  H36  1  0.09888588  0.83472776  0.49288190  1  0.121002  0  0.120253  0.111634  0  1.009695  0
H  H37  1  0.59888670  0.66527303  0.99288201  1  0.120999  0  0.120234  0.111601  0  1.009729  0
H  H38  1  0.90111491  0.16527316  0.50711771  1  0.120986  0  0.120269  0.111659  0  1.009696  0
H  H39  1  0.40111408  0.33472788  0.00711704  1  0.120981  0  0.120262  0.111651  0  1.009637  0
H  H40  1  0.94486617  0.81577729  0.36730566  1  0.143998  0  0.100683  0.126289  0  1.062253  0
H  H41  1  0.44486683  0.68422211  0.86730544  1  0.144003  0  0.100697  0.126301  0  1.062242  0
H  H42  1  0.05513383  0.18422300  0.63269440  1  0.143986  0  0.100685  0.126288  0  1.062248  0
H  H43  1  0.55513395  0.31578007  0.13269417  1  0.144003  0  0.10069  0.126293  0  1.062273  0
H  H44  1  0.33722920  0.03273940  0.53135180  1  0.108828  0  0.121413  0.108372  0  1.008698  0
H  H45  1  0.83722810  0.46726092  0.03135197  1  0.108806  0  0.12142  0.108366  0  1.008755  0
H  H46  1  0.66277080  0.96726152  0.46864770  1  0.108817  0  0.121421  0.108387  0  1.008754  0
H  H47  1  0.16277190  0.53273873  0.96864753  1  0.108799  0  0.121419  0.108375  0  1.008756  0
H  H48  1  0.43893187  0.14763378  0.45460809  1  0.062884  0  0.106225  0.12952  0  1.026505  0
H  H49  1  0.93893076  0.35236673  0.95460797  1  0.062891  0  0.106224  0.129519  0  1.026549  0
H  H50  1  0.56106812  0.85236714  0.54539087  1  0.062891  0  0.106234  0.129539  0  1.026521  0
H  H51  1  0.06106924  0.64763230  0.04539209  1  0.06271  0  0.10622  0.129529  0  1.026497  0
H  H52  1  0.57003912  0.17072912  0.37218119  1  0.116716  0  0.115368  0.094735  0  1.014317  0
H  H53  1  0.07003933  0.32927274  0.87218313  1  0.116709  0  0.115434  0.094842  0  1.014285  0
H  H54  1  0.42996010  0.82927054  0.62781933  1  0.116724  0  0.115392  0.094756  0  1.014271  0
H  H55  1  0.92996224  0.67072818  0.12781823  1  0.116726  0  0.115388  0.094759  0  1.014309  0
H  H56  1  0.61472710  0.13728135  0.15284263  1  0.113343  0  0.110501  0.086809  0  1.037862  0
H  H57  1  0.11472895  0.36271803  0.65284423  1  0.113363  0  0.110534  0.086851  0  1.037849  0
H  H58  1  0.38527212  0.86271894  0.84715788  1  0.113331  0  0.110515  0.086806  0  1.03785  0
H  H59  1  0.88527341  0.63727973  0.34715668  1  0.113372  0  0.110533  0.086849  0  1.037817  0
H  H60  1  0.49819602  0.00730515  0.14171388  1  0.108346  0  0.120254  0.095792  0  0.99556  0
H  H61  1  0.99819443  0.49269226  0.64171371  1  0.108375  0  0.120237  0.095765  0  0.995549  0
H  H62  1  0.50180556  0.99269387  0.85828693  1  0.10835  0  0.120244  0.095791  0  0.995532  0
H  H63  1  0.00180635  0.50730551  0.35828645  1  0.10834  0  0.120228  0.09576  0  0.995605  0
H  H64  1  0.75676031  0.76122643  0.23141296  1  0.126926  0  0.111636  0.083009  0  1.059881  0
H  H65  1  0.25675794  0.73877331  0.73141015  1  0.127019  0  0.111623  0.082964  0  1.059878  0
H  H66  1  0.24324363  0.23877449  0.76859091  1  0.126957  0  0.111633  0.082948  0  1.059884  0
H  H67  1  0.74324048  0.26122635  0.26858860  1  0.126995  0  0.111631  0.082974  0  1.059876  0
H  H68  1  0.71968806  0.79347503  0.45206859  1  0.081102  0  0.113942  0.090866  0  1.008966  0
H  H69  1  0.21968719  0.70652594  0.95206653  1  0.08117  0  0.113901  0.090844  0  1.008965  0
H  H70  1  0.28031195  0.20652526  0.54793423  1  0.081195  0  0.113853  0.090798  0  1.008972  0
H  H71  1  0.78031124  0.29347498  0.04793278  1  0.081142  0  0.113912  0.09084  0  1.008967  0
H  H72  1  0.52782240  0.83072765  0.40753441  1  0.104989  0  0.11458  0.086807  0  1.03509  0
H  H73  1  0.02782224  0.66927304  0.90753354  1  0.105024  0  0.114586  0.086812  0  1.035049  0
H  H74  1  0.47217839  0.16927453  0.59246685  1  0.105022  0  0.114589  0.086833  0  1.035043  0
H  H75  1  0.97217698  0.33072662  0.09246587  1  0.105008  0  0.11458  0.086828  0  1.035069  0
H  H76  1  0.53664814  0.83499732  0.98283421  1  0.131689  0  0.119657  0.106791  0  1.02353  0
H  H77  1  0.03664852  0.66500276  0.48283535  1  0.132235  0  0.119661  0.106774  0  1.023654  0
H  H78  1  0.46335343  0.16500045  0.01716770  1  0.13203  0  0.119638  0.10675  0  1.02353  0
H  H79  1  0.96334991  0.33499879  0.51716396  1  0.132254  0  0.119664  0.106768  0  1.023641  0
H  H80  1  0.69467131  0.80368000  0.10349887  1  0.14998  0  0.103773  0.131091  0  1.049059  0
H  H81  1  0.19466965  0.69631900  0.60349891  1  0.149985  0  0.103803  0.131143  0  1.049062  0
H  H82  1  0.30533026  0.19631839  0.89650194  1  0.150026  0  0.10377  0.131104  0  1.048957  0
H  H83  1  0.80532956  0.30368191  0.39650050  1  0.14998  0  0.103808  0.131119  0  1.049069  0
H  H84  1  0.30992928  0.02406016  0.94531824  1  0.140018  0  0.122495  0.111938  0  1.010098  0
H  H85  1  0.80992898  0.47594016  0.44531796  1  0.140022  0  0.122492  0.111923  0  1.010071  0
H  H86  1  0.69007543  0.97593887  0.05468351  1  0.140063  0  0.122523  0.111955  0  1.010052  0
H  H87  1  0.19007181  0.52406013  0.55468219  1  0.14003  0  0.12249  0.111927  0  1.010134  0
H  H88  1  0.25125218  0.15417300  0.02884019  1  0.09526  0  0.111016  0.141784  0  1.01127  0
H  H89  1  0.75125183  0.34582657  0.52884016  1  0.095264  0  0.111017  0.141779  0  1.011235  0
H  H90  1  0.74874860  0.84582540  0.97115887  1  0.095277  0  0.111027  0.141826  0  1.011092  0
H  H91  1  0.24874817  0.65417372  0.47115990  1  0.095258  0  0.111011  0.141789  0  1.01123  0
H  H92  1  0.20865534  0.21548815  0.14108101  1  0.085811  0  0.119465  0.096988  0  1.02769  0
H  H93  1  0.70865486  0.28451137  0.64108206  1  0.085799  0  0.119452  0.096994  0  1.027697  0
H  H94  1  0.79134465  0.78451214  0.85891629  1  0.085814  0  0.119462  0.096969  0  1.02775  0
H  H95  1  0.29134357  0.71548892  0.35891780  1  0.085796  0  0.119457  0.096988  0  1.027703  0
H  H96  1  0.14727377  0.18050383  0.35591904  1  0.133967  0  0.120214  0.096581  0  0.997705  0
H  H97  1  0.64727494  0.31949750  0.85592031  1  0.133963  0  0.120215  0.096587  0  0.997754  0
H  H98  1  0.85272622  0.81949646  0.64407936  1  0.133906  0  0.120208  0.096573  0  0.997802  0
H  H99  1  0.35272506  0.68050278  0.14407974  1  0.133968  0  0.120222  0.096591  0  0.997748  0
H  H100  1  0.18286031  0.02312944  0.34610033  1  0.115786  0  0.121921  0.095781  0  1.00382  0
H  H101  1  0.68286026  0.47687257  0.84610035  1  0.115787  0  0.12188  0.095732  0  1.003816  0
H  H102  1  0.81714282  0.97687147  0.65389902  1  0.115757  0  0.121922  0.095787  0  1.003871  0
H  H103  1  0.31713974  0.52312898  0.15389915  1  0.115772  0  0.121917  0.095784  0  1.003819  0
Pb  Pb104  1  0.32881893  0.88009059  0.24112326  1  1.387892  0  0.596955  0.762361  0  2.130838  0
Pb  Pb105  1  0.82881887  0.61990862  0.74112325  1  1.387882  0  0.596934  0.762339  0  2.130912  0
Pb  Pb106  1  0.67118501  0.11990781  0.75888117  1  1.387946  0  0.596975  0.762417  0  2.130807  0
Pb  Pb107  1  0.17118270  0.38009166  0.25887645  1  1.387889  0  0.596935  0.762351  0  2.130885  0
C  C108  1  0.04290403  0.84289878  0.22914555  1  0.525369  0  0.12757  0.153394  0  4.000794  0
C  C109  1  0.54290718  0.65710380  0.72914595  1  0.525993  0  0.127585  0.153364  0  4.000766  0
C  C110  1  0.95709519  0.15710151  0.77085441  1  0.525344  0  0.127583  0.153418  0  4.000766  0
C  C111  1  0.45709439  0.34289837  0.27085320  1  0.525927  0  0.127557  0.153438  0  4.000726  0
C  C112  1  0.93449620  0.84853279  0.20052530  1  0.551457  0  0.053573  0.014823  0  3.932101  0
C  C113  1  0.43449757  0.65146972  0.70052627  1  0.550988  0  0.053564  0.014816  0  3.93196  0
C  C114  1  0.06550301  0.15146686  0.79947356  1  0.551562  0  0.0535  0.014675  0  3.932166  0
C  C115  1  0.56550321  0.34853246  0.29947444  1  0.550923  0  0.05351  0.014617  0  3.932146  0
C  C116  1  0.96509783  0.84296879  0.08068227  1  0.495914  0  0.035877  0.017268  0  3.991259  0
C  C117  1  0.46509765  0.65703376  0.58068305  1  0.49591  0  0.035872  0.017292  0  3.991448  0
C  C118  1  0.03490217  0.15702897  0.91931724  1  0.495923  0  0.03589  0.017266  0  3.991261  0
C  C119  1  0.53490236  0.34296842  0.41931757  1  0.495906  0  0.035867  0.017334  0  3.991289  0
C  C120  1  0.07268288  0.84011268  0.10778017  1  0.500512  0  0.046903  0.04311  0  3.975868  0
C  C121  1  0.57268212  0.65988993  0.60777898  1  0.500294  0  0.046839  0.042933  0  3.975905  0
C  C122  1  0.92731712  0.15988634  0.89221989  1  0.500511  0  0.046903  0.043095  0  3.975853  0
C  C123  1  0.42731788  0.34011162  0.39221997  1  0.500517  0  0.046803  0.042872  0  3.975929  0
C  C124  1  0.10386874  0.83893435  0.43383795  1  0.356912  0  0.015824  -0.035687  0  3.955971  0
C  C125  1  0.60386877  0.66106519  0.93383796  1  0.356904  0  0.015836  -0.035671  0  3.95608  0
C  C126  1  0.89613047  0.16106657  0.56616146  1  0.356932  0  0.015819  -0.035659  0  3.955976  0
C  C127  1  0.39613123  0.33893573  0.06616155  1  0.356899  0  0.015792  -0.035754  0  3.956044  0
C  C128  1  0.02737958  0.83032756  0.36992839  1  -0.081277  0  -0.121834  -0.258492  0  4.010887  0
C  C129  1  0.52738041  0.66967249  0.86992850  1  -0.081264  0  -0.121814  -0.258471  0  4.010873  0
C  C130  1  0.97262042  0.16967336  0.63007167  1  -0.081259  0  -0.121854  -0.258536  0  4.010794  0
C  C131  1  0.47262038  0.33032906  0.13007165  1  -0.081249  0  -0.121816  -0.258464  0  4.010881  0
C  C132  1  0.08235155  0.84197452  0.30978491  1  0.435399  0  0.082926  0.092978  0  4.089022  0
C  C133  1  0.58235314  0.65802560  0.80978567  1  0.435402  0  0.082923  0.093054  0  4.088956  0
C  C134  1  0.91764767  0.15802577  0.69021505  1  0.435404  0  0.082952  0.093021  0  4.088881  0
C  C135  1  0.41764764  0.34197594  0.19021394  1  0.435409  0  0.082964  0.093061  0  4.088965  0
C  C136  1  0.36565521  0.02629083  0.47883512  1  0.366477  0  0.020598  -0.033672  0  3.960228  0
C  C137  1  0.86565437  0.47370957  0.97883615  1  0.366475  0  0.020607  -0.033652  0  3.960126  0
C  C138  1  0.63434479  0.97370946  0.52116439  1  0.366468  0  0.020586  -0.033672  0  3.960269  0
C  C139  1  0.13434563  0.52629008  0.02116391  1  0.366461  0  0.020583  -0.033695  0  3.96021  0
C  C140  1  0.41723923  0.08300287  0.43970832  1  -0.036277  0  -0.116017  -0.254595  0  4.019312  0
C  C141  1  0.91723905  0.41699697  0.93970832  1  -0.036224  0  -0.116038  -0.254634  0  4.019236  0
C  C142  1  0.58275998  0.91699741  0.56029109  1  -0.036274  0  -0.116005  -0.254614  0  4.019315  0
C  C143  1  0.08276095  0.58300206  0.06029174  1  -0.036027  0  -0.11602  -0.254617  0  4.019222  0
C  C144  1  0.43567326  0.03727831  0.37627375  1  0.46457  0  0.083938  0.087955  0  4.103432  0
C  C145  1  0.93567240  0.46272155  0.87627367  1  0.465054  0  0.083958  0.088019  0  4.103378  0
C  C146  1  0.56432674  0.96272134  0.62372576  1  0.464585  0  0.083902  0.087942  0  4.103247  0
C  C147  1  0.06432760  0.53727748  0.12372584  1  0.46506  0  0.083956  0.087996  0  4.103332  0
C  C148  1  0.48596248  0.06408841  0.31422940  1  0.525173  0  0.128202  0.155193  0  3.989173  0
C  C149  1  0.98596155  0.43591152  0.81422986  1  0.524603  0  0.128228  0.155182  0  3.989194  0
C  C150  1  0.51403831  0.93591125  0.68577131  1  0.525173  0  0.128279  0.155317  0  3.989055  0
C  C151  1  0.01403845  0.56408687  0.18577020  1  0.524604  0  0.128199  0.155221  0  3.989134  0
C  C152  1  0.55239033  0.13504814  0.31987439  1  0.496695  0  0.050373  0.007817  0  3.912349  0
C  C153  1  0.05238905  0.36495306  0.81987560  1  0.496658  0  0.050339  0.007704  0  3.912385  0
C  C154  1  0.44760889  0.86495215  0.68012612  1  0.496708  0  0.050405  0.007848  0  3.912272  0
C  C155  1  0.94761096  0.63504723  0.18012501  1  0.496691  0  0.05037  0.007758  0  3.912308  0
C  C156  1  0.57827371  0.11572508  0.19941650  1  0.508022  0  0.041839  0.024412  0  3.961042  0
C  C157  1  0.07827404  0.38427424  0.69941791  1  0.507582  0  0.04183  0.024278  0  3.961132  0
C  C158  1  0.42172629  0.88427457  0.80058356  1  0.508  0  0.041814  0.024383  0  3.96114  0
C  C159  1  0.92172753  0.61572415  0.30058290  1  0.507565  0  0.041834  0.02437  0  3.961083  0
C  C160  1  0.51407790  0.04450749  0.19328432  1  0.467279  0  0.050923  0.048521  0  3.961213  0
C  C161  1  0.01407681  0.45549112  0.69328390  1  0.467735  0  0.050939  0.04862  0  3.961187  0
C  C162  1  0.48592289  0.95549091  0.80671694  1  0.46726  0  0.050911  0.04851  0  3.96112  0
C  C163  1  0.98592319  0.54450728  0.30671616  1  0.467727  0  0.05091  0.048501  0  3.961282  0
C  C164  1  0.60136600  0.80477383  0.24522184  1  0.48488  0  0.128815  0.158401  0  3.999308  0
C  C165  1  0.10136511  0.69522505  0.74522032  1  0.484703  0  0.128757  0.158495  0  3.999378  0
C  C166  1  0.39863714  0.19522709  0.75477972  1  0.484759  0  0.12889  0.158647  0  3.999214  0
C  C167  1  0.89863410  0.30477271  0.25477909  1  0.48486  0  0.128818  0.158448  0  3.999223  0
C  C168  1  0.70626386  0.78033005  0.27069734  1  0.531469  0  0.048627  0.0029  0  3.914312  0
C  C169  1  0.20626225  0.71966898  0.77069518  1  0.531358  0  0.048615  0.002846  0  3.914274  0
C  C170  1  0.29374007  0.21967086  0.72930597  1  0.531439  0  0.048576  0.002866  0  3.914391  0
C  C171  1  0.79373618  0.28033004  0.22930357  1  0.531363  0  0.048613  0.002901  0  3.914257  0
C  C172  1  0.68559605  0.79627498  0.39247391  1  0.491645  0  0.038618  0.020384  0  3.975896  0
C  C173  1  0.18559518  0.70372530  0.89247129  1  0.491612  0  0.038657  0.020372  0  3.976009  0
C  C174  1  0.31440475  0.20372657  0.60753012  1  0.491615  0  0.038738  0.020531  0  3.9758  0
C  C175  1  0.81440403  0.29627435  0.10752812  1  0.49162  0  0.038701  0.0205  0  3.975848  0
C  C176  1  0.58029334  0.81672842  0.36820691  1  0.482129  0  0.044796  0.039366  0  3.974617  0
C  C177  1  0.08029321  0.68327170  0.86820548  1  0.482143  0  0.044848  0.03946  0  3.974653  0
C  C178  1  0.41970824  0.18327312  0.63179556  1  0.482209  0  0.04481  0.039368  0  3.974579  0
C  C179  1  0.91970679  0.31672732  0.13179402  1  0.482154  0  0.044798  0.039293  0  3.974678  0
C  C180  1  0.53329710  0.82936831  0.04202845  1  0.323279  0  0.020204  -0.032881  0  3.956569  0
C  C181  1  0.03329536  0.67063109  0.54202462  1  0.323277  0  0.020226  -0.032844  0  3.956547  0
C  C182  1  0.46670447  0.17063134  0.95797181  1  0.323039  0  0.02022  -0.032826  0  3.956481  0
C  C183  1  0.96670385  0.32936920  0.45797424  1  0.322881  0  0.020187  -0.032862  0  3.956434  0
C  C184  1  0.61154821  0.81261453  0.10337989  1  -0.065556  0  -0.120554  -0.262448  0  4.008465  0
C  C185  1  0.11155123  0.68738499  0.60337997  1  -0.065819  0  -0.120578  -0.262507  0  4.008253  0
C  C186  1  0.38845572  0.18738450  0.89662232  1  -0.066474  0  -0.120586  -0.262543  0  4.008529  0
C  C187  1  0.88844798  0.31261467  0.39661888  1  -0.065865  0  -0.120573  -0.262476  0  4.008221  0
C  C188  1  0.55897739  0.81414468  0.16547336  1  0.436646  0  0.082391  0.089858  0  4.102676  0
C  C189  1  0.05897413  0.68585414  0.66547320  1  0.436959  0  0.0824  0.089797  0  4.10274  0
C  C190  1  0.44102576  0.18585498  0.83452930  1  0.437471  0  0.082358  0.089798  0  4.102635  0
C  C191  1  0.94102508  0.31414426  0.33452676  1  0.436809  0  0.08236  0.089814  0  4.102602  0
C  C192  1  0.29292533  0.02361435  0.00178307  1  0.359624  0  0.023178  -0.027323  0  3.946717  0
C  C193  1  0.79292450  0.47638527  0.50178299  1  0.359619  0  0.023207  -0.027269  0  3.946653  0
C  C194  1  0.70707937  0.97638468  0.99821703  1  0.359572  0  0.023192  -0.027302  0  3.946837  0
C  C195  1  0.20707551  0.52361375  0.49821762  1  0.359593  0  0.023207  -0.027264  0  3.946764  0
C  C196  1  0.26296152  0.08853524  0.04485934  1  -0.042806  0  -0.115913  -0.262337  0  4.020277  0
C  C197  1  0.76296133  0.41146560  0.54485989  1  -0.042794  0  -0.115905  -0.262312  0  4.020336  0
C  C198  1  0.73704083  0.91146694  0.95514101  1  -0.042814  0  -0.115962  -0.262402  0  4.02023  0
C  C199  1  0.23703946  0.58853405  0.45514082  1  -0.042825  0  -0.11589  -0.262342  0  4.020278  0
C  C200  1  0.25114540  0.04926745  0.11298772  1  0.433446  0  0.081859  0.083368  0  4.11068  0
C  C201  1  0.75114451  0.45073213  0.61298819  1  0.433476  0  0.081883  0.083374  0  4.110671  0
C  C202  1  0.74885773  0.95073158  0.88701218  1  0.433419  0  0.081916  0.08343  0  4.110471  0
C  C203  1  0.24885627  0.54926816  0.38701142  1  0.433503  0  0.081873  0.083411  0  4.110646  0
C  C204  1  0.22151854  0.08499568  0.18025614  1  0.4703  0  0.130841  0.159969  0  4.000151  0
C  C205  1  0.72151757  0.41500386  0.68025659  1  0.470289  0  0.130855  0.159987  0  4.000098  0
C  C206  1  0.77848381  0.91500461  0.81974366  1  0.470313  0  0.130858  0.159973  0  4.000082  0
C  C207  1  0.27848244  0.58499580  0.31974347  1  0.470287  0  0.130847  0.15998  0  4.000113  0
C  C208  1  0.20217716  0.17176410  0.18656446  1  0.578149  0  0.056653  0.012039  0  3.87906  0
C  C209  1  0.70217599  0.32823604  0.68656488  1  0.578165  0  0.056664  0.011999  0  3.879104  0
C  C210  1  0.79782363  0.82823556  0.81343515  1  0.578168  0  0.056671  0.012057  0  3.879031  0
C  C211  1  0.29782322  0.67176425  0.31343452  1  0.578178  0  0.056648  0.011989  0  3.87916  0
C  C212  1  0.16838545  0.15244732  0.30564022  1  0.436307  0  0.047239  0.027535  0  3.945645  0
C  C213  1  0.66838511  0.34755341  0.80564130  1  0.436129  0  0.047223  0.027482  0  3.945747  0
C  C214  1  0.83161533  0.84755297  0.69435773  1  0.436151  0  0.04721  0.02747  0  3.945786  0
C  C215  1  0.33161411  0.65244624  0.19435866  1  0.436276  0  0.047204  0.027494  0  3.945774  0
C  C216  1  0.18766760  0.06641026  0.29998264  1  0.571982  0  0.056754  0.057493  0  3.958993  0
C  C217  1  0.68766588  0.43359050  0.79998190  1  0.572125  0  0.05675  0.057511  0  3.958949  0
C  C218  1  0.81233553  0.93359066  0.70001560  1  0.57205  0  0.056703  0.057433  0  3.959034  0
C  C219  1  0.31233334  0.56640979  0.20001806  1  0.572031  0  0.056742  0.057467  0  3.959133  0
N  N220  1  0.11176170  0.83950178  0.18146344  1  -1.204524  0  -0.284089  -0.247596  0  3.361205  0
N  N221  1  0.61176172  0.66049964  0.68146289  1  -1.204534  0  -0.284031  -0.24746  0  3.361223  0
N  N222  1  0.88823752  0.16049725  0.81853652  1  -1.204549  0  -0.284053  -0.24757  0  3.361282  0
N  N223  1  0.38823749  0.33950191  0.31853596  1  -1.204523  0  -0.283933  -0.247384  0  3.36114  0
N  N224  1  0.89530631  0.84778816  0.12727200  1  -1.18142  0  -0.306422  -0.222553  0  3.33669  0
N  N225  1  0.39530533  0.65221492  0.62727267  1  -1.181411  0  -0.306405  -0.222515  0  3.336701  0
N  N226  1  0.10469290  0.15220961  0.87272686  1  -1.181402  0  -0.306377  -0.222453  0  3.336712  0
N  N227  1  0.60469310  0.34778789  0.37272774  1  -1.18141  0  -0.306404  -0.222492  0  3.336694  0
N  N228  1  0.18533115  0.85549154  0.33657957  1  -0.700705  0  -0.208002  -0.245705  0  3.268994  0
N  N229  1  0.68533192  0.64450874  0.83657967  1  -0.700724  0  -0.208048  -0.245865  0  3.268925  0
N  N230  1  0.81466885  0.14450938  0.66341883  1  -0.700663  0  -0.208034  -0.245716  0  3.26898  0
N  N231  1  0.31466886  0.35549092  0.16341993  1  -0.700736  0  -0.208032  -0.245819  0  3.268922  0
N  N232  1  0.19737557  0.85419275  0.41211228  1  -0.973693  0  -0.123315  0.04163  0  3.730506  0
N  N233  1  0.69737557  0.64580692  0.91211339  1  -0.973707  0  -0.123289  0.041725  0  3.730371  0
N  N234  1  0.80262364  0.14580817  0.58788657  1  -0.973761  0  -0.123291  0.041609  0  3.730597  0
N  N235  1  0.30262443  0.35419274  0.08788667  1  -0.973714  0  -0.12329  0.041723  0  3.730395  0
N  N236  1  0.39754666  0.95802032  0.37797520  1  -0.69811  0  -0.202694  -0.239132  0  3.267888  0
N  N237  1  0.89754642  0.54198026  0.87797572  1  -0.698106  0  -0.202743  -0.239264  0  3.267816  0
N  N238  1  0.60245334  0.04198059  0.62202486  1  -0.698091  0  -0.202734  -0.239249  0  3.267762  0
N  N239  1  0.10245279  0.45801876  0.12202369  1  -0.698125  0  -0.202719  -0.239201  0  3.267757  0
N  N240  1  0.35512167  0.95200233  0.44059102  1  -0.947721  0  -0.119793  0.046156  0  3.727788  0
N  N241  1  0.85512223  0.54799820  0.94059164  1  -0.947729  0  -0.11974  0.046283  0  3.727602  0
N  N242  1  0.64487755  0.04799859  0.55940839  1  -0.947709  0  -0.119773  0.046185  0  3.727662  0
N  N243  1  0.14487777  0.45200146  0.05940787  1  -0.947741  0  -0.119764  0.046212  0  3.727657  0
N  N244  1  0.46817197  0.01885749  0.24995526  1  -1.193427  0  -0.281611  -0.24072  0  3.38453  0
N  N245  1  0.96817114  0.48114115  0.74995518  1  -1.193396  0  -0.281678  -0.240783  0  3.384534  0
N  N246  1  0.53182960  0.98114091  0.75004444  1  -1.193412  0  -0.281664  -0.240816  0  3.384461  0
N  N247  1  0.03182964  0.51885662  0.25004387  1  -1.193436  0  -0.281617  -0.240727  0  3.384492  0
N  N248  1  0.59781154  0.16071264  0.26328314  1  -1.18009  0  -0.294848  -0.203604  0  3.356706  0
N  N249  1  0.09781177  0.33928736  0.76328453  1  -1.180072  0  -0.294862  -0.203506  0  3.356571  0
N  N250  1  0.40218847  0.83928828  0.73671747  1  -1.180105  0  -0.294874  -0.203611  0  3.356736  0
N  N251  1  0.90218980  0.66071104  0.23671683  1  -1.180003  0  -0.294849  -0.203536  0  3.356704  0
N  N252  1  0.53851643  0.82196140  0.29524638  1  -1.188406  0  -0.282801  -0.242491  0  3.381408  0
N  N253  1  0.03851472  0.67803802  0.79524476  1  -1.188448  0  -0.282785  -0.242562  0  3.381443  0
N  N254  1  0.46148593  0.17804077  0.70475508  1  -1.188561  0  -0.282839  -0.242635  0  3.381499  0
N  N255  1  0.96148528  0.32195974  0.20475475  1  -1.188407  0  -0.282834  -0.242533  0  3.381425  0
N  N256  1  0.74879936  0.77751498  0.34348240  1  -1.15934  0  -0.299424  -0.206743  0  3.334366  0
N  N257  1  0.24879853  0.72248413  0.84347979  1  -1.159228  0  -0.299432  -0.206691  0  3.334298  0
N  N258  1  0.25120301  0.22248594  0.65652072  1  -1.159255  0  -0.299417  -0.206773  0  3.334428  0
N  N259  1  0.75120069  0.27751490  0.15652017  1  -1.159292  0  -0.299442  -0.206751  0  3.334389  0
N  N260  1  0.45570869  0.83009710  0.14211168  1  -0.707508  0  -0.206715  -0.243969  0  3.26309  0
N  N261  1  0.95570795  0.66990166  0.64211105  1  -0.70754  0  -0.206716  -0.243954  0  3.263097  0
N  N262  1  0.54429445  0.16990193  0.85789043  1  -0.707371  0  -0.206642  -0.243918  0  3.263021  0
N  N263  1  0.04429205  0.33009674  0.35788901  1  -0.707545  0  -0.206705  -0.243983  0  3.263119  0
N  N264  1  0.44119734  0.83960856  0.06691837  1  -0.963985  0  -0.121017  0.047567  0  3.730074  0
N  N265  1  0.94119658  0.66039206  0.56691718  1  -0.964403  0  -0.121028  0.047594  0  3.730118  0
N  N266  1  0.55880659  0.16039172  0.93308439  1  -0.964094  0  -0.121062  0.047567  0  3.730049  0
N  N267  1  0.05880264  0.33960760  0.43308168  1  -0.963966  0  -0.121011  0.047601  0  3.730087  0
N  N268  1  0.27292314  0.96605763  0.11025123  1  -0.690944  0  -0.203129  -0.231704  0  3.278904  0
N  N269  1  0.77292210  0.53394212  0.61025110  1  -0.690968  0  -0.203196  -0.231745  0  3.278935  0
N  N270  1  0.72708000  0.03394266  0.88975032  1  -0.690955  0  -0.203203  -0.23174  0  3.278975  0
N  N271  1  0.22707712  0.46605753  0.38974886  1  -0.690964  0  -0.20316  -0.231747  0  3.278952  0
N  N272  1  0.29882646  0.95120849  0.04262592  1  -0.943111  0  -0.11653  0.0505  0  3.716764  0
N  N273  1  0.79882624  0.54879192  0.54262534  1  -0.943096  0  -0.11651  0.050508  0  3.7167  0
N  N274  1  0.70117746  0.04879117  0.95737574  1  -0.943054  0  -0.116496  0.050496  0  3.716948  0
N  N275  1  0.20117377  0.45120837  0.45737472  1  -0.943053  0  -0.116521  0.050488  0  3.716757  0
N  N276  1  0.21460403  0.03306904  0.23834362  1  -1.198794  0  -0.280599  -0.237275  0  3.366426  0
N  N277  1  0.71460238  0.46693238  0.73834289  1  -1.198822  0  -0.280591  -0.237254  0  3.366322  0
N  N278  1  0.78539911  0.96693251  0.76165628  1  -1.198762  0  -0.280585  -0.237219  0  3.366293  0
N  N279  1  0.28539762  0.53306853  0.26165717  1  -1.19881  0  -0.280576  -0.237236  0  3.366387  0
N  N280  1  0.17671818  0.20461544  0.24867472  1  -1.230713  0  -0.282199  -0.186688  0  3.449761  0
N  N281  1  0.67671851  0.29538530  0.74867478  1  -1.230679  0  -0.282165  -0.18662  0  3.449739  0
N  N282  1  0.82328259  0.79538548  0.75132378  1  -1.230678  0  -0.282189  -0.18664  0  3.449688  0
N  N283  1  0.32328150  0.70461499  0.25132638  1  -1.230761  0  -0.282183  -0.186647  0  3.449757  0
