# generated using pymatgen
data_CdH8C10I2(BrN)2
_symmetry_space_group_name_H-M   'P 1'
_cell_length_a   4.16675599
_cell_length_b   12.32068204
_cell_length_c   14.78289112
_cell_angle_alpha   90.00045543
_cell_angle_beta   89.99937324
_cell_angle_gamma   86.26359491
_symmetry_Int_Tables_number   1
_chemical_formula_structural   CdH8C10I2(BrN)2
_chemical_formula_sum   'Cd2 H16 C20 I4 Br4 N4'
_cell_volume   757.30022077
_cell_formula_units_Z   2
loop_
 _symmetry_equiv_pos_site_id
 _symmetry_equiv_pos_as_xyz
  1  'x, y, z'
loop_
 _atom_site_type_symbol
 _atom_site_label
 _atom_site_symmetry_multiplicity
 _atom_site_fract_x
 _atom_site_fract_y
 _atom_site_fract_z
 _atom_site_occupancy
 _atom_site_hle17_bader_spin_density
 _atom_site_hle17_ddec_charge
 _atom_site_hle17_ddec_spin_density
 _atom_site_hle17_ddec_sum_bond_order
 _atom_site_hle17_magmom
 _atom_site_hse06_10hf_bader_spin_density
 _atom_site_hse06_10hf_ddec_charge
 _atom_site_hse06_10hf_ddec_spin_density
 _atom_site_hse06_10hf_ddec_sum_bond_order
 _atom_site_hse06_10hf_magmom
 _atom_site_hse06_bader_spin_density
 _atom_site_hse06_ddec_charge
 _atom_site_hse06_ddec_spin_density
 _atom_site_hse06_ddec_sum_bond_order
 _atom_site_hse06_magmom
 _atom_site_pbe_bader_spin_density
 _atom_site_pbe_cm5_charge
 _atom_site_pbe_ddec_charge
 _atom_site_pbe_ddec_spin_density
 _atom_site_pbe_ddec_sum_bond_order
 _atom_site_pbe_magmom
Cd  Cd0  1  0.99999495  0.00000309  0.00000313  1  0  0.729149  0  2.037455  0  0  0.574989  0  2.459164  0  0  0.625267  0  2.428949  0  0  0.471138  0.539694  0  2.480672  0
Cd  Cd1  1  0.99999969  0.50000074  0.49999679  1  0  0.729164  0  2.037451  0  0  0.574995  0  2.45918  0  0  0.625276  0  2.428963  0  0  0.471148  0.539698  0  2.480695  0
H  H2  1  0.77814157  0.90009957  0.80550691  1  0  0.075398  0  0.992992  0  0  0.080164  0  1.068395  0  0  0.083448  0  1.065206  0  0  0.091797  0.07782  0  1.070576  0
H  H3  1  0.77812054  0.40009288  0.69448790  1  0  0.075432  0  0.992891  0  0  0.080194  0  1.068303  0  0  0.083474  0  1.065129  0  0  0.091784  0.077855  0  1.070487  0
H  H4  1  0.22188592  0.09990991  0.19450316  1  0  0.075459  0  0.992876  0  0  0.080201  0  1.068298  0  0  0.083485  0  1.065117  0  0  0.091796  0.077859  0  1.070482  0
H  H5  1  0.22184317  0.59990437  0.30550391  1  0  0.075395  0  0.992955  0  0  0.080151  0  1.068376  0  0  0.083448  0  1.065153  0  0  0.09177  0.077808  0  1.070558  0
H  H6  1  0.96558587  0.11186576  0.58052731  1  0  0.103612  0  0.961171  0  0  0.108016  0  1.035355  0  0  0.11208  0  1.03119  0  0  0.091902  0.104982  0  1.038521  0
H  H7  1  0.96557844  0.61184562  0.91947466  1  0  0.103703  0  0.961268  0  0  0.108139  0  1.035392  0  0  0.112204  0  1.031225  0  0  0.091942  0.105091  0  1.03857  0
H  H8  1  0.03444247  0.88813396  0.41947465  1  0  0.103653  0  0.961218  0  0  0.108123  0  1.03533  0  0  0.112187  0  1.031166  0  0  0.091897  0.105088  0  1.038499  0
H  H9  1  0.03442480  0.38813898  0.08052053  1  0  0.103712  0  0.961233  0  0  0.108184  0  1.035313  0  0  0.112248  0  1.031147  0  0  0.09193  0.105151  0  1.038484  0
H  H10  1  0.18749629  0.23997004  0.69221277  1  0  0.099739  0  0.971934  0  0  0.108115  0  1.036312  0  0  0.111456  0  1.035175  0  0  0.091959  0.105706  0  1.037341  0
H  H11  1  0.18748032  0.73995934  0.80779516  1  0  0.099729  0  0.971734  0  0  0.10806  0  1.036192  0  0  0.111395  0  1.035063  0  0  0.091977  0.105652  0  1.03721  0
H  H12  1  0.81250249  0.76003816  0.30778851  1  0  0.099721  0  0.971809  0  0  0.108067  0  1.036241  0  0  0.111403  0  1.035115  0  0  0.091979  0.10566  0  1.037265  0
H  H13  1  0.81253480  0.26002674  0.19220206  1  0  0.099786  0  0.971719  0  0  0.108152  0  1.036126  0  0  0.11149  0  1.034998  0  0  0.091999  0.105744  0  1.037157  0
H  H14  1  0.18930725  0.19137060  0.85727235  1  0  0.063917  0  1.000895  0  0  0.065998  0  1.080935  0  0  0.069485  0  1.076793  0  0  0.087422  0.063481  0  1.083885  0
H  H15  1  0.18928010  0.69136797  0.64273123  1  0  0.063911  0  1.000842  0  0  0.065969  0  1.080914  0  0  0.069454  0  1.076776  0  0  0.087381  0.063448  0  1.083858  0
H  H16  1  0.81068841  0.80864575  0.14272825  1  0  0.064067  0  1.000775  0  0  0.066097  0  1.080887  0  0  0.069581  0  1.076753  0  0  0.087434  0.063568  0  1.083837  0
H  H17  1  0.81071776  0.30862318  0.35726329  1  0  0.063919  0  1.000868  0  0  0.065975  0  1.080942  0  0  0.069463  0  1.076798  0  0  0.08737  0.063457  0  1.083891  0
C  C18  1  0.86774763  0.97456553  0.77791157  1  0  0.070064  0  3.711628  0  0  0.03239  0  3.961318  0  0  0.039099  0  3.979216  0  0  0.026111  0.028202  0  3.949014  0
C  C19  1  0.86771831  0.47455924  0.72208407  1  0  0.069978  0  3.711549  0  0  0.032299  0  3.961267  0  0  0.039008  0  3.979173  0  0  0.026071  0.028101  0  3.948974  0
C  C20  1  0.13228480  0.02544226  0.22209512  1  0  0.070195  0  3.7115  0  0  0.03258  0  3.961099  0  0  0.039287  0  3.979019  0  0  0.026264  0.028387  0  3.948806  0
C  C21  1  0.13224802  0.52543554  0.27790571  1  0  0.070078  0  3.711494  0  0  0.032488  0  3.961152  0  0  0.039194  0  3.979063  0  0  0.026215  0.028302  0  3.948853  0
C  C22  1  0.85549516  0.99695060  0.68544869  1  0  0.036401  0  3.713358  0  0  0.057412  0  3.976693  0  0  0.055468  0  3.999696  0  0  -0.02137  0.058245  0  3.96126  0
C  C23  1  0.85545060  0.49694063  0.81454983  1  0  0.036577  0  3.713147  0  0  0.057636  0  3.976424  0  0  0.055689  0  3.999431  0  0  -0.021244  0.058469  0  3.960992  0
C  C24  1  0.14453508  0.00305479  0.31455733  1  0  0.036357  0  3.713446  0  0  0.057389  0  3.976757  0  0  0.05544  0  3.999765  0  0  -0.021329  0.058221  0  3.961329  0
C  C25  1  0.14450880  0.50305099  0.18544468  1  0  0.036589  0  3.713314  0  0  0.057494  0  3.976792  0  0  0.055547  0  3.999798  0  0  -0.021353  0.058324  0  3.961365  0
C  C26  1  0.97048987  0.09298638  0.65255916  1  0  -0.053344  0  3.725621  0  0  -0.080692  0  3.97577  0  0  -0.077517  0  3.993266  0  0  -0.079952  -0.08241  0  3.963867  0
C  C27  1  0.97046512  0.59297622  0.84744404  1  0  -0.053755  0  3.725844  0  0  -0.081154  0  3.975991  0  0  -0.07798  0  3.993489  0  0  -0.080111  -0.082858  0  3.964093  0
C  C28  1  0.02953812  0.90701740  0.34744482  1  0  -0.053629  0  3.7258  0  0  -0.081052  0  3.975956  0  0  -0.077879  0  3.993458  0  0  -0.0801  -0.082767  0  3.964052  0
C  C29  1  0.02952539  0.40701665  0.15255183  1  0  -0.053663  0  3.725793  0  0  -0.081049  0  3.976002  0  0  -0.077871  0  3.993495  0  0  -0.08006  -0.082763  0  3.964102  0
C  C30  1  0.09238934  0.16433639  0.71510876  1  0  -0.09933  0  3.721045  0  0  -0.106772  0  3.966413  0  0  -0.114124  0  3.98811  0  0  -0.087596  -0.102181  0  3.95195  0
C  C31  1  0.09236233  0.66432476  0.78489768  1  0  -0.099063  0  3.720786  0  0  -0.106458  0  3.966177  0  0  -0.113806  0  3.987873  0  0  -0.087476  -0.101865  0  3.951698  0
C  C32  1  0.90762146  0.83567166  0.28489522  1  0  -0.099082  0  3.720816  0  0  -0.106487  0  3.966201  0  0  -0.113844  0  3.987906  0  0  -0.087541  -0.101898  0  3.95173  0
C  C33  1  0.90763101  0.33566321  0.21510022  1  0  -0.099201  0  3.72052  0  0  -0.10664  0  3.965935  0  0  -0.113992  0  3.987627  0  0  -0.087531  -0.102048  0  3.951475  0
C  C34  1  0.09521522  0.13757587  0.80660770  1  0  0.118373  0  3.707545  0  0  0.084833  0  3.960096  0  0  0.092493  0  3.978295  0  0  0.030078  0.079905  0  3.947644  0
C  C35  1  0.09519102  0.63757214  0.69339655  1  0  0.118399  0  3.707451  0  0  0.084895  0  3.959957  0  0  0.092556  0  3.978165  0  0  0.030121  0.079974  0  3.947488  0
C  C36  1  0.90478342  0.86243395  0.19339629  1  0  0.118189  0  3.707421  0  0  0.08469  0  3.959928  0  0  0.092353  0  3.978144  0  0  0.030093  0.079778  0  3.947458  0
C  C37  1  0.90479482  0.36241917  0.30660135  1  0  0.118316  0  3.70727  0  0  0.084816  0  3.959797  0  0  0.092476  0  3.977995  0  0  0.030052  0.079893  0  3.947343  0
I  I38  1  0.47798418  0.16969456  0.03087800  1  0  -0.413613  0  1.269169  0  0  -0.359163  0  1.626447  0  0  -0.381356  0  1.605348  0  0  -0.179014  -0.343255  0  1.642842  0
I  I39  1  0.47799219  0.66969589  0.46912731  1  0  -0.413615  0  1.26912  0  0  -0.359145  0  1.62637  0  0  -0.381342  0  1.605266  0  0  -0.179033  -0.343238  0  1.64276  0
I  I40  1  0.52200307  0.83030810  0.96912396  1  0  -0.413619  0  1.269114  0  0  -0.359137  0  1.626356  0  0  -0.381332  0  1.605255  0  0  -0.179021  -0.343233  0  1.64274  0
I  I41  1  0.52201189  0.33030657  0.53087261  1  0  -0.413638  0  1.269157  0  0  -0.359156  0  1.626397  0  0  -0.381348  0  1.605296  0  0  -0.179027  -0.343248  0  1.64279  0
Br  Br42  1  0.68591125  0.89334717  0.60583567  1  0  -0.06417  0  1.368625  0  0  -0.056203  0  1.644232  0  0  -0.060353  0  1.638343  0  0  0.037983  -0.053217  0  1.648584  0
Br  Br43  1  0.68586129  0.39333652  0.89416007  1  0  -0.064139  0  1.368595  0  0  -0.056179  0  1.644178  0  0  -0.060339  0  1.638313  0  0  0.037998  -0.053186  0  1.648536  0
Br  Br44  1  0.31411687  0.10665499  0.39417372  1  0  -0.064101  0  1.368667  0  0  -0.056146  0  1.644279  0  0  -0.060303  0  1.63841  0  0  0.038  -0.053153  0  1.648638  0
Br  Br45  1  0.31409054  0.60665926  0.10583242  1  0  -0.064232  0  1.36858  0  0  -0.056229  0  1.644211  0  0  -0.060383  0  1.638333  0  0  0.037965  -0.053236  0  1.648564  0
N  N46  1  0.98565895  0.04409467  0.83740917  1  0  -0.301651  0  3.270696  0  0  -0.221621  0  3.524574  0  0  -0.242842  0  3.54855  0  0  -0.324902  -0.207159  0  3.507738  0
N  N47  1  0.98564318  0.54409050  0.66259302  1  0  -0.30169  0  3.270788  0  0  -0.221715  0  3.524745  0  0  -0.242917  0  3.548669  0  0  -0.324978  -0.207255  0  3.507911  0
N  N48  1  0.01435637  0.95591657  0.16259617  1  0  -0.30176  0  3.270688  0  0  -0.221812  0  3.524688  0  0  -0.242999  0  3.548567  0  0  -0.325046  -0.207352  0  3.507852  0
N  N49  1  0.01433757  0.45590411  0.33740420  1  0  -0.301684  0  3.270597  0  0  -0.221704  0  3.524503  0  0  -0.242924  0  3.54847  0  0  -0.324893  -0.207243  0  3.507675  0
