# generated using pymatgen
data_CuH10C16N2O5
_symmetry_space_group_name_H-M   'P 1'
_cell_length_a   8.40966307
_cell_length_b   10.32574102
_cell_length_c   17.84585820
_cell_angle_alpha   90.00001379
_cell_angle_beta   103.16834575
_cell_angle_gamma   89.99997592
_symmetry_Int_Tables_number   1
_chemical_formula_structural   CuH10C16N2O5
_chemical_formula_sum   'Cu4 H40 C64 N8 O20'
_cell_volume   1508.91446907
_cell_formula_units_Z   4
loop_
 _symmetry_equiv_pos_site_id
 _symmetry_equiv_pos_as_xyz
  1  'x, y, z'
loop_
 _atom_site_type_symbol
 _atom_site_label
 _atom_site_symmetry_multiplicity
 _atom_site_fract_x
 _atom_site_fract_y
 _atom_site_fract_z
 _atom_site_occupancy
 _atom_site_pbe_bader_charge
 _atom_site_pbe_bader_spin_density
 _atom_site_pbe_cm5_charge
 _atom_site_pbe_ddec_charge
 _atom_site_pbe_ddec_spin_density
 _atom_site_pbe_ddec_sum_bond_order
 _atom_site_pbe_magmom
Cu  Cu0  1  0.18371276  0.05586145  0.56609437  1  1.040145  0.551053  0.717301  0.767039  0.715429  2.193644  0.551
Cu  Cu1  1  0.31628678  0.55586242  0.93390563  1  1.040186  0.551055  0.717313  0.76707  0.715431  2.19365  0.551
Cu  Cu2  1  0.81628853  0.94413849  0.43390461  1  1.040314  0.551054  0.71733  0.767092  0.71543  2.193625  0.551
Cu  Cu3  1  0.68371205  0.44413848  0.06609421  1  1.040347  0.551053  0.717322  0.767097  0.715429  2.193653  0.551
H  H4  1  0.18412527  0.93683943  0.79313949  1  0.141644  0.000401  0.111868  0.130973  0.000402  1.021736  0.0
H  H5  1  0.31587409  0.43683751  0.70686110  1  0.14172  0.000401  0.111859  0.130967  0.000402  1.021747  0.0
H  H6  1  0.81587600  0.06316051  0.20686174  1  0.141611  0.000401  0.111882  0.130982  0.000402  1.021737  0.0
H  H7  1  0.68412597  0.56316147  0.29313831  1  0.141725  0.000401  0.111877  0.130979  0.000402  1.021729  0.0
H  H8  1  0.35617957  0.09238072  0.02125358  1  0.175952  0.000607  0.111107  0.13418  0.00063  1.032598  0.0
H  H9  1  0.14382103  0.59237984  0.47874620  1  0.175955  0.000607  0.111097  0.134165  0.00063  1.032614  0.0
H  H10  1  0.64382048  0.90762018  0.97874695  1  0.175971  0.000607  0.111122  0.134204  0.00063  1.032585  0.0
H  H11  1  0.85618026  0.40762010  0.52125278  1  0.175973  0.000607  0.111121  0.134194  0.00063  1.032601  0.0
H  H12  1  0.47716543  0.28342672  0.82605976  1  0.140233  0.000535  0.111133  0.125315  0.000508  1.00786  0.0
H  H13  1  0.02283401  0.78342478  0.67393970  1  0.14025  0.000535  0.111139  0.125317  0.000508  1.007857  0.0
H  H14  1  0.52283340  0.71657419  0.17394064  1  0.140221  0.000535  0.111122  0.125297  0.000508  1.007867  0.0
H  H15  1  0.97716606  0.21657419  0.32605915  1  0.140222  0.000535  0.111117  0.125287  0.000508  1.007881  0.0
H  H16  1  0.93109458  0.72878550  0.89696303  1  0.153194  0.000974  0.119905  0.137227  0.000528  1.001746  0.001
H  H17  1  0.56890259  0.22878845  0.60303573  1  0.153214  0.000974  0.119913  0.137225  0.000528  1.001767  0.001
H  H18  1  0.06890547  0.27121251  0.10303806  1  0.153161  0.000974  0.11989  0.137219  0.000528  1.001786  0.001
H  H19  1  0.43109991  0.77121246  0.39696339  1  0.153187  0.000974  0.119929  0.13724  0.000528  1.001772  0.001
H  H20  1  0.75790734  0.55402132  0.92950053  1  0.152204  0.001987  0.119217  0.10004  0.000887  1.026941  0.002
H  H21  1  0.74208991  0.05402420  0.57049934  1  0.152237  0.001988  0.119242  0.100063  0.000887  1.026961  0.002
H  H22  1  0.24209272  0.44597765  0.07050000  1  0.152185  0.001987  0.119236  0.100067  0.000887  1.026947  0.002
H  H23  1  0.25791015  0.94597574  0.42950008  1  0.152017  0.001988  0.119261  0.100103  0.000887  1.026947  0.002
H  H24  1  0.92837947  0.61242566  0.16400157  1  0.128928  0.001946  0.123091  0.100696  0.00088  0.99771  0.001
H  H25  1  0.57161882  0.11242580  0.33599808  1  0.128924  0.001946  0.123095  0.100695  0.00088  0.997715  0.001
H  H26  1  0.07161814  0.38757525  0.83599926  1  0.128954  0.001946  0.123099  0.100694  0.00088  0.99772  0.001
H  H27  1  0.42838002  0.88757414  0.66400120  1  0.12894  0.001946  0.123098  0.100709  0.00088  0.997729  0.001
H  H28  1  0.11455572  0.79150059  0.14150877  1  0.151074  0.000934  0.115317  0.127549  0.000509  1.012821  0.001
H  H29  1  0.38544357  0.29150161  0.35848977  1  0.151035  0.000934  0.115371  0.127642  0.000509  1.012809  0.001
H  H30  1  0.88544311  0.20849838  0.85849162  1  0.151075  0.000934  0.115342  0.127579  0.000509  1.012772  0.001
H  H31  1  0.61455771  0.70849930  0.64150977  1  0.151052  0.000934  0.115374  0.127654  0.000509  1.01275  0.001
H  H32  1  0.14039084  0.82782356  0.89606352  1  0.515698  4.9e-05  0.308283  0.277875  -7e-05  1.001027  0.0
H  H33  1  0.35960858  0.32782351  0.60393538  1  0.515674  4.9e-05  0.308281  0.277842  -7e-05  1.001045  0.0
H  H34  1  0.85960676  0.17217735  0.10393730  1  0.515685  4.9e-05  0.308324  0.277986  -7e-05  1.000926  0.0
H  H35  1  0.64039271  0.67217643  0.39606361  1  0.515699  4.9e-05  0.308291  0.277899  -7e-05  1.000979  0.0
H  H36  1  0.18197880  0.49975399  0.29611001  1  0.205202  1.9e-05  0.139983  0.218975  1.1e-05  0.992227  0.0
H  H37  1  0.31802773  0.99975584  0.20388768  1  0.205608  1.9e-05  0.139994  0.218965  1.1e-05  0.992168  0.0
H  H38  1  0.81802370  0.50024595  0.70389023  1  0.205618  1.9e-05  0.139976  0.218976  1.1e-05  0.992262  0.0
H  H39  1  0.68197232  0.00024507  0.79611341  1  0.205732  1.9e-05  0.139986  0.218956  1.1e-05  0.992157  0.0
H  H40  1  0.45354594  0.45985558  0.18656873  1  0.211691  4.1e-05  0.132903  0.214002  3.4e-05  1.021812  0.0
H  H41  1  0.04645695  0.95985659  0.31342799  1  0.211682  4.1e-05  0.132913  0.214011  3.4e-05  1.021845  0.0
H  H42  1  0.54645413  0.54014436  0.81343069  1  0.211684  4.1e-05  0.132894  0.214  3.4e-05  1.021837  0.0
H  H43  1  0.95354188  0.04014238  0.68657240  1  0.21171  4.1e-05  0.132917  0.214031  3.4e-05  1.021827  0.0
C  C44  1  0.31228683  0.12182670  0.71564714  1  1.559609  -0.001016  0.20768  0.566366  -0.001351  4.198522  -0.003
C  C45  1  0.18771146  0.62182766  0.78435217  1  1.559278  -0.001015  0.207741  0.566569  -0.001351  4.198325  -0.003
C  C46  1  0.68771200  0.87817324  0.28435270  1  1.559272  -0.001015  0.207646  0.566303  -0.001351  4.198558  -0.003
C  C47  1  0.81228738  0.37817132  0.21564711  1  1.559284  -0.001015  0.207719  0.566478  -0.001351  4.198347  -0.003
C  C48  1  0.32881997  0.11111368  0.80092300  1  -0.033147  0.009166  -0.018285  -0.029713  0.006362  3.994957  0.007
C  C49  1  0.17117832  0.61111364  0.69907743  1  -0.032823  0.009166  -0.018271  -0.029798  0.006362  3.995085  0.007
C  C50  1  0.67117886  0.88888626  0.19907740  1  -0.032839  0.009165  -0.018287  -0.029725  0.006362  3.995029  0.007
C  C51  1  0.82882052  0.38888630  0.30092185  1  -0.041346  0.009167  -0.018301  -0.029791  0.006362  3.995107  0.007
C  C52  1  0.25235869  0.00998004  0.83130764  1  -0.028559  -0.000756  -0.071084  -0.158555  -0.000928  3.855356  -0.001
C  C53  1  0.24763965  0.50997996  0.66869278  1  -0.028623  -0.000756  -0.071085  -0.158552  -0.000929  3.855438  -0.001
C  C54  1  0.74764136  0.99001893  0.16869289  1  -0.028529  -0.000757  -0.071119  -0.15861  -0.000928  3.855439  -0.001
C  C55  1  0.75236041  0.49001901  0.33130720  1  -0.020127  -0.000757  -0.071103  -0.158586  -0.000928  3.855441  -0.001
C  C56  1  0.26044692  0.00244452  0.91063098  1  0.34579  0.000919  0.106245  0.256957  0.000496  3.987839  0.001
C  C57  1  0.23955143  0.50244247  0.58936888  1  0.345798  0.000919  0.106262  0.256962  0.000497  3.987801  0.001
C  C58  1  0.73955191  0.99755736  0.08936942  1  0.345786  0.000919  0.106244  0.256983  0.000497  3.987826  0.001
C  C59  1  0.76044863  0.49755650  0.41063053  1  0.345809  0.000919  0.106251  0.256992  0.000497  3.987785  0.001
C  C60  1  0.34864534  0.09632252  0.95983173  1  -0.02725  0.000654  -0.076624  -0.169015  0.000385  3.876101  0.001
C  C61  1  0.15135418  0.59632242  0.54016883  1  -0.027234  0.000654  -0.076636  -0.168978  0.000385  3.876082  0.001
C  C62  1  0.65135471  0.90367742  0.04016937  1  -0.027186  0.000654  -0.076631  -0.168984  0.000385  3.8761  0.001
C  C63  1  0.84864710  0.40367655  0.45983071  1  -0.027271  0.000654  -0.076639  -0.16899  0.000385  3.876058  0.001
C  C64  1  0.42624049  0.19620492  0.92877904  1  0.006132  0.001732  -0.022479  -0.028696  0.001469  4.027872  0.001
C  C65  1  0.07375899  0.69620486  0.57122097  1  0.006123  0.001732  -0.022494  -0.02875  0.001469  4.027981  0.001
C  C66  1  0.57376078  0.80379598  0.07122219  1  0.005917  0.001732  -0.022534  -0.028847  0.001469  4.027981  0.001
C  C67  1  0.92624230  0.30379508  0.42877857  1  0.005988  0.001732  -0.022551  -0.028859  0.001469  4.027934  0.001
C  C68  1  0.41727873  0.20490840  0.84969154  1  0.001667  0.001898  -0.07406  -0.102172  0.001336  3.90089  0.002
C  C69  1  0.08272074  0.70490933  0.65030791  1  0.001648  0.001898  -0.074045  -0.102099  0.001336  3.900889  0.002
C  C70  1  0.58272132  0.79509057  0.15030899  1  0.001818  0.001898  -0.074007  -0.102053  0.001336  3.900837  0.002
C  C71  1  0.91727932  0.29509060  0.34969094  1  0.001838  0.001899  -0.073999  -0.102042  0.001336  3.90082  0.002
C  C72  1  0.51787808  0.29376208  0.98136031  1  1.447232  -0.003264  0.188619  0.524342  -0.004928  4.193307  -0.007
C  C73  1  0.98212272  0.79376186  0.51863885  1  1.447306  -0.003264  0.188649  0.524363  -0.004929  4.193305  -0.007
C  C74  1  0.48212197  0.70623786  0.01864022  1  1.447972  -0.003266  0.188622  0.524367  -0.004928  4.193288  -0.007
C  C75  1  0.01787857  0.20623711  0.48135957  1  1.448013  -0.003266  0.188611  0.524381  -0.004928  4.193296  -0.007
C  C76  1  0.14426340  0.88775999  0.00713473  1  1.405864  0.000249  0.242073  0.466636  0.000103  4.110709  0.0
C  C77  1  0.35573461  0.38776204  0.49286481  1  1.405298  0.000249  0.241983  0.466569  0.000103  4.110835  0.0
C  C78  1  0.85573664  0.11223898  0.99286748  1  1.405924  0.000249  0.2421  0.466703  0.000103  4.110884  0.0
C  C79  1  0.64426667  0.61223887  0.50713474  1  1.406168  0.000249  0.242037  0.466592  0.000103  4.1108  0.0
C  C80  1  0.03987460  0.77405873  0.01766864  1  0.001134  -0.003831  0.013105  0.024128  -0.004331  3.937663  -0.002
C  C81  1  0.46012469  0.27406171  0.48233047  1  0.001254  -0.003831  0.013135  0.024212  -0.004331  3.937477  -0.002
C  C82  1  0.96012545  0.22594024  0.98233189  1  0.001171  -0.003831  0.013081  0.024096  -0.004331  3.937745  -0.002
C  C83  1  0.53987659  0.72594017  0.51766852  1  0.001137  -0.003831  0.013105  0.024157  -0.004331  3.937652  -0.002
C  C84  1  0.93792188  0.70672898  0.95729663  1  -0.036112  0.006682  -0.071157  -0.146309  0.004414  3.916081  0.006
C  C85  1  0.56207652  0.20673094  0.54270226  1  -0.036292  0.006682  -0.071212  -0.146398  0.004414  3.915977  0.006
C  C86  1  0.06207817  0.29326999  0.04270446  1  -0.036137  0.006682  -0.071157  -0.146314  0.004414  3.916168  0.006
C  C87  1  0.43792476  0.79326996  0.45729672  1  -0.036132  0.006682  -0.07121  -0.14636  0.004414  3.916159  0.006
C  C88  1  0.83887086  0.60879995  0.97464201  1  0.423905  -2.2e-05  0.047536  0.102436  -0.000212  3.914358  0.0
C  C89  1  0.66112881  0.10880187  0.52535757  1  0.424048  -2.2e-05  0.04752  0.102391  -0.000212  3.914431  0.0
C  C90  1  0.16112919  0.39119902  0.02535852  1  0.424002  -2.2e-05  0.047537  0.102398  -0.000212  3.914395  0.0
C  C91  1  0.33887248  0.89119807  0.47464142  1  0.424149  -2.2e-05  0.047532  0.102378  -0.000212  3.914405  0.0
C  C92  1  0.93590850  0.64110833  0.10627196  1  0.453247  -0.001501  0.050361  0.095962  -0.002004  3.930236  -0.001
C  C93  1  0.56409099  0.14110947  0.39372782  1  0.453238  -0.001501  0.050366  0.095968  -0.002004  3.930268  -0.001
C  C94  1  0.06409032  0.35889161  0.89372900  1  0.453255  -0.001501  0.050376  0.095966  -0.002004  3.930225  -0.001
C  C95  1  0.43590907  0.85889144  0.60627159  1  0.453254  -0.001501  0.050369  0.095981  -0.002004  3.930241  -0.001
C  C96  1  0.03845186  0.73942491  0.09337524  1  -0.015838  0.005243  -0.065762  -0.117954  0.003629  3.901769  0.004
C  C97  1  0.46154745  0.23942592  0.40662330  1  -0.015844  0.005243  -0.065815  -0.11809  0.003629  3.901924  0.004
C  C98  1  0.96154819  0.26057406  0.90662529  1  -0.015823  0.005243  -0.065783  -0.117945  0.003629  3.901729  0.004
C  C99  1  0.53845383  0.76057499  0.59337568  1  -0.015827  0.005243  -0.065838  -0.118107  0.003629  3.901851  0.004
C  C100  1  0.26357786  0.48737326  0.25846906  1  -0.46469  0.000399  -0.13274  -0.198419  0.000257  3.809925  0.0
C  C101  1  0.23642501  0.98737418  0.24152766  1  -0.465459  0.000399  -0.132697  -0.198314  0.000257  3.809641  0.0
C  C102  1  0.73642343  0.51262377  0.74152937  1  -0.465141  0.000399  -0.132761  -0.198441  0.000257  3.809826  0.0
C  C103  1  0.76357504  0.01262479  0.75847287  1  -0.465648  0.000399  -0.132602  -0.198214  0.000257  3.809803  0.0
C  C104  1  0.36194706  0.47186927  0.21928046  1  0.061096  0.000115  -0.138611  -0.206844  0.000139  3.825656  0.0
C  C105  1  0.13805582  0.97187120  0.28071682  1  0.061457  0.000115  -0.138676  -0.206946  0.000139  3.825474  0.0
C  C106  1  0.63805177  0.52812874  0.78071994  1  0.061122  0.000115  -0.13857  -0.206819  0.000139  3.825535  0.0
C  C107  1  0.86194301  0.02812777  0.71928414  1  0.061494  0.000115  -0.138768  -0.207058  0.000139  3.825627  0.0
N  N108  1  0.17707925  0.90000724  0.93609515  1  -1.256081  -0.000149  -0.38834  -0.365083  -0.000312  3.57858  0.0
N  N109  1  0.32291891  0.40000719  0.56390418  1  -1.256053  -0.000148  -0.38834  -0.365069  -0.000312  3.578652  0.0
N  N110  1  0.82291957  0.09999270  0.06390580  1  -1.256125  -0.000149  -0.388389  -0.365252  -0.000312  3.578723  0.0
N  N111  1  0.67707993  0.59999275  0.43609510  1  -1.256415  -0.000149  -0.388326  -0.365127  -0.000312  3.578596  0.0
N  N112  1  0.83707175  0.57707903  0.04771610  1  -1.21988  0.081588  -0.360127  -0.260085  0.054871  3.681268  0.07
N  N113  1  0.66292777  0.07708113  0.45228424  1  -1.219898  0.081589  -0.360087  -0.259969  0.054872  3.681175  0.07
N  N114  1  0.16292830  0.42292090  0.95228443  1  -1.219748  0.081587  -0.360121  -0.260042  0.054871  3.681184  0.07
N  N115  1  0.33707351  0.92291978  0.54771530  1  -1.219723  0.081587  -0.36011  -0.260028  0.054871  3.681114  0.07
O  O116  1  0.21948985  0.03361997  0.67541963  1  -1.111871  0.111784  -0.330113  -0.538642  0.07222  2.381299  0.099
O  O117  1  0.28050603  0.53362187  0.82458108  1  -1.111892  0.111784  -0.330159  -0.538724  0.07222  2.381249  0.099
O  O118  1  0.78050899  0.96637997  0.32457965  1  -1.111871  0.111782  -0.330106  -0.538619  0.072218  2.381311  0.099
O  O119  1  0.71949035  0.46637807  0.17541961  1  -1.111914  0.111783  -0.330126  -0.53868  0.072219  2.381237  0.099
O  O120  1  0.38352145  0.20967123  0.68771297  1  -1.188598  0.000962  -0.310697  -0.554863  -0.000418  2.207571  0.001
O  O121  1  0.11647681  0.70967319  0.81228578  1  -1.188629  0.000962  -0.310719  -0.554965  -0.000418  2.207512  0.001
O  O122  1  0.61647861  0.79032871  0.31228756  1  -1.188613  0.000962  -0.310684  -0.554842  -0.000418  2.20758  0.001
O  O123  1  0.88352203  0.29032675  0.18771350  1  -1.188643  0.000962  -0.310707  -0.554928  -0.000418  2.207521  0.001
O  O124  1  0.59049636  0.38923705  0.95574014  1  -1.106906  0.114175  -0.316184  -0.543497  0.07381  2.288097  0.102
O  O125  1  0.90950439  0.88923687  0.54425960  1  -1.106939  0.114176  -0.316176  -0.543483  0.07381  2.288073  0.102
O  O126  1  0.40950491  0.61076289  0.04426109  1  -1.106952  0.114176  -0.316194  -0.543522  0.073809  2.288094  0.102
O  O127  1  0.09049690  0.11076307  0.45573883  1  -1.106974  0.114177  -0.316197  -0.54354  0.073811  2.288077  0.102
O  O128  1  0.53080918  0.28909976  0.05431326  1  -1.096684  0.116658  -0.306952  -0.483288  0.075568  2.20346  0.103
O  O129  1  0.96919147  0.78909971  0.44568611  1  -1.096719  0.116656  -0.306987  -0.483324  0.075568  2.203452  0.103
O  O130  1  0.46919087  0.71090018  0.94568727  1  -1.097336  0.116656  -0.306925  -0.483252  0.075567  2.203439  0.103
O  O131  1  0.03080982  0.21089926  0.55431232  1  -1.097374  0.116656  -0.306902  -0.483226  0.075567  2.20345  0.103
O  O132  1  0.19231667  0.96387076  0.06137895  1  -1.136187  -0.000231  -0.282543  -0.467598  -0.000322  2.1378  0.0
O  O133  1  0.30768009  0.46387377  0.43861990  1  -1.135693  -0.000231  -0.282466  -0.467543  -0.000322  2.137914  0.0
O  O134  1  0.80768582  0.03612725  0.93862241  1  -1.13625  -0.000231  -0.282556  -0.46763  -0.000322  2.137917  0.0
O  O135  1  0.69232120  0.53612811  0.56137908  1  -1.136188  -0.000231  -0.282515  -0.467544  -0.000322  2.137863  0.0
