# generated using pymatgen
data_SmH17C15O11
_symmetry_space_group_name_H-M   'P 1'
_cell_length_a   7.47646737
_cell_length_b   14.06087715
_cell_length_c   19.91396284
_cell_angle_alpha   73.84205672
_cell_angle_beta   79.16997812
_cell_angle_gamma   74.57608452
_symmetry_Int_Tables_number   1
_chemical_formula_structural   SmH17C15O11
_chemical_formula_sum   'Sm4 H68 C60 O44'
_cell_volume   1923.63644812
_cell_formula_units_Z   4
loop_
 _symmetry_equiv_pos_site_id
 _symmetry_equiv_pos_as_xyz
  1  'x, y, z'
loop_
 _atom_site_type_symbol
 _atom_site_label
 _atom_site_symmetry_multiplicity
 _atom_site_fract_x
 _atom_site_fract_y
 _atom_site_fract_z
 _atom_site_occupancy
 _atom_site_pbe_bader_charge
 _atom_site_pbe_bader_spin_density
 _atom_site_pbe_cm5_charge
 _atom_site_pbe_ddec_charge
 _atom_site_pbe_ddec_spin_density
 _atom_site_pbe_ddec_sum_bond_order
 _atom_site_pbe_magmom
Sm  Sm0  1  0.13860153  0.76493825  0.38131457  1  2.234266  0  1.484012  2.138264  0  2.065488  0
Sm  Sm1  1  0.28492392  0.73510653  0.11861954  1  2.23507  0  1.484096  2.137859  0  2.066604  0
Sm  Sm2  1  0.86139770  0.23506272  0.61868551  1  2.234288  0  1.483995  2.138265  0  2.065445  0
Sm  Sm3  1  0.71507563  0.26489368  0.88138017  1  2.23508  0  1.484092  2.137809  0  2.066643  0
H  H4  1  0.24624565  0.90922490  0.45021500  1  0.648133  0  0.343751  0.430435  0  0.845585  0
H  H5  1  0.60571192  0.59089321  0.04980505  1  0.647551  0  0.34343  0.4307  0  0.845422  0
H  H6  1  0.75375453  0.09077379  0.54978498  1  0.648118  0  0.343757  0.430431  0  0.845589  0
H  H7  1  0.39428795  0.40910624  0.95019479  1  0.647429  0  0.343431  0.43068  0  0.845433  0
H  H8  1  0.77856994  0.80827781  0.31680197  1  0.628092  0  0.299077  0.376324  0  0.974176  0
H  H9  1  0.90369649  0.69174863  0.18319151  1  0.628686  0  0.297828  0.37481  0  0.975699  0
H  H10  1  0.22143024  0.19172087  0.68319700  1  0.6281  0  0.299054  0.376305  0  0.974205  0
H  H11  1  0.09630170  0.30825159  0.81680830  1  0.628697  0  0.297828  0.374824  0  0.975676  0
H  H12  1  0.86380054  0.69134257  0.31803242  1  0.634241  0  0.313278  0.420956  0  0.893197  0
H  H13  1  0.87322345  0.80868139  0.18195508  1  0.666754  0  0.311967  0.419341  0  0.895419  0
H  H14  1  0.13619828  0.30865612  0.68196815  1  0.634253  0  0.313279  0.420969  0  0.893186  0
H  H15  1  0.12677610  0.19131882  0.81804413  1  0.666773  0  0.31196  0.419341  0  0.89542  0
H  H16  1  0.52170338  0.80309914  0.32758698  1  0.649569  0  0.298839  0.381652  0  0.970343  0
H  H17  1  0.65230989  0.69695713  0.17241220  1  0.624936  0  0.297829  0.380349  0  0.971859  0
H  H18  1  0.47829585  0.19690183  0.67241310  1  0.649626  0  0.298827  0.381665  0  0.970329  0
H  H19  1  0.34768693  0.30304309  0.82758871  1  0.624927  0  0.297828  0.380337  0  0.971883  0
H  H20  1  0.55413772  0.68826602  0.32202152  1  0.659092  0  0.305328  0.410291  0  0.918429  0
H  H21  1  0.56433036  0.81176093  0.17800666  1  0.665149  0  0.30515  0.410188  0  0.918842  0
H  H22  1  0.44586015  0.31173496  0.67797866  1  0.659076  0  0.305316  0.410282  0  0.918434  0
H  H23  1  0.43566646  0.18823928  0.82199375  1  0.66515  0  0.305173  0.410228  0  0.91878  0
H  H24  1  0.01050879  0.02205881  0.08056235  1  0.109498  0  0.113169  0.120053  0  1.016949  0
H  H25  1  0.11287606  0.47821167  0.41938005  1  0.10861  0  0.112685  0.120004  0  1.017988  0
H  H26  1  0.98948971  0.97794064  0.91943709  1  0.109729  0  0.113167  0.120044  0  1.016936  0
H  H27  1  0.88712758  0.52178854  0.58061887  1  0.108597  0  0.112665  0.119984  0  1.017985  0
H  H28  1  0.01716509  0.08273179  0.27996903  1  0.069044  0  0.105817  0.100742  0  1.02986  0
H  H29  1  0.37983588  0.41728742  0.22007060  1  0.061963  0  0.106042  0.101508  0  1.029463  0
H  H30  1  0.98283782  0.91726689  0.72003025  1  0.069053  0  0.105823  0.100763  0  1.029857  0
H  H31  1  0.62016471  0.58271355  0.77992939  1  0.062425  0  0.106029  0.101516  0  1.029439  0
H  H32  1  0.85932411  0.40568082  0.17877727  1  0.065823  0  0.100632  0.095906  0  1.029247  0
H  H33  1  0.44368361  0.09440798  0.32129986  1  0.069202  0  0.100526  0.096535  0  1.029851  0
H  H34  1  0.14068016  0.59431788  0.82122441  1  0.065811  0  0.100626  0.095897  0  1.029218  0
H  H35  1  0.55631112  0.90559072  0.67870150  1  0.069168  0  0.100528  0.096559  0  1.029795  0
H  H36  1  0.71985831  0.31231256  0.12021438  1  0.082533  0  0.106591  0.112977  0  1.003543  0
H  H37  1  0.15256080  0.18778715  0.37996363  1  0.086084  0  0.106056  0.112847  0  1.002881  0
H  H38  1  0.28014323  0.68768613  0.87978499  1  0.082507  0  0.106563  0.112944  0  1.003611  0
H  H39  1  0.84744388  0.81221384  0.62003757  1  0.086068  0  0.10603  0.112825  0  1.002908  0
H  H40  1  0.72962898  0.15396293  0.34515815  1  0.054167  0  0.09999  0.096996  0  1.016852  0
H  H41  1  0.22871362  0.34612102  0.15492608  1  0.057671  0  0.099373  0.09673  0  1.017046  0
H  H42  1  0.27036544  0.84603651  0.65484007  1  0.054188  0  0.100001  0.09702  0  1.016845  0
H  H43  1  0.77129001  0.65387920  0.84507535  1  0.057676  0  0.099373  0.096727  0  1.017037  0
H  H44  1  0.66179089  0.44523488  0.38870995  1  0.08757  0  0.099948  0.096128  0  1.030217  0
H  H45  1  0.49558816  0.05484050  0.11138665  1  0.088199  0  0.099887  0.095856  0  1.03016  0
H  H46  1  0.33820761  0.55476457  0.61129049  1  0.087573  0  0.099965  0.096165  0  1.030238  0
H  H47  1  0.50440803  0.94516123  0.88861299  1  0.088192  0  0.099876  0.095864  0  1.030113  0
H  H48  1  0.63701087  0.26554188  0.42936667  1  0.098134  0  0.107837  0.107598  0  0.989073  0
H  H49  1  0.33179755  0.23455857  0.07070644  1  0.102716  0  0.108032  0.107657  0  0.987945  0
H  H50  1  0.36298627  0.73445757  0.57063187  1  0.098127  0  0.107828  0.107604  0  0.989013  0
H  H51  1  0.66820105  0.76544393  0.92929339  1  0.102689  0  0.108015  0.107632  0  0.988008  0
H  H52  1  0.74989266  0.92946589  0.35997239  1  0.631674  0  0.294864  0.388221  0  0.942141  0
H  H53  1  0.03928012  0.57049878  0.14004875  1  0.626386  0  0.295255  0.388972  0  0.941292  0
H  H54  1  0.25010783  0.07053204  0.64002721  1  0.631756  0  0.294891  0.388284  0  0.942055  0
H  H55  1  0.96071807  0.42950143  0.85995156  1  0.626393  0  0.295272  0.389002  0  0.941247  0
H  H56  1  0.93498146  0.96527161  0.34344872  1  0.596817  0  0.29475  0.367163  0  0.976257  0
H  H57  1  0.24366584  0.53482648  0.15655555  1  0.612518  0  0.294191  0.365606  0  0.978137  0
H  H58  1  0.06501672  0.03472860  0.65655059  1  0.596806  0  0.294729  0.367173  0  0.976255  0
H  H59  1  0.75633203  0.46517450  0.84344513  1  0.612517  0  0.294207  0.36562  0  0.978115  0
H  H60  1  0.45083948  0.57990290  0.43874063  1  0.630173  0  0.323988  0.409802  0  0.885507  0
H  H61  1  0.46964673  0.92002980  0.06126511  1  0.604047  0  0.323721  0.409425  0  0.886508  0
H  H62  1  0.54915880  0.42010037  0.56126007  1  0.630132  0  0.324007  0.409843  0  0.88542  0
H  H63  1  0.53036057  0.07996812  0.93873401  1  0.603725  0  0.323702  0.409381  0  0.886542  0
H  H64  1  0.25413552  0.57180991  0.47946620  1  0.632086  0  0.31888  0.40154  0  0.907268  0
H  H65  1  0.30556841  0.92823975  0.02051353  1  0.614768  0  0.317936  0.40047  0  0.907481  0
H  H66  1  0.74586507  0.42819107  0.52053379  1  0.632018  0  0.318871  0.401545  0  0.907254  0
H  H67  1  0.69443459  0.07176198  0.97948663  1  0.614735  0  0.317932  0.400437  0  0.907484  0
H  H68  1  0.36902888  0.92472199  0.37450791  1  0.663249  0  0.307816  0.400955  0  0.922079  0
H  H69  1  0.66839570  0.57534351  0.12550607  1  0.638182  0  0.307059  0.399049  0  0.924762  0
H  H70  1  0.63097036  0.07527898  0.62549167  1  0.663248  0  0.307822  0.400964  0  0.922061  0
H  H71  1  0.33160385  0.42465670  0.87449364  1  0.638177  0  0.307089  0.399119  0  0.924652  0
C  C72  1  0.12755129  0.93260205  0.20909714  1  1.60047  0  0.235598  0.658888  0  4.155962  0
C  C73  1  0.26919898  0.56751227  0.29081067  1  1.580166  0  0.235979  0.65826  0  4.155964  0
C  C74  1  0.87245098  0.06739817  0.79090388  1  1.600424  0  0.235623  0.658955  0  4.155896  0
C  C75  1  0.73080162  0.43248871  0.70919032  1  1.580146  0  0.236067  0.658441  0  4.15586  0
C  C76  1  0.02078209  0.03978245  0.18400319  1  -0.039338  0  -0.020094  -0.053046  0  3.9996  0
C  C77  1  0.24434727  0.46037931  0.31596941  1  -0.007099  0  -0.021123  -0.0511  0  3.998955  0
C  C78  1  0.97921537  0.96021624  0.81599748  1  -0.039296  0  -0.020126  -0.053091  0  3.999532  0
C  C79  1  0.75565532  0.53962015  0.68403175  1  -0.007106  0  -0.021081  -0.051099  0  3.999034  0
C  C80  1  0.97100010  0.07326239  0.11572692  1  0.061071  0  -0.073156  -0.094773  0  3.908109  0
C  C81  1  0.15965092  0.42695882  0.38425752  1  0.036222  0  -0.070252  -0.094024  0  3.908794  0
C  C82  1  0.02899799  0.92673479  0.88427451  1  0.060899  0  -0.073137  -0.094734  0  3.908014  0
C  C83  1  0.84035031  0.57304063  0.61574273  1  0.03629  0  -0.070273  -0.09405  0  3.908627  0
C  C84  1  0.85919297  0.20510479  0.20680513  1  0.045686  0  -0.007405  0.064189  0  4.015695  0
C  C85  1  0.27111353  0.29499522  0.29326558  1  -0.022343  0  -0.005723  0.063366  0  4.016479  0
C  C86  1  0.14081402  0.79489389  0.79319386  1  0.045279  0  -0.007412  0.064261  0  4.015454  0
C  C87  1  0.72889252  0.70500575  0.70673453  1  -0.022076  0  -0.00567  0.063418  0  4.016467  0
C  C88  1  0.96703211  0.10641040  0.22852322  1  -0.077197  0  -0.078316  -0.138243  0  3.944562  0
C  C89  1  0.30191654  0.39367488  0.27151022  1  -0.007392  0  -0.078827  -0.139569  0  3.945954  0
C  C90  1  0.03297111  0.89358753  0.77147719  1  -0.077162  0  -0.078284  -0.138263  0  3.944527  0
C  C91  1  0.69808710  0.60632533  0.72848970  1  -0.008124  0  -0.078891  -0.139681  0  3.945948  0
C  C92  1  0.77361674  0.54555981  0.25748316  1  1.524455  0  0.226415  0.598555  0  4.142814  0
C  C93  1  0.57655521  0.95451345  0.24253785  1  1.524283  0  0.226084  0.595647  0  4.144493  0
C  C94  1  0.22638417  0.45444041  0.74251896  1  1.524503  0  0.226446  0.598672  0  4.14271  0
C  C95  1  0.42344057  0.04548601  0.75746329  1  1.524261  0  0.226141  0.595698  0  4.144446  0
C  C96  1  0.80888202  0.37477964  0.23348477  1  -0.053514  0  -0.082379  -0.139289  0  3.943746  0
C  C97  1  0.41713318  0.12531425  0.26659091  1  -0.049102  0  -0.082338  -0.141009  0  3.946595  0
C  C98  1  0.19112057  0.62521982  0.76651639  1  -0.053532  0  -0.082383  -0.139271  0  3.943678  0
C  C99  1  0.58286637  0.87468597  0.73340881  1  -0.04907  0  -0.082356  -0.141081  0  3.946573  0
C  C100  1  0.80800096  0.23716342  0.13846396  1  -0.032029  0  -0.071714  -0.122445  0  3.899393  0
C  C101  1  0.18373283  0.26296123  0.36164413  1  -0.079045  0  -0.071777  -0.12139  0  3.898663  0
C  C102  1  0.19200258  0.76283375  0.86153607  1  -0.031859  0  -0.071693  -0.122465  0  3.899265  0
C  C103  1  0.81627185  0.73703975  0.63835607  1  -0.078873  0  -0.071763  -0.121413  0  3.898737  0
C  C104  1  0.81111163  0.20445618  0.02027034  1  1.528629  0  0.189871  0.578204  0  4.221144  0
C  C105  1  0.03593977  0.29568522  0.47981776  1  1.528503  0  0.191  0.580647  0  4.219948  0
C  C106  1  0.18888960  0.79554327  0.97972890  1  1.528621  0  0.189899  0.578183  0  4.221106  0
C  C107  1  0.96405715  0.70431804  0.52018153  1  1.52843  0  0.191024  0.580628  0  4.21995  0
C  C108  1  0.75966806  0.43724370  0.28098112  1  -0.036928  0  -0.024373  -0.055043  0  4.010242  0
C  C109  1  0.47782037  0.06285153  0.21909788  1  -0.060512  0  -0.023722  -0.052686  0  4.007957  0
C  C110  1  0.24033149  0.56275651  0.71901909  1  -0.036949  0  -0.024356  -0.055066  0  4.010179  0
C  C111  1  0.52217740  0.93714640  0.78090241  1  -0.060522  0  -0.023723  -0.052644  0  4.007972  0
C  C112  1  0.86550455  0.17181673  0.09297575  1  -0.093878  0  -0.012498  -0.017448  0  3.970957  0
C  C113  1  0.13015968  0.32837752  0.40708084  1  -0.016431  0  -0.015285  -0.020528  0  3.976746  0
C  C114  1  0.13449804  0.82818271  0.90702340  1  -0.094101  0  -0.012509  -0.017425  0  3.97093  0
C  C115  1  0.86984164  0.67162496  0.59291779  1  -0.016582  0  -0.015272  -0.020499  0  3.976652  0
C  C116  1  0.73891362  0.23346187  0.32722572  1  -0.092616  0  -0.0792  -0.108668  0  3.937278  0
C  C117  1  0.29962710  0.26663813  0.17284090  1  -0.045665  0  -0.079225  -0.107793  0  3.937326  0
C  C118  1  0.26108488  0.76653758  0.67277422  1  -0.092623  0  -0.079214  -0.108712  0  3.937336  0
C  C119  1  0.70037318  0.73336361  0.82715946  1  -0.045686  0  -0.079195  -0.107779  0  3.937284  0
C  C120  1  0.80125677  0.27221859  0.25608970  1  0.01906  0  -0.007861  0.064421  0  4.002364  0
C  C121  1  0.32962074  0.22788070  0.24398687  1  -0.010077  0  -0.007564  0.064616  0  4.002544  0
C  C122  1  0.19874614  0.72778010  0.74391008  1  0.019402  0  -0.007848  0.06441  0  4.002368  0
C  C123  1  0.67038258  0.77212027  0.75601293  1  -0.010077  0  -0.007562  0.064696  0  4.002437  0
C  C124  1  0.69839389  0.39698343  0.35169857  1  -0.027782  0  -0.07686  -0.078218  0  3.956143  0
C  C125  1  0.44694214  0.10311799  0.14839248  1  -0.068678  0  -0.078901  -0.07966  0  3.95656  0
C  C126  1  0.30160597  0.60301602  0.64830127  1  -0.027851  0  -0.076882  -0.078281  0  3.956259  0
C  C127  1  0.55305301  0.89688299  0.85160790  1  -0.068888  0  -0.078879  -0.079694  0  3.956535  0
C  C128  1  0.68612613  0.29570944  0.37442808  1  0.021181  0  -0.082219  -0.061093  0  3.997881  0
C  C129  1  0.35617255  0.20440344  0.12563920  1  0.030176  0  -0.080631  -0.060266  0  3.995969  0
C  C130  1  0.31387101  0.70429001  0.62557196  1  0.021248  0  -0.082208  -0.061058  0  3.997853  0
C  C131  1  0.64382155  0.79559678  0.87436190  1  0.030416  0  -0.080631  -0.060235  0  3.996091  0
O  O132  1  0.14450907  0.89983019  0.27445128  1  -1.212465  0  -0.392919  -0.681204  0  2.313003  0
O  O133  1  0.31868788  0.60017931  0.22542612  1  -1.218303  0  -0.392895  -0.681547  0  2.31396  0
O  O134  1  0.85549383  0.10016849  0.72554700  1  -1.212443  0  -0.392952  -0.681244  0  2.312831  0
O  O135  1  0.68130800  0.39982317  0.77457240  1  -1.218322  0  -0.392879  -0.681554  0  2.313981  0
O  O136  1  0.19298857  0.88076792  0.16344778  1  -1.210448  0  -0.409563  -0.675519  0  2.340402  0
O  O137  1  0.23736749  0.61937828  0.33641871  1  -1.207283  0  -0.410557  -0.675623  0  2.341721  0
O  O138  1  0.80700752  0.11923076  0.83655148  1  -1.210449  0  -0.40955  -0.675555  0  2.340539  0
O  O139  1  0.76263311  0.38062269  0.66358128  1  -1.207241  0  -0.410643  -0.675726  0  2.341546  0
O  O140  1  0.89708010  0.15092613  0.97610673  1  -1.183913  0  -0.393479  -0.652379  0  2.182585  0
O  O141  1  0.02435552  0.34914426  0.52400642  1  -1.184359  0  -0.393242  -0.652834  0  2.182327  0
O  O142  1  0.10291777  0.84907483  0.02389194  1  -1.183885  0  -0.393496  -0.652392  0  2.18254  0
O  O143  1  0.97564287  0.65086202  0.47599115  1  -1.184422  0  -0.393241  -0.652816  0  2.182281  0
O  O144  1  0.68073038  0.28303940  0.00299395  1  -1.188258  0  -0.389538  -0.639819  0  2.180386  0
O  O145  1  0.96699765  0.21706579  0.49709599  1  -1.181556  0  -0.390088  -0.640332  0  2.179038  0
O  O146  1  0.31927189  0.71696080  0.99700507  1  -1.188275  0  -0.389552  -0.639821  0  2.180405  0
O  O147  1  0.03300598  0.78293442  0.50290444  1  -1.181467  0  -0.390133  -0.640324  0  2.178989  0
O  O148  1  0.74923003  0.59688790  0.30266871  1  -1.200542  0  -0.307452  -0.553306  0  2.187976  0
O  O149  1  0.64856253  0.90320872  0.19732189  1  -1.20083  0  -0.307399  -0.551874  0  2.187934  0
O  O150  1  0.25076837  0.40310853  0.69733485  1  -1.200493  0  -0.307508  -0.55339  0  2.187935  0
O  O151  1  0.35143460  0.09679074  0.80267864  1  -1.200817  0  -0.307396  -0.551866  0  2.187956  0
O  O152  1  0.81025185  0.58404331  0.19008281  1  -1.22078  0  -0.313941  -0.599992  0  2.246302  0
O  O153  1  0.58430976  0.91603749  0.30992509  1  -1.219004  0  -0.314548  -0.600385  0  2.248386  0
O  O154  1  0.18974906  0.41595691  0.80991831  1  -1.220844  0  -0.313938  -0.600083  0  2.246375  0
O  O155  1  0.41568811  0.08396348  0.69007509  1  -1.219055  0  -0.314586  -0.600461  0  2.248334  0
O  O156  1  0.25074988  0.90865535  0.40122595  1  -1.282489  0  -0.610349  -0.80901  0  2.020104  0
O  O157  1  0.56074038  0.59140343  0.09881313  1  -1.257984  0  -0.609712  -0.807621  0  2.022947  0
O  O158  1  0.74924799  0.09134562  0.59877423  1  -1.282469  0  -0.610363  -0.809008  0  2.020096  0
O  O159  1  0.43925949  0.40859602  0.90118721  1  -1.257861  0  -0.609743  -0.807649  0  2.022892  0
O  O160  1  0.88751120  0.75134462  0.32803682  1  -1.25306  0  -0.66268  -0.869822  0  2.152912  0
O  O161  1  0.96687973  0.74871405  0.17185772  1  -1.285121  0  -0.660137  -0.866866  0  2.155065  0
O  O162  1  0.11249003  0.24865482  0.67196242  1  -1.253104  0  -0.662671  -0.869804  0  2.152944  0
O  O163  1  0.03311877  0.25128539  0.82814172  1  -1.285143  0  -0.660121  -0.866857  0  2.155051  0
O  O164  1  0.46660186  0.74264586  0.34204866  1  -1.303156  0  -0.670812  -0.884446  0  2.142266  0
O  O165  1  0.55111325  0.75737917  0.15800939  1  -1.285435  0  -0.669988  -0.882941  0  2.142508  0
O  O166  1  0.53339737  0.25735512  0.65795193  1  -1.30311  0  -0.670804  -0.884448  0  2.142214  0
O  O167  1  0.44888494  0.24262105  0.84199042  1  -1.285422  0  -0.669986  -0.882929  0  2.142488  0
O  O168  1  0.34984841  0.61141526  0.46982360  1  -1.238907  0  -0.587124  -0.791088  0  2.005935  0
O  O169  1  0.43118992  0.88856010  0.03018257  1  -1.19503  0  -0.586039  -0.789504  0  2.006254  0
O  O170  1  0.65014915  0.38858648  0.53017695  1  -1.238823  0  -0.587148  -0.79115  0  2.005865  0
O  O171  1  0.56881131  0.11143935  0.96981767  1  -1.194684  0  -0.586016  -0.789418  0  2.006247  0
O  O172  1  0.85955688  0.92717218  0.38191475  1  -1.227926  0  -0.615261  -0.794463  0  1.977982  0
O  O173  1  0.16858938  0.57279818  0.11807450  1  -1.236056  0  -0.615398  -0.793823  0  1.978305  0
O  O174  1  0.14044162  0.07282727  0.61808419  1  -1.22801  0  -0.615269  -0.794551  0  1.977853  0
O  O175  1  0.83141048  0.42720127  0.88192534  1  -1.236055  0  -0.615421  -0.79384  0  1.978294  0
