# generated using pymatgen
data_AlH15(C3O)6
_symmetry_space_group_name_H-M   'P 1'
_cell_length_a   4.00333195
_cell_length_b   17.18382142
_cell_length_c   17.18382799
_cell_angle_alpha   119.99987237
_cell_angle_beta   89.99966569
_cell_angle_gamma   90.00014815
_symmetry_Int_Tables_number   1
_chemical_formula_structural   AlH15(C3O)6
_chemical_formula_sum   'Al2 H30 C36 O12'
_cell_volume   1023.74657012
_cell_formula_units_Z   2
loop_
 _symmetry_equiv_pos_site_id
 _symmetry_equiv_pos_as_xyz
  1  'x, y, z'
loop_
 _atom_site_type_symbol
 _atom_site_label
 _atom_site_symmetry_multiplicity
 _atom_site_fract_x
 _atom_site_fract_y
 _atom_site_fract_z
 _atom_site_occupancy
 _atom_site_pbe_bader_charge
 _atom_site_pbe_bader_spin_density
 _atom_site_pbe_cm5_charge
 _atom_site_pbe_ddec_charge
 _atom_site_pbe_ddec_spin_density
 _atom_site_pbe_ddec_sum_bond_order
 _atom_site_pbe_magmom
Al  Al0  1  0.97025351  0.50000030  0.50000021  1  2.503129  0  0.427197  1.595332  0  2.579086  0
Al  Al1  1  0.02971588  0.16666539  0.83333329  1  2.503339  0  0.427815  1.592561  0  2.582026  0
H  H2  1  0.27070611  0.11188978  0.52773339  1  0.041204  0  0.092209  0.097253  0  1.011171  0
H  H3  1  0.71575288  0.10959655  0.52806861  1  0.056185  0  0.09199  0.096903  0  1.008854  0
H  H4  1  0.72999754  0.19538297  0.44503133  1  0.052842  0  0.091857  0.097022  0  1.011308  0
H  H5  1  0.28495828  0.19554280  0.44264535  1  0.036636  0  0.091987  0.097057  0  1.008743  0
H  H6  1  0.27074131  0.91583902  0.88810843  1  0.038  0  0.092212  0.097248  0  1.011245  0
H  H7  1  0.71578558  0.91846534  0.89039915  1  0.075551  0  0.091983  0.096895  0  1.008931  0
H  H8  1  0.73001880  0.74964188  0.80461036  1  0.051256  0  0.091875  0.097025  0  1.011481  0
H  H9  1  0.28498200  0.74710105  0.80445599  1  0.038616  0  0.091921  0.09692  0  1.008822  0
H  H10  1  0.27072870  0.47226960  0.08415836  1  0.037339  0  0.092228  0.097244  0  1.011156  0
H  H11  1  0.71577801  0.47193407  0.08152911  1  0.051753  0  0.091977  0.096917  0  1.008838  0
H  H12  1  0.73002204  0.55497245  0.25035381  1  0.051862  0  0.091887  0.097044  0  1.011428  0
H  H13  1  0.28498024  0.55735997  0.25289685  1  0.038565  0  0.091924  0.09696  0  1.008745  0
H  H14  1  0.27260616  0.55923699  0.80826935  1  0.041749  0  0.088223  0.118083  0  1.019696  0
H  H15  1  0.52952070  0.56078616  0.72516091  1  0.075554  0  0.096598  0.14236  0  1.01635  0
H  H16  1  0.71111327  0.55575770  0.81679721  1  0.015369  0  0.086762  0.114261  0  1.024793  0
H  H17  1  0.72694616  0.47427970  0.89251043  1  0.027569  0  0.088226  0.118273  0  1.019382  0
H  H18  1  0.46999470  0.39105817  0.89380407  1  0.091637  0  0.096533  0.142439  0  1.016367  0
H  H19  1  0.28851896  0.48284965  0.88904097  1  0.038079  0  0.086774  0.11441  0  1.024789  0
H  H20  1  0.27256936  0.74903598  0.44076543  1  0.032191  0  0.088184  0.118079  0  1.019749  0
H  H21  1  0.52947989  0.66437602  0.43921052  1  0.073969  0  0.096629  0.142395  0  1.016432  0
H  H22  1  0.71107662  0.76104302  0.44423884  1  0.017057  0  0.086766  0.11429  0  1.02488  0
H  H23  1  0.72694331  0.91823437  0.52572267  1  0.030528  0  0.08824  0.118286  0  1.019356  0
H  H24  1  0.46998847  0.00274749  0.60894458  1  0.094779  0  0.09653  0.142428  0  1.016542  0
H  H25  1  0.28851106  0.90619546  0.51715073  1  0.045119  0  0.086768  0.114381  0  1.024769  0
H  H26  1  0.27258095  0.19173252  0.25096643  1  0.023924  0  0.088215  0.118104  0  1.019684  0
H  H27  1  0.52949388  0.27483759  0.33562558  1  0.078629  0  0.096623  0.142395  0  1.016372  0
H  H28  1  0.71108828  0.18320043  0.23895796  1  0.016788  0  0.086763  0.114279  0  1.02489  0
H  H29  1  0.72695157  0.10749106  0.08176622  1  0.027225  0  0.088238  0.118279  0  1.019387  0
H  H30  1  0.46999924  0.10620042  0.99725422  1  0.086958  0  0.096523  0.142422  0  1.016404  0
H  H31  1  0.28852165  0.11096056  0.09380697  1  0.039057  0  0.086768  0.114382  0  1.0248  0
C  C32  1  0.47585165  0.43207458  0.36237880  1  1.571971  0  0.281573  0.677495  0  4.052508  0
C  C33  1  0.47584160  0.43030537  0.56792638  1  1.574423  0  0.281612  0.677539  0  4.052429  0
C  C34  1  0.47584778  0.63762148  0.56969494  1  1.576407  0  0.281615  0.677501  0  4.052704  0
C  C35  1  0.52385304  0.23418682  0.76309385  1  1.582159  0  0.281631  0.677439  0  4.050796  0
C  C36  1  0.52386679  0.02890482  0.76581008  1  1.525535  0  0.281646  0.677439  0  4.050535  0
C  C37  1  0.52386546  0.23690592  0.97109569  1  1.586127  0  0.281596  0.677455  0  4.050562  0
C  C38  1  0.50493968  0.28738297  0.71667854  1  0.038384  0  -0.007517  -0.133856  0  3.95526  0
C  C39  1  0.49506216  0.38381826  0.62101848  1  0.075237  0  -0.008135  -0.133112  0  3.956597  0
C  C40  1  0.49772909  0.24359463  0.62331027  1  0.021225  0  -0.011231  0.049294  0  3.929134  0
C  C41  1  0.49557582  0.43033793  0.71610610  1  -0.018804  0  0.000229  0.095496  0  3.886788  0
C  C42  1  0.50251595  0.29044315  0.57684703  1  -0.152494  0  -0.010936  0.048256  0  3.931337  0
C  C43  1  0.50418029  0.38249462  0.76351989  1  -0.015099  0  3.2e-05  0.096302  0  3.886146  0
C  C44  1  0.49674293  0.15218525  0.53820399  1  -0.025123  0  -0.151295  -0.190729  0  3.864953  0
C  C45  1  0.50392542  0.20561076  0.48524524  1  -0.066533  0  -0.150745  -0.190305  0  3.865602  0
C  C46  1  0.50494098  0.92929273  0.71261416  1  -0.04791  0  -0.007449  -0.133758  0  3.955155  0
C  C47  1  0.49506179  0.73719658  0.61617902  1  0.003299  0  -0.008155  -0.133134  0  3.956746  0
C  C48  1  0.49775613  0.87971094  0.75640326  1  0.032455  0  -0.011267  0.049205  0  3.929083  0
C  C49  1  0.49555973  0.78576979  0.56966243  1  -0.070599  0  0.00025  0.095535  0  3.886797  0
C  C50  1  0.50253219  0.78639937  0.70955304  1  -0.084134  0  -0.010955  0.048329  0  3.931343  0
C  C51  1  0.50417002  0.88102294  0.61750405  1  0.204954  0  1.5e-05  0.096254  0  3.88636  0
C  C52  1  0.49677086  0.88601433  0.84781364  1  -0.098083  0  -0.151256  -0.190692  0  3.865064  0
C  C53  1  0.50395491  0.77962904  0.79438497  1  -0.009457  0  -0.150715  -0.190196  0  3.865758  0
C  C54  1  0.50495516  0.28332524  0.07070553  1  -0.054145  0  -0.007323  -0.133653  0  3.955137  0
C  C55  1  0.49506657  0.37898383  0.26280185  1  -0.072957  0  -0.008106  -0.13309  0  3.956691  0
C  C56  1  0.49775609  0.37669393  0.12028730  1  0.188659  0  -0.011302  0.0492  0  3.929125  0
C  C57  1  0.49557370  0.28389686  0.21423538  1  0.080254  0  0.000232  0.095415  0  3.886934  0
C  C58  1  0.50252623  0.42315582  0.21359959  1  -0.161384  0  -0.010969  0.048255  0  3.931226  0
C  C59  1  0.50418493  0.23648261  0.11897621  1  -0.008485  0  3e-06  0.096314  0  3.886118  0
C  C60  1  0.49676499  0.46179867  0.11398330  1  -0.019358  0  -0.151287  -0.190727  0  3.864923  0
C  C61  1  0.50394799  0.51475863  0.22036820  1  -0.061563  0  -0.150707  -0.19022  0  3.865569  0
C  C62  1  0.50253996  0.53159195  0.76864294  1  -0.03089  0  -0.238779  -0.400236  0  3.966117  0
C  C63  1  0.49704528  0.43467466  0.86477454  1  -0.112057  0  -0.239072  -0.401096  0  3.965964  0
C  C64  1  0.50251241  0.73705071  0.46840473  1  -0.047383  0  -0.238776  -0.400316  0  3.966294  0
C  C65  1  0.49703440  0.93010356  0.56532755  1  -0.126155  0  -0.239064  -0.401051  0  3.966002  0
C  C66  1  0.50252699  0.23135595  0.26294823  1  -0.046211  0  -0.2388  -0.400304  0  3.96633  0
C  C67  1  0.49704839  0.13522897  0.06990038  1  -0.107635  0  -0.239075  -0.401061  0  3.96597  0
O  O68  1  0.70136197  0.59651925  0.58800815  1  -1.266744  0  -0.240414  -0.605768  0  2.342888  0
O  O69  1  0.70136614  0.49148779  0.40348067  1  -1.264555  0  -0.240396  -0.605722  0  2.343032  0
O  O70  1  0.70136187  0.41199075  0.50850858  1  -1.262447  0  -0.240405  -0.605801  0  2.342832  0
O  O71  1  0.23189394  0.59985894  0.51612314  1  -1.252805  0  -0.23053  -0.592739  0  2.372253  0
O  O72  1  0.23188743  0.48387677  0.58373659  1  -1.251931  0  -0.230537  -0.592745  0  2.372151  0
O  O73  1  0.23188931  0.41626293  0.40014145  1  -1.250929  0  -0.230523  -0.592761  0  2.372075  0
O  O74  1  0.76788235  0.18334528  0.93336115  1  -1.248612  0  -0.230451  -0.592258  0  2.374216  0
O  O75  1  0.76787670  0.25001359  0.81665292  1  -1.24973  0  -0.230424  -0.592237  0  2.374229  0
O  O76  1  0.76788644  0.06663780  0.74998354  1  -1.250676  0  -0.230441  -0.592215  0  2.3742  0
O  O77  1  0.29827150  0.25509919  0.92989033  1  -1.252969  0  -0.240622  -0.605014  0  2.340138  0
O  O78  1  0.29827921  0.07011132  0.82521097  1  -1.254637  0  -0.2406  -0.604948  0  2.340131  0
O  O79  1  0.29827082  0.17478686  0.74489790  1  -1.251052  0  -0.240597  -0.604908  0  2.340207  0
