# generated using pymatgen
data_CoH14C18(N2O)4
_symmetry_space_group_name_H-M   'P 1'
_cell_length_a   8.02717364
_cell_length_b   7.97060809
_cell_length_c   9.26157189
_cell_angle_alpha   81.86342830
_cell_angle_beta   69.25906726
_cell_angle_gamma   64.80818618
_symmetry_Int_Tables_number   1
_chemical_formula_structural   CoH14C18(N2O)4
_chemical_formula_sum   'Co1 H14 C18 N8 O4'
_cell_volume   501.42769447
_cell_formula_units_Z   1
loop_
 _symmetry_equiv_pos_site_id
 _symmetry_equiv_pos_as_xyz
  1  'x, y, z'
loop_
 _atom_site_type_symbol
 _atom_site_label
 _atom_site_symmetry_multiplicity
 _atom_site_fract_x
 _atom_site_fract_y
 _atom_site_fract_z
 _atom_site_occupancy
 _atom_site_hse06_10hf_ddec_charge
 _atom_site_hse06_10hf_ddec_spin_density
 _atom_site_hse06_10hf_ddec_sum_bond_order
 _atom_site_hse06_10hf_magmom
 _atom_site_hse06_ddec_charge
 _atom_site_hse06_ddec_spin_density
 _atom_site_hse06_ddec_sum_bond_order
 _atom_site_hse06_magmom
 _atom_site_pbe_cm5_charge
 _atom_site_pbe_ddec_charge
 _atom_site_pbe_ddec_spin_density
 _atom_site_pbe_ddec_sum_bond_order
 _atom_site_pbe_magmom
Co  Co0  1  0.99999954  0.99999917  0.99999851  1  0.934956  -1.011376  3.182404  -0.924  0.982653  -1.018982  3.112208  -0.945  0.808807  0.904844  -0.996593  3.228082  -0.896
H  H1  1  0.17381979  0.93914858  0.21603373  1  0.378088  9.2e-05  0.959994  0.0  0.386811  0.00022  0.947556  0.0  0.290134  0.372055  -4.9e-05  0.968496  0.0
H  H2  1  0.82617541  0.06085748  0.78396304  1  0.378213  9.2e-05  0.959824  0.0  0.386936  0.00022  0.947387  0.0  0.290194  0.37218  -4.9e-05  0.968328  0.0
H  H3  1  0.94644135  0.02066524  0.30713825  1  0.381767  -3e-05  0.954838  0.0  0.391453  0.000118  0.940871  0.0  0.289622  0.375047  -0.000189  0.964403  0.0
H  H4  1  0.05355567  0.97933665  0.69285852  1  0.381812  -3e-05  0.954786  0.0  0.391497  0.000118  0.940819  0.0  0.28963  0.37509  -0.000189  0.964354  0.0
H  H5  1  0.87685887  0.65701218  0.30429238  1  0.073655  7e-05  0.989248  0.0  0.073273  5.7e-05  0.989788  0.0  0.104361  0.073849  8.1e-05  0.988975  0.0
H  H6  1  0.12313922  0.34298421  0.69570803  1  0.073631  7e-05  0.989239  0.0  0.073248  5.7e-05  0.989779  0.0  0.104353  0.073825  8.1e-05  0.988965  0.0
H  H7  1  0.91152662  0.47535683  0.18740231  1  0.062876  0.000112  1.017587  0.0  0.061915  9.8e-05  1.01889  0.0  0.100647  0.063429  0.000124  1.01683  0.0
H  H8  1  0.08847400  0.52463680  0.81259767  1  0.06292  0.000112  1.017524  0.0  0.061956  9.8e-05  1.01883  0.0  0.100672  0.063472  0.000124  1.016766  0.0
H  H9  1  0.59246102  0.57507468  0.40087893  1  0.136322  9e-06  1.01959  0.0  0.136232  5e-06  1.02182  0.0  0.095091  0.136422  1.3e-05  1.017952  0.0
H  H10  1  0.40753970  0.42492182  0.59912605  1  0.136304  9e-06  1.019585  0.0  0.136214  5e-06  1.021816  0.0  0.095121  0.136405  1.3e-05  1.017947  0.0
H  H11  1  0.74347514  0.33807064  0.42172766  1  0.138618  -3.9e-05  1.01358  0.0  0.140505  -2.5e-05  1.01295  0.0  0.092515  0.137103  -5.4e-05  1.014207  0.0
H  H12  1  0.25652233  0.66192722  0.57827814  1  0.138648  -3.9e-05  1.013564  0.0  0.140536  -2.5e-05  1.012932  0.0  0.092521  0.137131  -5.4e-05  1.014191  0.0
H  H13  1  0.71369723  0.51377544  0.54014631  1  0.1235  1.4e-05  1.026486  0.0  0.124766  8e-06  1.0266  0.0  0.087019  0.122555  1.9e-05  1.026462  0.0
H  H14  1  0.28630302  0.48622519  0.45985610  1  0.123434  1.4e-05  1.026485  0.0  0.124699  8e-06  1.026599  0.0  0.086978  0.12249  1.9e-05  1.026461  0.0
C  C15  1  0.57930874  0.08861961  0.18744875  1  0.334753  0.011976  4.047373  0.007  0.35467  0.011055  4.062641  0.007  0.214743  0.32082  0.012366  4.037819  0.008
C  C16  1  0.42069754  0.91138244  0.81254945  1  0.334702  0.011981  4.047186  0.007  0.354622  0.011066  4.062457  0.007  0.21467  0.320764  0.012373  4.037632  0.008
C  C17  1  0.31193889  0.07322744  0.41004517  1  0.31722  0.000212  4.094193  0.0  0.332511  0.000233  4.109725  0.0  0.195976  0.307005  0.000167  4.084013  0.0
C  C18  1  0.68805931  0.92677179  0.58995806  1  0.317207  0.000216  4.093987  0.0  0.332499  0.000236  4.109519  0.0  0.195933  0.306992  0.000168  4.08381  0.0
C  C19  1  0.17872605  0.59050978  0.05347460  1  0.314057  0.012382  4.089006  0.008  0.334586  0.011365  4.102392  0.007  0.208607  0.299595  0.012836  4.080807  0.008
C  C20  1  0.82127565  0.40949361  0.94652376  1  0.314135  0.012392  4.088842  0.008  0.334664  0.011366  4.102225  0.007  0.208618  0.299671  0.01284  4.080646  0.008
C  C21  1  0.43979559  0.30740023  0.94737979  1  0.289223  0.00067  4.105019  0.0  0.301729  0.000508  4.124382  0.0  0.183257  0.281029  0.000796  4.092046  0.0
C  C22  1  0.56019837  0.69260878  0.05262886  1  0.289608  0.000673  4.10527  0.0  0.302109  0.000505  4.124624  0.0  0.183507  0.281412  0.000797  4.092305  0.0
C  C23  1  0.38047287  0.15909113  0.27142622  1  -0.227915  0.000488  4.206457  -0.001  -0.244699  0.000311  4.221046  -0.001  -0.033224  -0.216794  0.000583  4.196996  -0.001
C  C24  1  0.61952667  0.84090806  0.72857337  1  -0.227924  0.000493  4.206563  -0.001  -0.244701  0.000319  4.221131  -0.001  -0.033246  -0.216802  0.000584  4.1971  -0.001
C  C25  1  0.28360063  0.40328623  0.07746616  1  -0.245982  0.000893  4.228  0.0  -0.263196  0.000631  4.243332  -0.001  -0.041857  -0.234398  0.001118  4.217878  0.0
C  C26  1  0.71640421  0.59671306  0.92253501  1  -0.246285  0.000903  4.227989  0.0  -0.263497  0.00064  4.243319  -0.001  -0.041936  -0.234697  0.001118  4.217869  0.0
C  C27  1  0.24357856  0.32055711  0.22567900  1  0.29321  0.003856  4.074745  0.002  0.321144  0.003057  4.079926  0.002  0.13743  0.274383  0.004616  4.070894  0.003
C  C28  1  0.75642242  0.67944491  0.77432192  1  0.293298  0.003856  4.074611  0.002  0.321234  0.003052  4.079787  0.002  0.137426  0.27447  0.004619  4.07076  0.003
C  C29  1  0.89420471  0.51300536  0.30295572  1  0.096647  0.000181  3.842051  0.0  0.10707  0.000156  3.84625  0.0  -0.062849  0.089643  0.000201  3.839065  0.0
C  C30  1  0.10579603  0.48699109  0.69704602  1  0.096725  0.00018  3.841985  0.0  0.107155  0.000156  3.846175  0.0  -0.062823  0.089722  0.000201  3.838999  0.0
C  C31  1  0.72706386  0.48153429  0.42426717  1  -0.403395  -1.5e-05  3.941774  0.0  -0.406115  -3e-06  3.950197  0.0  -0.249303  -0.40125  -2.7e-05  3.935968  0.0
C  C32  1  0.27293819  0.51846221  0.57573631  1  -0.403379  -1.5e-05  3.941703  0.0  -0.4061  -4e-06  3.950124  0.0  -0.249331  -0.401234  -2.7e-05  3.935897  0.0
N  N33  1  0.74452573  0.03402235  0.11382873  1  -0.38951  0.002352  3.407439  0.0  -0.410678  0.00204  3.410741  0.0  -0.348681  -0.376611  0.001799  3.40566  0.0
N  N34  1  0.25546477  0.96598229  0.88617077  1  -0.389523  0.002351  3.407204  0.0  -0.410694  0.002031  3.410507  0.0  -0.348636  -0.376623  0.001797  3.405424  0.0
N  N35  1  0.24905672  0.00649466  0.52560377  1  -0.408058  -5.6e-05  2.885893  0.0  -0.420688  -2.4e-05  2.894379  0.0  -0.305162  -0.400128  -9.4e-05  2.880639  0.0
N  N36  1  0.75094608  0.99350313  0.47439283  1  -0.408039  -6.2e-05  2.885662  0.0  -0.420672  -2.9e-05  2.894152  0.0  -0.305109  -0.400111  -9.3e-05  2.88041  0.0
N  N37  1  0.09350584  0.74628005  0.02944895  1  -0.390279  0.003236  3.443418  0.001  -0.410045  0.002658  3.444994  0.0  -0.352889  -0.378395  0.002951  3.442848  0.001
N  N38  1  0.90649612  0.25371357  0.97054954  1  -0.390342  0.003228  3.44322  0.001  -0.410107  0.002656  3.444797  0.0  -0.352907  -0.378457  0.002951  3.442652  0.001
N  N39  1  0.56628128  0.23425063  0.83499835  1  -0.403173  0.000868  2.893891  0.0  -0.414657  0.00071  2.905513  0.0  -0.306578  -0.395992  0.001042  2.886391  0.001
N  N40  1  0.43372563  0.76574994  0.16499338  1  -0.403349  0.000858  2.894554  0.0  -0.41483  0.00071  2.906169  0.0  -0.306751  -0.396171  0.001041  2.887058  0.001
O  O41  1  0.04770415  0.03920621  0.21534408  1  -0.765367  -0.032412  2.092855  -0.057  -0.793085  -0.024327  2.066026  -0.044  -0.559458  -0.742372  -0.041004  2.109937  -0.069
O  O42  1  0.95229226  0.96079706  0.78465161  1  -0.765557  -0.032413  2.092763  -0.057  -0.79328  -0.024328  2.065941  -0.044  -0.559536  -0.742561  -0.041006  2.10985  -0.069
O  O43  1  0.07301554  0.39343507  0.33741495  1  -0.173691  0.000823  2.568043  0.001  -0.194788  0.000638  2.569942  0.001  -0.143769  -0.159372  0.000997  2.566416  0.001
O  O44  1  0.92698592  0.60656278  0.66258638  1  -0.173759  0.000826  2.568022  0.001  -0.194858  0.000635  2.569919  0.001  -0.143785  -0.159439  0.000997  2.566392  0.001
