# generated using pymatgen
data_NaH12C7N5O6
_symmetry_space_group_name_H-M   'P 1'
_cell_length_a   7.36724213
_cell_length_b   9.59437399
_cell_length_c   17.48789455
_cell_angle_alpha   90.00085509
_cell_angle_beta   99.52145538
_cell_angle_gamma   89.99999585
_symmetry_Int_Tables_number   1
_chemical_formula_structural   NaH12C7N5O6
_chemical_formula_sum   'Na4 H48 C28 N20 O24'
_cell_volume   1219.08660662
_cell_formula_units_Z   4
loop_
 _symmetry_equiv_pos_site_id
 _symmetry_equiv_pos_as_xyz
  1  'x, y, z'
loop_
 _atom_site_type_symbol
 _atom_site_label
 _atom_site_symmetry_multiplicity
 _atom_site_fract_x
 _atom_site_fract_y
 _atom_site_fract_z
 _atom_site_occupancy
 _atom_site_hle17_bader_spin_density
 _atom_site_hle17_ddec_charge
 _atom_site_hle17_ddec_spin_density
 _atom_site_hle17_ddec_sum_bond_order
 _atom_site_hle17_magmom
 _atom_site_hse06_10hf_bader_spin_density
 _atom_site_hse06_10hf_ddec_charge
 _atom_site_hse06_10hf_ddec_spin_density
 _atom_site_hse06_10hf_ddec_sum_bond_order
 _atom_site_hse06_10hf_magmom
 _atom_site_hse06_bader_spin_density
 _atom_site_hse06_ddec_charge
 _atom_site_hse06_ddec_spin_density
 _atom_site_hse06_ddec_sum_bond_order
 _atom_site_hse06_magmom
 _atom_site_pbe_bader_spin_density
 _atom_site_pbe_cm5_charge
 _atom_site_pbe_ddec_charge
 _atom_site_pbe_ddec_spin_density
 _atom_site_pbe_ddec_sum_bond_order
 _atom_site_pbe_magmom
Na  Na0  1  0.33334109  0.14199483  0.47444797  1  0  0.89359  0  0.376231  0  0  0.848577  0  0.526693  0  0  0.858426  0  0.504734  0  0  0.64718  0.841172  0  0.542598  0
Na  Na1  1  0.16666131  0.64199375  0.52555376  1  0  0.893592  0  0.376245  0  0  0.848578  0  0.526697  0  0  0.858436  0  0.504744  0  0  0.64719  0.841177  0  0.542606  0
Na  Na2  1  0.66665582  0.85800680  0.52555274  1  0  0.893593  0  0.376239  0  0  0.848553  0  0.526744  0  0  0.858409  0  0.504785  0  0  0.64719  0.841146  0  0.54265  0
Na  Na3  1  0.83333845  0.35801205  0.47444883  1  0  0.893582  0  0.376241  0  0  0.848556  0  0.526734  0  0  0.858415  0  0.504777  0  0  0.647177  0.841149  0  0.54264  0
H  H4  1  0.26021065  0.10995111  0.01594990  1  0  0.306368  0  0.937554  0  0  0.277456  0  1.010982  0  0  0.28792  0  1.003318  0  0  0.299289  0.268825  0  1.017841  0
H  H5  1  0.23979289  0.60994991  0.98404934  1  0  0.306372  0  0.93756  0  0  0.277493  0  1.010914  0  0  0.287928  0  1.003318  0  0  0.299303  0.268866  0  1.017769  0
H  H6  1  0.73979166  0.89004427  0.98404941  1  0  0.306436  0  0.937384  0  0  0.277489  0  1.010842  0  0  0.287931  0  1.003232  0  0  0.299277  0.268858  0  1.0177  0
H  H7  1  0.76020798  0.39004859  0.01594874  1  0  0.306404  0  0.937498  0  0  0.277477  0  1.010952  0  0  0.287947  0  1.003271  0  0  0.29933  0.268843  0  1.017822  0
H  H8  1  0.32436261  0.80591787  0.90574334  1  0  0.345871  0  0.915641  0  0  0.326491  0  0.979312  0  0  0.335514  0  0.971011  0  0  0.295455  0.319526  0  0.985917  0
H  H9  1  0.17563997  0.30592118  0.09425404  1  0  0.345799  0  0.915725  0  0  0.326378  0  0.97946  0  0  0.335402  0  0.971158  0  0  0.2954  0.319415  0  0.986063  0
H  H10  1  0.67564108  0.19408064  0.09425606  1  0  0.345881  0  0.915648  0  0  0.326473  0  0.979348  0  0  0.335496  0  0.97105  0  0  0.295429  0.319509  0  0.985951  0
H  H11  1  0.82436352  0.69407733  0.90574191  1  0  0.345893  0  0.915612  0  0  0.326546  0  0.979259  0  0  0.335568  0  0.970961  0  0  0.295486  0.319588  0  0.985852  0
H  H12  1  0.35297622  0.99009984  0.91145525  1  0  0.329161  0  0.947146  0  0  0.301046  0  1.027536  0  0  0.310234  0  1.01928  0  0  0.289909  0.293996  0  1.033801  0
H  H13  1  0.14702278  0.49010196  0.08854287  1  0  0.329148  0  0.947176  0  0  0.301029  0  1.02756  0  0  0.310219  0  1.019303  0  0  0.28992  0.293982  0  1.033832  0
H  H14  1  0.64703026  0.00989866  0.08854489  1  0  0.329176  0  0.947165  0  0  0.301052  0  1.027546  0  0  0.31024  0  1.019292  0  0  0.289919  0.294005  0  1.033809  0
H  H15  1  0.85297527  0.50989446  0.91145390  1  0  0.329152  0  0.947146  0  0  0.3011  0  1.027457  0  0  0.310289  0  1.019202  0  0  0.289953  0.294052  0  1.033726  0
H  H16  1  0.86318471  0.89403396  0.27873193  1  0  0.111313  0  0.927042  0  0  0.120709  0  0.995818  0  0  0.123101  0  0.9939  0  0  0.120141  0.118965  0  0.99734  0
H  H17  1  0.63681079  0.39403233  0.72126543  1  0  0.111276  0  0.927102  0  0  0.120698  0  0.995843  0  0  0.123094  0  0.99393  0  0  0.120148  0.118953  0  0.997368  0
H  H18  1  0.13681767  0.10596038  0.72126853  1  0  0.111321  0  0.927061  0  0  0.120754  0  0.995808  0  0  0.12313  0  0.993888  0  0  0.120156  0.119008  0  0.99733  0
H  H19  1  0.36318442  0.60597243  0.27872945  1  0  0.111233  0  0.927079  0  0  0.120682  0  0.995792  0  0  0.123079  0  0.993879  0  0  0.120152  0.118939  0  0.997319  0
H  H20  1  0.96414536  0.03888746  0.23792487  1  0  0.12438  0  0.918944  0  0  0.136149  0  0.97931  0  0  0.139724  0  0.975806  0  0  0.127121  0.133623  0  0.981865  0
H  H21  1  0.53585355  0.53888444  0.76207662  1  0  0.124357  0  0.918996  0  0  0.136123  0  0.979358  0  0  0.1397  0  0.975859  0  0  0.127087  0.133596  0  0.981915  0
H  H22  1  0.03585561  0.96110479  0.76207493  1  0  0.124434  0  0.918941  0  0  0.136246  0  0.979262  0  0  0.13981  0  0.975751  0  0  0.127151  0.133714  0  0.981817  0
H  H23  1  0.46415280  0.46112137  0.23792122  1  0  0.124339  0  0.91893  0  0  0.136141  0  0.97928  0  0  0.139724  0  0.975776  0  0  0.127086  0.133615  0  0.981834  0
H  H24  1  0.97239315  0.64463414  0.23941436  1  0  0.097426  0  0.949458  0  0  0.105373  0  1.014  0  0  0.109137  0  1.009086  0  0  0.130355  0.102645  0  1.017435  0
H  H25  1  0.52760151  0.14463045  0.76057974  1  0  0.097418  0  0.949352  0  0  0.105291  0  1.014003  0  0  0.109061  0  1.009074  0  0  0.130348  0.102572  0  1.017436  0
H  H26  1  0.02760353  0.35535915  0.76058233  1  0  0.097389  0  0.94954  0  0  0.105275  0  1.014149  0  0  0.109037  0  1.009235  0  0  0.130324  0.102551  0  1.017579  0
H  H27  1  0.47241447  0.85537744  0.23941867  1  0  0.097319  0  0.94942  0  0  0.105267  0  1.013991  0  0  0.10903  0  1.00908  0  0  0.130323  0.102545  0  1.017422  0
H  H28  1  0.29333904  0.27444212  0.31132661  1  0  0.425973  0  0.823225  0  0  0.410512  0  0.874636  0  0  0.418049  0  0.864488  0  0  0.325877  0.405126  0  0.88093  0
H  H29  1  0.20665667  0.77444545  0.68867181  1  0  0.425991  0  0.823228  0  0  0.410535  0  0.874634  0  0  0.418072  0  0.864462  0  0  0.325891  0.405147  0  0.880927  0
H  H30  1  0.70665387  0.72556472  0.68867614  1  0  0.425884  0  0.823319  0  0  0.41042  0  0.874727  0  0  0.417957  0  0.864605  0  0  0.325817  0.405033  0  0.881018  0
H  H31  1  0.79333535  0.22555514  0.31133947  1  0  0.425707  0  0.823504  0  0  0.410325  0  0.874784  0  0  0.417846  0  0.86473  0  0  0.325821  0.404941  0  0.881081  0
H  H32  1  0.52796101  0.37671895  0.55935604  1  0  0.419152  0  0.87643  0  0  0.394258  0  0.930247  0  0  0.403077  0  0.917315  0  0  0.300494  0.388014  0  0.93941  0
H  H33  1  0.97204167  0.87672183  0.44064790  1  0  0.419172  0  0.876393  0  0  0.39424  0  0.93027  0  0  0.403062  0  0.917334  0  0  0.300448  0.388002  0  0.939424  0
H  H34  1  0.47203871  0.62328060  0.44064597  1  0  0.419131  0  0.876439  0  0  0.39422  0  0.93029  0  0  0.403042  0  0.917354  0  0  0.300456  0.387978  0  0.939451  0
H  H35  1  0.02796215  0.12328293  0.55935380  1  0  0.419139  0  0.876427  0  0  0.394232  0  0.930271  0  0  0.403054  0  0.917336  0  0  0.300465  0.387993  0  0.939427  0
H  H36  1  0.51769606  0.03114118  0.61803228  1  0  0.40348  0  0.909519  0  0  0.372812  0  0.973858  0  0  0.383231  0  0.958344  0  0  0.285417  0.365451  0  0.984814  0
H  H37  1  0.98230410  0.53114456  0.38196750  1  0  0.403407  0  0.909611  0  0  0.372771  0  0.973892  0  0  0.383189  0  0.958379  0  0  0.285399  0.365409  0  0.98485  0
H  H38  1  0.48229796  0.96885420  0.38196596  1  0  0.403445  0  0.909548  0  0  0.372822  0  0.973806  0  0  0.383239  0  0.958293  0  0  0.285404  0.365458  0  0.984765  0
H  H39  1  0.01769425  0.46886229  0.61803443  1  0  0.403455  0  0.909543  0  0  0.372806  0  0.973838  0  0  0.383224  0  0.958325  0  0  0.285396  0.365446  0  0.984794  0
H  H40  1  0.35227124  0.92066337  0.60685877  1  0  0.423694  0  0.877988  0  0  0.396858  0  0.934893  0  0  0.407218  0  0.919468  0  0  0.288112  0.389493  0  0.945861  0
H  H41  1  0.14772902  0.42066225  0.39314056  1  0  0.423702  0  0.877953  0  0  0.396862  0  0.934867  0  0  0.407222  0  0.91944  0  0  0.288114  0.389498  0  0.945835  0
H  H42  1  0.64772855  0.07933618  0.39314440  1  0  0.42368  0  0.877975  0  0  0.39684  0  0.934894  0  0  0.4072  0  0.919469  0  0  0.288112  0.389477  0  0.945859  0
H  H43  1  0.85226930  0.57934251  0.60686080  1  0  0.423783  0  0.877873  0  0  0.396944  0  0.934773  0  0  0.407305  0  0.919347  0  0  0.288152  0.389579  0  0.945746  0
H  H44  1  0.62912966  0.23575752  0.58473456  1  0  0.414519  0  0.891644  0  0  0.38523  0  0.953883  0  0  0.395112  0  0.939275  0  0  0.292732  0.378232  0  0.964236  0
H  H45  1  0.87087244  0.73575659  0.41526589  1  0  0.414483  0  0.891666  0  0  0.385187  0  0.953925  0  0  0.39507  0  0.939315  0  0  0.292694  0.37819  0  0.964278  0
H  H46  1  0.37086999  0.76424516  0.41526631  1  0  0.414481  0  0.891698  0  0  0.385181  0  0.953962  0  0  0.395064  0  0.939353  0  0  0.292701  0.378183  0  0.964316  0
H  H47  1  0.12912728  0.26424713  0.58473613  1  0  0.414465  0  0.891722  0  0  0.385161  0  0.953986  0  0  0.395044  0  0.939377  0  0  0.292667  0.378162  0  0.96434  0
H  H48  1  0.42470152  0.37210536  0.36997911  1  0  0.419555  0  0.888274  0  0  0.38621  0  0.955916  0  0  0.397164  0  0.940138  0  0  0.291267  0.378481  0  0.967021  0
H  H49  1  0.07529573  0.87210189  0.63001793  1  0  0.419557  0  0.888275  0  0  0.386233  0  0.955878  0  0  0.397186  0  0.940101  0  0  0.291275  0.378505  0  0.966984  0
H  H50  1  0.57528997  0.62790461  0.63002299  1  0  0.419537  0  0.888304  0  0  0.386136  0  0.956043  0  0  0.397092  0  0.940262  0  0  0.29119  0.378409  0  0.967148  0
H  H51  1  0.92470425  0.12789558  0.36998868  1  0  0.419577  0  0.888261  0  0  0.386225  0  0.955905  0  0  0.397181  0  0.940122  0  0  0.291203  0.378496  0  0.967012  0
C  C52  1  0.24499141  0.89184246  0.00081476  1  0  0.673054  0  3.798734  0  0  0.609781  0  4.094196  0  0  0.639241  0  4.09854  0  0  0.350461  0.589384  0  4.09121  0
C  C53  1  0.25501010  0.39184417  0.99918384  1  0  0.672926  0  3.798786  0  0  0.609599  0  4.094311  0  0  0.639053  0  4.098656  0  0  0.350415  0.589207  0  4.091327  0
C  C54  1  0.75500809  0.10815396  0.99918324  1  0  0.67312  0  3.798626  0  0  0.609809  0  4.0941  0  0  0.639271  0  4.098446  0  0  0.350477  0.589405  0  4.091126  0
C  C55  1  0.74499212  0.60815850  0.00081375  1  0  0.673024  0  3.798613  0  0  0.609825  0  4.093997  0  0  0.639283  0  4.098345  0  0  0.35043  0.589418  0  4.091033  0
C  C56  1  0.13571556  0.77013386  0.09453812  1  0  0.35507  0  3.910731  0  0  0.320069  0  4.193643  0  0  0.337104  0  4.208967  0  0  0.206253  0.308783  0  4.183339  0
C  C57  1  0.36428550  0.27012679  0.90545830  1  0  0.355224  0  3.910459  0  0  0.320155  0  4.193517  0  0  0.337183  0  4.208842  0  0  0.206336  0.308879  0  4.183222  0
C  C58  1  0.86427843  0.22986048  0.90545955  1  0  0.355136  0  3.91069  0  0  0.320129  0  4.19361  0  0  0.337151  0  4.208959  0  0  0.206271  0.308861  0  4.183285  0
C  C59  1  0.63572353  0.72987172  0.09453856  1  0  0.355355  0  3.910751  0  0  0.320181  0  4.193828  0  0  0.337233  0  4.209133  0  0  0.206386  0.308898  0  4.183532  0
C  C60  1  0.99050463  0.93322857  0.26134804  1  0  -0.172237  0  3.663261  0  0  -0.234841  0  3.918896  0  0  -0.23547  0  3.925105  0  0  -0.05281  -0.234681  0  3.915124  0
C  C61  1  0.50949532  0.43322741  0.73865334  1  0  -0.17226  0  3.663295  0  0  -0.234838  0  3.918933  0  0  -0.235491  0  3.925175  0  0  -0.052823  -0.234682  0  3.915164  0
C  C62  1  0.00949362  0.06676577  0.73865217  1  0  -0.172329  0  3.663387  0  0  -0.235003  0  3.919097  0  0  -0.235563  0  3.925224  0  0  -0.052837  -0.234837  0  3.915313  0
C  C63  1  0.49050703  0.56677840  0.26134655  1  0  -0.172172  0  3.662977  0  0  -0.234806  0  3.918622  0  0  -0.235467  0  3.92487  0  0  -0.052831  -0.23465  0  3.91486  0
C  C64  1  0.13938545  0.94043168  0.33343781  1  0  0.692329  0  3.858963  0  0  0.638972  0  4.169552  0  0  0.671102  0  4.162069  0  0  0.223534  0.617268  0  4.173939  0
C  C65  1  0.36060523  0.44043483  0.66656111  1  0  0.692483  0  3.858671  0  0  0.639002  0  4.169407  0  0  0.671138  0  4.161923  0  0  0.223496  0.617311  0  4.173778  0
C  C66  1  0.86061270  0.05956162  0.66656068  1  0  0.692223  0  3.858984  0  0  0.638811  0  4.169699  0  0  0.670923  0  4.162217  0  0  0.223425  0.617115  0  4.174069  0
C  C67  1  0.63938617  0.55957306  0.33343926  1  0  0.692465  0  3.85856  0  0  0.639024  0  4.169271  0  0  0.67116  0  4.16179  0  0  0.223566  0.617329  0  4.173643  0
C  C68  1  0.10913672  0.89118974  0.13590452  1  0  -0.157156  0  3.760484  0  0  -0.167661  0  4.024977  0  0  -0.179687  0  4.048686  0  0  0.060907  -0.160705  0  4.010172  0
C  C69  1  0.39086610  0.39118884  0.86409300  1  0  -0.157107  0  3.760414  0  0  -0.167621  0  4.024971  0  0  -0.179632  0  4.048658  0  0  0.060914  -0.160694  0  4.01021  0
C  C70  1  0.89086134  0.10880460  0.86409225  1  0  -0.157309  0  3.760598  0  0  -0.167785  0  4.025065  0  0  -0.179809  0  4.048783  0  0  0.060884  -0.160836  0  4.010256  0
C  C71  1  0.60914159  0.60881800  0.13590434  1  0  -0.157181  0  3.760446  0  0  -0.16764  0  4.024977  0  0  -0.179663  0  4.048667  0  0  0.060925  -0.160711  0  4.010213  0
C  C72  1  0.02866585  0.70506898  0.19626395  1  0  0.185295  0  3.662345  0  0  0.118002  0  3.954561  0  0  0.134921  0  3.961345  0  0  0.145289  0.107326  0  3.94906  0
C  C73  1  0.47132816  0.20506437  0.80373208  1  0  0.185522  0  3.66207  0  0  0.118266  0  3.9543  0  0  0.135182  0  3.961092  0  0  0.145367  0.107578  0  3.948797  0
C  C74  1  0.97133089  0.29492745  0.80373389  1  0  0.185464  0  3.66245  0  0  0.118227  0  3.95465  0  0  0.135149  0  3.961439  0  0  0.145357  0.10755  0  3.949143  0
C  C75  1  0.52868094  0.79493935  0.19626592  1  0  0.185481  0  3.662197  0  0  0.118161  0  3.954442  0  0  0.135073  0  3.961228  0  0  0.145332  0.107485  0  3.948932  0
C  C76  1  0.16236835  0.02394574  0.11113065  1  0  0.543345  0  3.904673  0  0  0.495048  0  4.198107  0  0  0.524953  0  4.198238  0  0  0.219899  0.475401  0  4.197327  0
C  C77  1  0.33763230  0.52394406  0.88887000  1  0  0.543388  0  3.904693  0  0  0.495107  0  4.198125  0  0  0.525008  0  4.198246  0  0  0.219929  0.475466  0  4.197355  0
C  C78  1  0.83762990  0.97604964  0.88886957  1  0  0.543487  0  3.904383  0  0  0.49518  0  4.197826  0  0  0.525082  0  4.197954  0  0  0.219941  0.475521  0  4.19706  0
C  C79  1  0.66236992  0.47605757  0.11112759  1  0  0.543375  0  3.904799  0  0  0.495074  0  4.198235  0  0  0.524973  0  4.19837  0  0  0.219932  0.475432  0  4.197465  0
N  N80  1  0.22496880  0.01412445  0.04022392  1  0  -0.51077  0  3.254657  0  0  -0.442402  0  3.497686  0  0  -0.467346  0  3.502839  0  0  -0.379851  -0.425001  0  3.494858  0
N  N81  1  0.27503168  0.51412572  0.95977435  1  0  -0.510764  0  3.254666  0  0  -0.442404  0  3.497707  0  0  -0.46733  0  3.502874  0  0  -0.379875  -0.425007  0  3.49488  0
N  N82  1  0.77503069  0.98587198  0.95977408  1  0  -0.510815  0  3.254489  0  0  -0.442434  0  3.497567  0  0  -0.467369  0  3.502729  0  0  -0.379851  -0.425033  0  3.494747  0
N  N83  1  0.72497047  0.48587383  0.04022209  1  0  -0.510818  0  3.25481  0  0  -0.442473  0  3.497836  0  0  -0.467413  0  3.50297  0  0  -0.379895  -0.425066  0  3.495018  0
N  N84  1  0.08691680  0.65475427  0.13350549  1  0  -0.433913  0  3.01902  0  0  -0.391652  0  3.296773  0  0  -0.407682  0  3.306106  0  0  -0.333818  -0.380198  0  3.289729  0
N  N85  1  0.41308115  0.15475448  0.86648979  1  0  -0.434105  0  3.019178  0  0  -0.391795  0  3.296922  0  0  -0.40782  0  3.306247  0  0  -0.333916  -0.380339  0  3.289878  0
N  N86  1  0.91307847  0.34524320  0.86649054  1  0  -0.433965  0  3.01906  0  0  -0.391709  0  3.296755  0  0  -0.407726  0  3.306068  0  0  -0.333831  -0.380268  0  3.289716  0
N  N87  1  0.58692785  0.84524820  0.13350649  1  0  -0.434094  0  3.019253  0  0  -0.391748  0  3.297008  0  0  -0.407779  0  3.306329  0  0  -0.333931  -0.380294  0  3.289954  0
N  N88  1  0.20166901  0.76706240  0.02720318  1  0  -0.544543  0  3.056518  0  0  -0.49398  0  3.322649  0  0  -0.516858  0  3.331837  0  0  -0.345113  -0.477522  0  3.316532  0
N  N89  1  0.29833204  0.26706027  0.97279322  1  0  -0.54451  0  3.056308  0  0  -0.493935  0  3.322549  0  0  -0.516843  0  3.331777  0  0  -0.3451  -0.47749  0  3.316448  0
N  N90  1  0.79832501  0.23293611  0.97279507  1  0  -0.544574  0  3.056405  0  0  -0.49403  0  3.322645  0  0  -0.516891  0  3.331746  0  0  -0.345156  -0.477569  0  3.316524  0
N  N91  1  0.70167149  0.73293928  0.02720331  1  0  -0.544794  0  3.056649  0  0  -0.494121  0  3.322777  0  0  -0.516981  0  3.331889  0  0  -0.345174  -0.477657  0  3.316666  0
N  N92  1  0.03848361  0.84657488  0.20045046  1  0  -0.048904  0  3.601056  0  0  0.033763  0  3.82708  0  0  0.020571  0  3.854076  0  0  -0.245757  0.042697  0  3.808897  0
N  N93  1  0.46151357  0.34657224  0.79954636  1  0  -0.048988  0  3.601149  0  0  0.033687  0  3.827153  0  0  0.0205  0  3.854153  0  0  -0.245736  0.042632  0  3.808973  0
N  N94  1  0.96151592  0.15341738  0.79954812  1  0  -0.048957  0  3.601353  0  0  0.03371  0  3.827385  0  0  0.020496  0  3.854369  0  0  -0.245811  0.04265  0  3.809184  0
N  N95  1  0.53849422  0.65343461  0.20045271  1  0  -0.048911  0  3.600802  0  0  0.033744  0  3.826843  0  0  0.020562  0  3.853841  0  0  -0.245688  0.042683  0  3.808668  0
N  N96  1  0.31078093  0.89846937  0.93414890  1  0  -0.690273  0  3.074474  0  0  -0.652012  0  3.321954  0  0  -0.674091  0  3.31474  0  0  -0.572067  -0.635901  0  3.327341  0
N  N97  1  0.18921779  0.39846878  0.06584844  1  0  -0.690158  0  3.074651  0  0  -0.6518  0  3.322107  0  0  -0.673874  0  3.314899  0  0  -0.572003  -0.63569  0  3.327483  0
N  N98  1  0.68922545  0.10152810  0.06584951  1  0  -0.690323  0  3.074547  0  0  -0.651981  0  3.321975  0  0  -0.674061  0  3.314761  0  0  -0.57202  -0.635869  0  3.327359  0
N  N99  1  0.81078302  0.60152868  0.93414850  1  0  -0.690168  0  3.074285  0  0  -0.652058  0  3.321762  0  0  -0.674139  0  3.314547  0  0  -0.572083  -0.635947  0  3.327147  0
O  O100  1  0.09934966  0.01444393  0.38925050  1  0  -0.703  0  1.976517  0  0  -0.639476  0  2.197754  0  0  -0.664331  0  2.186177  0  0  -0.36368  -0.622055  0  2.205188  0
O  O101  1  0.40064279  0.51444411  0.61075130  1  0  -0.702993  0  1.976452  0  0  -0.639439  0  2.197785  0  0  -0.664295  0  2.186208  0  0  -0.363637  -0.622021  0  2.205209  0
O  O102  1  0.90064855  0.98554832  0.61074914  1  0  -0.702893  0  1.976534  0  0  -0.639371  0  2.1978  0  0  -0.664229  0  2.186234  0  0  -0.363633  -0.621959  0  2.205236  0
O  O103  1  0.59934173  0.48556274  0.38924866  1  0  -0.702987  0  1.976372  0  0  -0.639437  0  2.197643  0  0  -0.664292  0  2.186063  0  0  -0.363662  -0.622021  0  2.205076  0
O  O104  1  0.28769962  0.87334029  0.33465203  1  0  -0.642599  0  1.994289  0  0  -0.579678  0  2.21327  0  0  -0.60518  0  2.203531  0  0  -0.304866  -0.562009  0  2.219536  0
O  O105  1  0.21228980  0.37334758  0.66535198  1  0  -0.642805  0  1.994283  0  0  -0.579735  0  2.213212  0  0  -0.605231  0  2.203456  0  0  -0.304872  -0.562065  0  2.219469  0
O  O106  1  0.71230007  0.12665300  0.66534941  1  0  -0.642584  0  1.994253  0  0  -0.579606  0  2.213257  0  0  -0.605107  0  2.203516  0  0  -0.30483  -0.561941  0  2.219516  0
O  O107  1  0.78770327  0.62666031  0.33465365  1  0  -0.642688  0  1.99425  0  0  -0.579726  0  2.213238  0  0  -0.605227  0  2.203496  0  0  -0.304894  -0.562054  0  2.219493  0
O  O108  1  0.15840358  0.13849042  0.14586597  1  0  -0.587986  0  1.876384  0  0  -0.545355  0  2.083522  0  0  -0.564955  0  2.074309  0  0  -0.331446  -0.531575  0  2.089361  0
O  O109  1  0.34160565  0.63848467  0.85413557  1  0  -0.588047  0  1.87645  0  0  -0.545424  0  2.083573  0  0  -0.565027  0  2.07436  0  0  -0.331475  -0.531637  0  2.089406  0
O  O110  1  0.84160014  0.86150600  0.85413400  1  0  -0.588064  0  1.876171  0  0  -0.545444  0  2.083307  0  0  -0.565048  0  2.074096  0  0  -0.331475  -0.531658  0  2.089147  0
O  O111  1  0.65839244  0.36151488  0.14586178  1  0  -0.588055  0  1.876407  0  0  -0.545419  0  2.083534  0  0  -0.565021  0  2.074323  0  0  -0.331502  -0.531632  0  2.089373  0
O  O112  1  0.57673882  0.29175326  0.53867510  1  0  -0.892322  0  1.761451  0  0  -0.8463  0  1.917008  0  0  -0.862312  0  1.886526  0  0  -0.675321  -0.834956  0  1.938416  0
O  O113  1  0.92326778  0.79175148  0.46132952  1  0  -0.892298  0  1.761348  0  0  -0.846236  0  1.916931  0  0  -0.86225  0  1.886457  0  0  -0.67524  -0.834898  0  1.938334  0
O  O114  1  0.42326100  0.70825046  0.46132864  1  0  -0.892273  0  1.761459  0  0  -0.846231  0  1.917007  0  0  -0.862245  0  1.886534  0  0  -0.675256  -0.834887  0  1.938413  0
O  O115  1  0.07673751  0.20825328  0.53867398  1  0  -0.89223  0  1.761492  0  0  -0.846202  0  1.917071  0  0  -0.862216  0  1.886594  0  0  -0.675224  -0.834864  0  1.938476  0
O  O116  1  0.42848112  0.98139755  0.57906413  1  0  -0.927726  0  1.785965  0  0  -0.883387  0  1.9544  0  0  -0.899408  0  1.920719  0  0  -0.695025  -0.871969  0  1.978063  0
O  O117  1  0.07151670  0.48139926  0.42093785  1  0  -0.927663  0  1.786014  0  0  -0.883364  0  1.954473  0  0  -0.899387  0  1.920799  0  0  -0.694998  -0.871943  0  1.978138  0
O  O118  1  0.57151316  0.01859888  0.42093871  1  0  -0.92767  0  1.785971  0  0  -0.883385  0  1.954432  0  0  -0.899404  0  1.920754  0  0  -0.695006  -0.871966  0  1.978095  0
O  O119  1  0.92848171  0.51860758  0.57906523  1  0  -0.927762  0  1.785902  0  0  -0.883462  0  1.954392  0  0  -0.899487  0  1.920714  0  0  -0.695018  -0.872041  0  1.97806  0
O  O120  1  0.31421779  0.30876295  0.36443912  1  0  -0.852147  0  1.803242  0  0  -0.800572  0  1.962994  0  0  -0.81848  0  1.934268  0  0  -0.599948  -0.787839  0  1.982125  0
O  O121  1  0.18578221  0.80876380  0.63556099  1  0  -0.852163  0  1.803231  0  0  -0.800604  0  1.962975  0  0  -0.818515  0  1.93423  0  0  -0.599974  -0.787872  0  1.982105  0
O  O122  1  0.68577371  0.69124598  0.63556298  1  0  -0.852022  0  1.803329  0  0  -0.800409  0  1.963112  0  0  -0.81832  0  1.934417  0  0  -0.599816  -0.787679  0  1.982236  0
O  O123  1  0.81422084  0.19123470  0.36445153  1  0  -0.851887  0  1.803456  0  0  -0.800359  0  1.963232  0  0  -0.818257  0  1.934586  0  0  -0.599855  -0.787631  0  1.982364  0
