# generated using pymatgen
data_AgH7C13N6O
_symmetry_space_group_name_H-M   'P 1'
_cell_length_a   4.11022759
_cell_length_b   11.31630503
_cell_length_c   14.74879799
_cell_angle_alpha   87.81249491
_cell_angle_beta   87.84891487
_cell_angle_gamma   87.54033219
_symmetry_Int_Tables_number   1
_chemical_formula_structural   AgH7C13N6O
_chemical_formula_sum   'Ag2 H14 C26 N12 O2'
_cell_volume   684.43044069
_cell_formula_units_Z   2
loop_
 _symmetry_equiv_pos_site_id
 _symmetry_equiv_pos_as_xyz
  1  'x, y, z'
loop_
 _atom_site_type_symbol
 _atom_site_label
 _atom_site_symmetry_multiplicity
 _atom_site_fract_x
 _atom_site_fract_y
 _atom_site_fract_z
 _atom_site_occupancy
 _atom_site_hle17_bader_spin_density
 _atom_site_hle17_ddec_charge
 _atom_site_hle17_ddec_spin_density
 _atom_site_hle17_ddec_sum_bond_order
 _atom_site_hle17_magmom
 _atom_site_hse06_10hf_bader_spin_density
 _atom_site_hse06_10hf_ddec_charge
 _atom_site_hse06_10hf_ddec_spin_density
 _atom_site_hse06_10hf_ddec_sum_bond_order
 _atom_site_hse06_10hf_magmom
 _atom_site_hse06_bader_spin_density
 _atom_site_hse06_ddec_charge
 _atom_site_hse06_ddec_spin_density
 _atom_site_hse06_ddec_sum_bond_order
 _atom_site_hse06_magmom
 _atom_site_pbe_bader_spin_density
 _atom_site_pbe_cm5_charge
 _atom_site_pbe_ddec_charge
 _atom_site_pbe_ddec_spin_density
 _atom_site_pbe_ddec_sum_bond_order
 _atom_site_pbe_magmom
Ag  Ag0  1  0.28571571  0.26216380  0.35916183  1  0  0.681583  0  1.556478  0  0  0.57641  0  2.045444  0  0  0.590467  0  1.996948  0  0  0.543453  0.568395  0  2.078134  0
Ag  Ag1  1  0.71424578  0.73783509  0.64083519  1  0  0.681558  0  1.55638  0  0  0.576374  0  2.045348  0  0  0.590433  0  1.996853  0  0  0.543451  0.568356  0  2.078033  0
H  H2  1  0.59442044  0.15229463  0.16636821  1  0  0.031438  0  0.974893  0  0  0.041457  0  1.04657  0  0  0.042015  0  1.043369  0  0  0.113768  0.041001  0  1.048797  0
H  H3  1  0.40558440  0.84770596  0.83363723  1  0  0.031497  0  0.97488  0  0  0.041538  0  1.04653  0  0  0.042098  0  1.043331  0  0  0.113815  0.041081  0  1.048765  0
H  H4  1  0.85764396  0.23674462  0.96014207  1  0  0.093696  0  0.957245  0  0  0.109665  0  1.028567  0  0  0.109835  0  1.029489  0  0  0.094175  0.109536  0  1.027924  0
H  H5  1  0.14235620  0.76325333  0.03986552  1  0  0.093665  0  0.957211  0  0  0.109652  0  1.028542  0  0  0.109826  0  1.029459  0  0  0.094151  0.109527  0  1.027894  0
H  H6  1  0.80450476  0.11027347  0.03463118  1  0  0.106797  0  0.967108  0  0  0.1241  0  1.035795  0  0  0.12473  0  1.035604  0  0  0.104545  0.123601  0  1.035958  0
H  H7  1  0.19548991  0.88973069  0.96537694  1  0  0.106837  0  0.96715  0  0  0.12414  0  1.035819  0  0  0.124771  0  1.035628  0  0  0.104539  0.123626  0  1.035997  0
H  H8  1  0.20154985  0.16377017  0.01202965  1  0  0.09724  0  0.954102  0  0  0.114992  0  1.022986  0  0  0.114842  0  1.024164  0  0  0.098544  0.115073  0  1.022168  0
H  H9  1  0.79844061  0.83622780  0.98797666  1  0  0.097286  0  0.954144  0  0  0.115021  0  1.023037  0  0  0.11487  0  1.024217  0  0  0.098573  0.115102  0  1.022216  0
H  H10  1  0.27725157  0.37338150  0.05120746  1  0  0.101338  0  0.948201  0  0  0.121318  0  1.012765  0  0  0.12167  0  1.012871  0  0  0.103727  0.120992  0  1.01282  0
H  H11  1  0.72275102  0.62661820  0.94879531  1  0  0.101305  0  0.948214  0  0  0.121283  0  1.012788  0  0  0.121638  0  1.012892  0  0  0.10371  0.120956  0  1.012844  0
H  H12  1  0.09781430  0.41082878  0.15926120  1  0  0.108943  0  0.956829  0  0  0.123763  0  1.027603  0  0  0.124738  0  1.027422  0  0  0.102512  0.123016  0  1.027779  0
H  H13  1  0.90219265  0.58917622  0.84074137  1  0  0.108879  0  0.956733  0  0  0.123703  0  1.027526  0  0  0.124675  0  1.027349  0  0  0.102485  0.122949  0  1.027705  0
H  H14  1  0.88599096  0.44764029  0.05819635  1  0  0.098726  0  0.959256  0  0  0.119438  0  1.024752  0  0  0.119078  0  1.025575  0  0  0.102569  0.119666  0  1.024222  0
H  H15  1  0.11401396  0.55236116  0.94180432  1  0  0.098723  0  0.959346  0  0  0.119408  0  1.024877  0  0  0.119046  0  1.025706  0  0  0.102577  0.119639  0  1.02434  0
C  C16  1  0.70383638  0.23906650  0.17037419  1  0  0.379941  0  3.830971  0  0  0.307096  0  4.112742  0  0  0.335  0  4.115052  0  0  0.161697  0.288422  0  4.110323  0
C  C17  1  0.29617050  0.76093850  0.82963042  1  0  0.37997  0  3.831278  0  0  0.307109  0  4.113019  0  0  0.33501  0  4.115334  0  0  0.161752  0.288432  0  4.110606  0
C  C18  1  0.94304947  0.19009275  0.02206572  1  0  -0.184524  0  3.668868  0  0  -0.286635  0  3.916888  0  0  -0.283259  0  3.928993  0  0  -0.14044  -0.288626  0  3.908374  0
C  C19  1  0.05694833  0.80990608  0.97793712  1  0  -0.184589  0  3.66907  0  0  -0.286694  0  3.917063  0  0  -0.283318  0  3.92917  0  0  -0.140434  -0.288676  0  3.908565  0
C  C20  1  0.04884328  0.38148707  0.09155798  1  0  -0.176505  0  3.647397  0  0  -0.279586  0  3.894198  0  0  -0.275354  0  3.904427  0  0  -0.143094  -0.282171  0  3.887  0
C  C21  1  0.95115905  0.61851529  0.90844472  1  0  -0.176323  0  3.647295  0  0  -0.279391  0  3.894091  0  0  -0.275161  0  3.904322  0  0  -0.143054  -0.281974  0  3.8869  0
C  C22  1  0.97703291  0.86843150  0.31891233  1  0  -0.056365  0  3.873864  0  0  -0.052825  0  4.120969  0  0  -0.057173  0  4.14351  0  0  -0.003822  -0.049875  0  4.105742  0
C  C23  1  0.02297509  0.13156550  0.68108235  1  0  -0.056337  0  3.873929  0  0  -0.052761  0  4.121076  0  0  -0.057096  0  4.143622  0  0  -0.003877  -0.049815  0  4.10585  0
C  C24  1  0.79707805  0.83316922  0.24464742  1  0  -0.046527  0  3.882925  0  0  -0.043597  0  4.132003  0  0  -0.046709  0  4.154337  0  0  -0.000843  -0.041495  0  4.116938  0
C  C25  1  0.20293268  0.16682511  0.75534597  1  0  -0.046403  0  3.882769  0  0  -0.043583  0  4.13199  0  0  -0.046716  0  4.154344  0  0  -0.000812  -0.041484  0  4.116924  0
C  C26  1  0.79450099  0.70773656  0.24711572  1  0  -0.037344  0  3.872589  0  0  -0.037289  0  4.123115  0  0  -0.038765  0  4.143656  0  0  0.003367  -0.036276  0  4.109271  0
C  C27  1  0.20550961  0.29225866  0.75287899  1  0  -0.037392  0  3.872661  0  0  -0.037274  0  4.12316  0  0  -0.038747  0  4.143708  0  0  0.003437  -0.036254  0  4.109305  0
C  C28  1  0.97200493  0.66412205  0.32322563  1  0  -0.04975  0  3.864134  0  0  -0.045226  0  4.109464  0  0  -0.048568  0  4.130498  0  0  0.000419  -0.043  0  4.095341  0
C  C29  1  0.02799818  0.33587584  0.67676703  1  0  -0.049758  0  3.864117  0  0  -0.045209  0  4.109421  0  0  -0.048536  0  4.130446  0  0  0.000437  -0.042974  0  4.095285  0
C  C30  1  0.08525206  0.76364466  0.36746880  1  0  -0.050989  0  3.874936  0  0  -0.049132  0  4.124856  0  0  -0.051965  0  4.146997  0  0  -0.003351  -0.047145  0  4.109884  0
C  C31  1  0.91475588  0.23635323  0.63252518  1  0  -0.051034  0  3.875045  0  0  -0.049232  0  4.125035  0  0  -0.052083  0  4.147194  0  0  -0.003377  -0.047243  0  4.11006  0
C  C32  1  0.03995769  0.98575834  0.33761891  1  0  0.313649  0  3.764445  0  0  0.298593  0  4.027927  0  0  0.310776  0  4.04544  0  0  0.199624  0.29032  0  4.01631  0
C  C33  1  0.96005024  0.01423867  0.66237781  1  0  0.313641  0  3.764743  0  0  0.298589  0  4.028211  0  0  0.310772  0  4.045721  0  0  0.199676  0.290321  0  4.016589  0
C  C34  1  0.63278427  0.90681026  0.18093049  1  0  0.271409  0  3.78816  0  0  0.255129  0  4.065711  0  0  0.265844  0  4.083389  0  0  0.189127  0.247855  0  4.05389  0
C  C35  1  0.36721595  0.09319119  0.81906546  1  0  0.271285  0  3.78799  0  0  0.255034  0  4.065591  0  0  0.265756  0  4.083274  0  0  0.189028  0.247764  0  4.053768  0
C  C36  1  0.63443078  0.64462204  0.18287093  1  0  0.268732  0  3.773431  0  0  0.252675  0  4.053506  0  0  0.262352  0  4.070803  0  0  0.189767  0.246098  0  4.042037  0
C  C37  1  0.36555739  0.35537855  0.81712379  1  0  0.268811  0  3.773066  0  0  0.25275  0  4.053126  0  0  0.262422  0  4.070427  0  0  0.189751  0.246164  0  4.041651  0
C  C38  1  0.02652127  0.54469911  0.34972548  1  0  0.316799  0  3.744284  0  0  0.301923  0  4.005692  0  0  0.313636  0  4.022383  0  0  0.204421  0.293921  0  3.994741  0
C  C39  1  0.97348147  0.45530145  0.65027049  1  0  0.316782  0  3.744308  0  0  0.301909  0  4.005707  0  0  0.313618  0  4.022395  0  0  0.204411  0.293898  0  3.994755  0
C  C40  1  0.27137138  0.75955952  0.44527681  1  0  0.309587  0  3.784057  0  0  0.290691  0  4.060184  0  0  0.302519  0  4.076874  0  0  0.199059  0.282643  0  4.049055  0
C  C41  1  0.72863384  0.24044103  0.55471778  1  0  0.309548  0  3.784414  0  0  0.290669  0  4.060555  0  0  0.3025  0  4.077248  0  0  0.198996  0.282621  0  4.049427  0
N  N42  1  0.89814661  0.26721554  0.09871435  1  0  -0.085766  0  3.499698  0  0  0.023573  0  3.724613  0  0  0.002085  0  3.751104  0  0  -0.283361  0.038096  0  3.706092  0
N  N43  1  0.10186056  0.73278680  0.90128898  1  0  -0.085914  0  3.499876  0  0  0.023436  0  3.724821  0  0  0.001944  0  3.751311  0  0  -0.283458  0.037963  0  3.706294  0
N  N44  1  0.08896033  0.08467218  0.35057012  1  0  -0.411971  0  2.890494  0  0  -0.370827  0  3.192861  0  0  -0.381231  0  3.194805  0  0  -0.325424  -0.364467  0  3.19188  0
N  N45  1  0.91105231  0.91532571  0.64942857  1  0  -0.411942  0  2.890678  0  0  -0.370779  0  3.192991  0  0  -0.381186  0  3.194942  0  0  -0.325399  -0.364419  0  3.192002  0
N  N46  1  0.48515548  0.96550342  0.12848419  1  0  -0.371199  0  2.581511  0  0  -0.344674  0  2.804606  0  0  -0.353667  0  2.816095  0  0  -0.282051  -0.338838  0  2.797059  0
N  N47  1  0.51483486  0.03449807  0.87151592  1  0  -0.371119  0  2.581264  0  0  -0.344606  0  2.804363  0  0  -0.353599  0  2.81585  0  0  -0.281982  -0.338768  0  2.796814  0
N  N48  1  0.49250900  0.60040598  0.12680131  1  0  -0.353214  0  2.565914  0  0  -0.326404  0  2.788306  0  0  -0.334149  0  2.800519  0  0  -0.272521  -0.321498  0  2.78039  0
N  N49  1  0.50748101  0.39959817  0.87320075  1  0  -0.3533  0  2.56534  0  0  -0.326495  0  2.787752  0  0  -0.334223  0  2.799939  0  0  -0.272532  -0.321583  0  2.779821  0
N  N50  1  0.06774770  0.44505883  0.37187506  1  0  -0.387897  0  2.846496  0  0  -0.348633  0  3.13758  0  0  -0.358403  0  3.140096  0  0  -0.317739  -0.342656  0  3.136291  0
N  N51  1  0.93224044  0.55494089  0.62812308  1  0  -0.387901  0  2.846591  0  0  -0.348644  0  3.137673  0  0  -0.358415  0  3.140188  0  0  -0.317767  -0.342661  0  3.136382  0
N  N52  1  0.42709404  0.75683671  0.50997991  1  0  -0.413458  0  2.844887  0  0  -0.378456  0  3.146774  0  0  -0.388481  0  3.148806  0  0  -0.316181  -0.37217  0  3.145624  0
N  N53  1  0.57291395  0.24315942  0.49001751  1  0  -0.413427  0  2.845253  0  0  -0.37843  0  3.147138  0  0  -0.388455  0  3.149169  0  0  -0.316107  -0.372142  0  3.145989  0
O  O54  1  0.64760113  0.30458452  0.23653627  1  0  -0.554355  0  2.1224  0  0  -0.497525  0  2.410089  0  0  -0.52185  0  2.400217  0  0  -0.32196  -0.480412  0  2.415973  0
O  O55  1  0.35239593  0.69542052  0.76347045  1  0  -0.554359  0  2.122744  0  0  -0.497532  0  2.410419  0  0  -0.521855  0  2.400553  0  0  -0.321973  -0.48041  0  2.416284  0
