# generated using pymatgen
data_MnH16C8(NO5)2
_symmetry_space_group_name_H-M   'P 1'
_cell_length_a   8.08190372
_cell_length_b   8.08190564
_cell_length_c   9.47272806
_cell_angle_alpha   90.00004479
_cell_angle_beta   89.99998474
_cell_angle_gamma   89.99998486
_symmetry_Int_Tables_number   1
_chemical_formula_structural   MnH16C8(NO5)2
_chemical_formula_sum   'Mn2 H32 C16 N4 O20'
_cell_volume   618.73191465
_cell_formula_units_Z   2
loop_
 _symmetry_equiv_pos_site_id
 _symmetry_equiv_pos_as_xyz
  1  'x, y, z'
loop_
 _atom_site_type_symbol
 _atom_site_label
 _atom_site_symmetry_multiplicity
 _atom_site_fract_x
 _atom_site_fract_y
 _atom_site_fract_z
 _atom_site_occupancy
 _atom_site_pbe_cm5_charge
 _atom_site_pbe_ddec_charge
 _atom_site_pbe_ddec_spin_density
 _atom_site_pbe_ddec_sum_bond_order
 _atom_site_pbe_magmom
Mn  Mn0  1  0.49999970  0.50000082  0.00000011  1  0.597248  1.111192  4.648281  2.300868  4.47
Mn  Mn1  1  0.99999946  0.00000010  0.50000052  1  0.597235  1.111178  4.64829  2.300857  4.47
H  H2  1  0.01939130  0.28991838  0.80612268  1  0.122035  0.125803  -0.000179  1.000362  0.0
H  H3  1  0.98060908  0.71008153  0.80612376  1  0.122048  0.12581  -0.000179  1.000395  0.0
H  H4  1  0.28991916  0.98061036  0.19387686  1  0.122005  0.125796  -0.000179  1.000396  0.0
H  H5  1  0.71008143  0.01939146  0.19387649  1  0.122044  0.125792  -0.000179  1.000403  0.0
H  H6  1  0.48060932  0.78991915  0.69387741  1  0.12201  0.125782  -0.000179  1.000381  0.0
H  H7  1  0.51938987  0.21008189  0.69387615  1  0.122044  0.125802  -0.000179  1.000388  0.0
H  H8  1  0.21008034  0.48060954  0.30612314  1  0.122003  0.125785  -0.000179  1.000412  0.0
H  H9  1  0.78991897  0.51939115  0.30612415  1  0.122044  0.125807  -0.000179  1.000388  0.0
H  H10  1  0.85855497  0.42908839  0.75896831  1  0.126606  0.139934  0.000664  0.985822  0.001
H  H11  1  0.14144544  0.57091271  0.75896844  1  0.126604  0.139948  0.000664  0.985803  0.001
H  H12  1  0.42908697  0.14144566  0.24103194  1  0.126594  0.139942  0.000664  0.985801  0.001
H  H13  1  0.57091237  0.85855497  0.24103216  1  0.126605  0.139933  0.000664  0.98583  0.001
H  H14  1  0.64144393  0.92908806  0.74103175  1  0.126599  0.139921  0.000664  0.98584  0.001
H  H15  1  0.35855401  0.07091302  0.74103255  1  0.126597  0.13997  0.000663  0.985758  0.001
H  H16  1  0.07091138  0.64144412  0.25896784  1  0.126603  0.13993  0.000664  0.98582  0.001
H  H17  1  0.92908794  0.35855405  0.25896871  1  0.126603  0.139942  0.000664  0.985828  0.001
H  H18  1  0.08594751  0.44192052  0.00145801  1  0.315192  0.267552  -0.000412  0.947152  0.0
H  H19  1  0.91405189  0.55808113  0.00145901  1  0.315213  0.267565  -0.000412  0.947132  0.0
H  H20  1  0.44192035  0.91405215  0.99854153  1  0.31519  0.267531  -0.000412  0.94718  0.0
H  H21  1  0.55807998  0.08594917  0.99854125  1  0.315209  0.267562  -0.000412  0.947132  0.0
H  H22  1  0.41405199  0.94192035  0.49854197  1  0.31519  0.267531  -0.000412  0.94717  0.0
H  H23  1  0.58594849  0.05808051  0.49854166  1  0.315212  0.267562  -0.000412  0.947157  0.0
H  H24  1  0.05808024  0.41405232  0.50145863  1  0.315178  0.267522  -0.000412  0.947186  0.0
H  H25  1  0.94192025  0.58594855  0.50145859  1  0.315205  0.267555  -0.000412  0.947136  0.0
H  H26  1  0.45317157  0.58998840  0.28572143  1  0.289536  0.381513  0.001065  0.964228  0.002
H  H27  1  0.54682651  0.41001227  0.28572241  1  0.28954  0.381512  0.001065  0.964229  0.002
H  H28  1  0.58998828  0.54682797  0.71427798  1  0.289543  0.381501  0.001065  0.964239  0.002
H  H29  1  0.41001090  0.45317310  0.71427797  1  0.289529  0.381496  0.001065  0.964247  0.002
H  H30  1  0.04682679  0.08998877  0.21427832  1  0.289524  0.381508  0.001065  0.964235  0.002
H  H31  1  0.95317255  0.91001183  0.21427849  1  0.289533  0.381496  0.001065  0.964247  0.002
H  H32  1  0.91001195  0.04682831  0.78572183  1  0.28954  0.381486  0.001065  0.964263  0.002
H  H33  1  0.08998845  0.95317282  0.78572222  1  0.289536  0.381484  0.001065  0.964268  0.002
C  C34  1  0.79186646  0.27083991  0.92902593  1  0.21897  0.616841  0.019773  4.17212  0.017
C  C35  1  0.20813636  0.72915640  0.92903037  1  0.21901  0.616951  0.019777  4.171748  0.017
C  C36  1  0.27084456  0.20813655  0.07097115  1  0.219091  0.617092  0.019776  4.1717  0.017
C  C37  1  0.72915977  0.79186640  0.07097551  1  0.218993  0.616895  0.019775  4.17205  0.017
C  C38  1  0.70813371  0.77083941  0.57097508  1  0.219024  0.617005  0.019774  4.171985  0.017
C  C39  1  0.29186304  0.22915657  0.57097073  1  0.21901  0.616942  0.019775  4.171808  0.017
C  C40  1  0.22915872  0.70813390  0.42902551  1  0.21897  0.616846  0.019776  4.171895  0.017
C  C41  1  0.77084303  0.29186319  0.42902953  1  0.219001  0.616951  0.019775  4.171759  0.017
C  C42  1  0.92137679  0.36919909  0.84818229  1  -0.063632  -0.202116  0.000713  3.785668  0.0
C  C43  1  0.07862358  0.63080334  0.84818036  1  -0.063632  -0.202124  0.000713  3.785579  0.0
C  C44  1  0.36919640  0.07862380  0.15182003  1  -0.063609  -0.202154  0.000713  3.785614  0.0
C  C45  1  0.63080296  0.92137798  0.15182028  1  -0.063674  -0.202143  0.000713  3.785716  0.0
C  C46  1  0.57862212  0.86919745  0.65182090  1  -0.06362  -0.202139  0.000713  3.785669  0.0
C  C47  1  0.42137585  0.13080355  0.65182067  1  -0.063653  -0.202152  0.000713  3.785582  0.0
C  C48  1  0.13080321  0.57862358  0.34817971  1  -0.063607  -0.202096  0.000713  3.78564  0.0
C  C49  1  0.86919609  0.42137715  0.34818063  1  -0.063658  -0.202157  0.000713  3.785665  0.0
N  N50  1  0.99999933  0.49999995  0.93575689  1  -0.474463  -0.159214  0.000207  3.586134  0.0
N  N51  1  0.49999976  0.99999996  0.06424332  1  -0.474429  -0.159157  0.000207  3.586074  0.0
N  N52  1  0.49999968  0.00000019  0.56424289  1  -0.474441  -0.159159  0.000207  3.586057  0.0
N  N53  1  0.99999940  0.49999972  0.43575731  1  -0.474434  -0.15918  0.000207  3.586114  0.0
O  O54  1  0.71573726  0.34326673  0.02903919  1  -0.323171  -0.588265  0.032552  2.289206  0.015
O  O55  1  0.28426214  0.65672999  0.02904145  1  -0.323173  -0.58826  0.032551  2.289266  0.015
O  O56  1  0.34327042  0.28426257  0.97095900  1  -0.32318  -0.588311  0.032551  2.289295  0.015
O  O57  1  0.65673240  0.71573626  0.97096016  1  -0.323195  -0.588301  0.032554  2.289199  0.015
O  O58  1  0.78426305  0.84326658  0.47096061  1  -0.323176  -0.588324  0.032553  2.289181  0.015
O  O59  1  0.21573868  0.15672931  0.47095939  1  -0.323169  -0.588272  0.032552  2.289311  0.015
O  O60  1  0.15673269  0.78426328  0.52904003  1  -0.323155  -0.588245  0.032551  2.289221  0.015
O  O61  1  0.84327027  0.21573885  0.52904082  1  -0.323148  -0.588234  0.03255  2.289244  0.015
O  O62  1  0.76138481  0.12487432  0.88705804  1  -0.307195  -0.544312  0.011065  2.183354  0.012
O  O63  1  0.23861803  0.87512938  0.88706046  1  -0.307245  -0.544476  0.011067  2.183059  0.012
O  O64  1  0.12487152  0.23861826  0.11293902  1  -0.307296  -0.544546  0.011066  2.183054  0.012
O  O65  1  0.87512661  0.76138596  0.11294228  1  -0.307172  -0.544354  0.011066  2.183369  0.012
O  O66  1  0.73861416  0.62487385  0.61294182  1  -0.30722  -0.544388  0.011065  2.18333  0.012
O  O67  1  0.26138258  0.37512836  0.61293968  1  -0.307234  -0.544446  0.011066  2.183071  0.012
O  O68  1  0.37512804  0.73861430  0.38705766  1  -0.307192  -0.544361  0.011066  2.183185  0.012
O  O69  1  0.62487124  0.26138276  0.38706064  1  -0.30724  -0.544477  0.011066  2.183055  0.012
O  O70  1  0.50000091  0.49999969  0.22456266  1  -0.580868  -0.79022  0.045164  2.168331  0.028
O  O71  1  0.49999958  0.49999994  0.77543776  1  -0.580864  -0.790198  0.045163  2.168341  0.028
O  O72  1  0.99999936  0.00000053  0.27543830  1  -0.580857  -0.790215  0.045165  2.168329  0.028
O  O73  1  0.00000099  0.99999964  0.72456352  1  -0.580861  -0.790174  0.045161  2.168381  0.028
