# generated using pymatgen
data_CaH10C3N2(ClO2)2
_symmetry_space_group_name_H-M   'P 1'
_cell_length_a   5.73268420
_cell_length_b   7.96562000
_cell_length_c   11.46779060
_cell_angle_alpha   71.48905750
_cell_angle_beta   80.34214556
_cell_angle_gamma   86.69505053
_symmetry_Int_Tables_number   1
_chemical_formula_structural   CaH10C3N2(ClO2)2
_chemical_formula_sum   'Ca2 H20 C6 N4 Cl4 O8'
_cell_volume   489.53321760
_cell_formula_units_Z   2
loop_
 _symmetry_equiv_pos_site_id
 _symmetry_equiv_pos_as_xyz
  1  'x, y, z'
loop_
 _atom_site_type_symbol
 _atom_site_label
 _atom_site_symmetry_multiplicity
 _atom_site_fract_x
 _atom_site_fract_y
 _atom_site_fract_z
 _atom_site_occupancy
 _atom_site_hle17_bader_spin_density
 _atom_site_hle17_ddec_charge
 _atom_site_hle17_ddec_spin_density
 _atom_site_hle17_ddec_sum_bond_order
 _atom_site_hle17_magmom
 _atom_site_hse06_10hf_bader_spin_density
 _atom_site_hse06_10hf_ddec_charge
 _atom_site_hse06_10hf_ddec_spin_density
 _atom_site_hse06_10hf_ddec_sum_bond_order
 _atom_site_hse06_10hf_magmom
 _atom_site_hse06_bader_spin_density
 _atom_site_hse06_ddec_charge
 _atom_site_hse06_ddec_spin_density
 _atom_site_hse06_ddec_sum_bond_order
 _atom_site_hse06_magmom
 _atom_site_pbe_bader_spin_density
 _atom_site_pbe_cm5_charge
 _atom_site_pbe_ddec_charge
 _atom_site_pbe_ddec_spin_density
 _atom_site_pbe_ddec_sum_bond_order
 _atom_site_pbe_magmom
Ca  Ca0  1  0.50000037  0.00000146  0.50000051  1  0  1.505261  0  1.188767  0  0  1.383358  0  1.537849  0  0  1.420988  0  1.498838  0  0  0.749221  1.354652  0  1.566239  0
Ca  Ca1  1  0.99999946  0.49999866  0.99999999  1  0  1.504309  0  1.146286  0  0  1.37445  0  1.495495  0  0  1.412667  0  1.456043  0  0  0.744918  1.345582  0  1.52383  0
H  H2  1  0.35952938  0.96190953  0.91071582  1  0  0.342754  0  0.884522  0  0  0.323264  0  0.949973  0  0  0.331153  0  0.943361  0  0  0.300472  0.317636  0  0.954782  0
H  H3  1  0.64047182  0.03809059  0.08928299  1  0  0.342757  0  0.88453  0  0  0.323262  0  0.949984  0  0  0.33115  0  0.943373  0  0  0.300464  0.317632  0  0.954794  0
H  H4  1  0.15901579  0.13294745  0.92825709  1  0  0.340209  0  0.919176  0  0  0.314269  0  0.995432  0  0  0.322583  0  0.988683  0  0  0.297397  0.30828  0  1.000422  0
H  H5  1  0.84098370  0.86705134  0.07174478  1  0  0.340236  0  0.919158  0  0  0.31429  0  0.995411  0  0  0.322605  0  0.98866  0  0  0.297409  0.308302  0  1.000402  0
H  H6  1  0.55543687  0.45192665  0.77505442  1  0  0.3439  0  0.907764  0  0  0.323659  0  0.97285  0  0  0.332557  0  0.965135  0  0  0.306007  0.317297  0  0.978456  0
H  H7  1  0.44456793  0.54807086  0.22494467  1  0  0.343941  0  0.907672  0  0  0.323685  0  0.972765  0  0  0.332589  0  0.965041  0  0  0.306007  0.317322  0  0.978373  0
H  H8  1  0.66012441  0.38173818  0.64417297  1  0  0.336329  0  0.901952  0  0  0.312533  0  0.976265  0  0  0.319802  0  0.971292  0  0  0.291824  0.307317  0  0.979949  0
H  H9  1  0.33987146  0.61826456  0.35583008  1  0  0.336361  0  0.901819  0  0  0.312536  0  0.97617  0  0  0.319807  0  0.971194  0  0  0.291825  0.30732  0  0.979855  0
H  H10  1  0.04140683  0.19361240  0.41319709  1  0  0.408646  0  0.898992  0  0  0.377332  0  0.965292  0  0  0.387533  0  0.950398  0  0  0.274797  0.370062  0  0.975888  0
H  H11  1  0.95858912  0.80638502  0.58680277  1  0  0.408651  0  0.898987  0  0  0.377336  0  0.965288  0  0  0.387538  0  0.950393  0  0  0.274791  0.370066  0  0.975884  0
H  H12  1  0.20826547  0.15585601  0.30008196  1  0  0.408467  0  0.899934  0  0  0.37692  0  0.966737  0  0  0.387189  0  0.951821  0  0  0.271397  0.369536  0  0.977455  0
H  H13  1  0.79173936  0.84414018  0.69991829  1  0  0.408476  0  0.899932  0  0  0.376929  0  0.966734  0  0  0.387199  0  0.951818  0  0  0.271409  0.369548  0  0.97745  0
H  H14  1  0.17214494  0.34941208  0.63870913  1  0  0.157927  0  0.929766  0  0  0.164504  0  0.994972  0  0  0.168794  0  0.992533  0  0  0.111922  0.161447  0  0.99679  0
H  H15  1  0.82785617  0.65059336  0.36129199  1  0  0.157968  0  0.929762  0  0  0.164543  0  0.994953  0  0  0.168833  0  0.992514  0  0  0.111945  0.161486  0  0.996773  0
H  H16  1  0.96570796  0.19735798  0.63499088  1  0  0.143645  0  0.949295  0  0  0.152066  0  1.010856  0  0  0.155836  0  1.008872  0  0  0.11467  0.149293  0  1.012506  0
H  H17  1  0.03429319  0.80264479  0.36500822  1  0  0.14366  0  0.949255  0  0  0.152066  0  1.010835  0  0  0.155831  0  1.008871  0  0  0.114677  0.149297  0  1.012474  0
H  H18  1  0.29677360  0.66139447  0.74995190  1  0  0.416889  0  0.876862  0  0  0.384716  0  0.950827  0  0  0.394855  0  0.936071  0  0  0.289538  0.377426  0  0.96142  0
H  H19  1  0.70322937  0.33860567  0.25004763  1  0  0.416904  0  0.876827  0  0  0.384729  0  0.950808  0  0  0.394868  0  0.936052  0  0  0.289531  0.377441  0  0.9614  0
H  H20  1  0.44509576  0.67687406  0.85120332  1  0  0.409177  0  0.901666  0  0  0.376015  0  0.9713  0  0  0.386859  0  0.955386  0  0  0.275882  0.368272  0  0.982674  0
H  H21  1  0.55490898  0.32312609  0.14879519  1  0  0.409244  0  0.901578  0  0  0.376083  0  0.971195  0  0  0.386926  0  0.955282  0  0  0.27592  0.36834  0  0.982567  0
C  C22  1  0.87370264  0.32164395  0.77816972  1  0  0.724747  0  3.757128  0  0  0.680832  0  4.036419  0  0  0.712247  0  4.032956  0  0  0.262603  0.659433  0  4.038199  0
C  C23  1  0.12630757  0.67835232  0.22183876  1  0  0.72495  0  3.756875  0  0  0.68086  0  4.03638  0  0  0.712264  0  4.03294  0  0  0.26262  0.659463  0  4.038158  0
C  C24  1  0.21049923  0.09055572  0.75874184  1  0  0.7255  0  3.781222  0  0  0.680483  0  4.066232  0  0  0.711367  0  4.06336  0  0  0.262417  0.659444  0  4.067541  0
C  C25  1  0.78949843  0.90944437  0.24125728  1  0  0.725685  0  3.781073  0  0  0.680569  0  4.066208  0  0  0.71145  0  4.063341  0  0  0.262495  0.659536  0  4.067506  0
C  C26  1  0.05262351  0.24047044  0.69888416  1  0  -0.441659  0  3.641652  0  0  -0.467894  0  3.863175  0  0  -0.478735  0  3.865442  0  0  -0.150997  -0.460372  0  3.861687  0
C  C27  1  0.94737583  0.75953363  0.30111306  1  0  -0.441834  0  3.641669  0  0  -0.46798  0  3.86326  0  0  -0.478823  0  3.865539  0  0  -0.151054  -0.460458  0  3.861772  0
N  N28  1  0.67899125  0.38509097  0.73051154  1  0  -0.659541  0  3.090917  0  0  -0.622563  0  3.323495  0  0  -0.645827  0  3.318542  0  0  -0.550176  -0.606636  0  3.326985  0
N  N29  1  0.32099746  0.61491300  0.26948487  1  0  -0.659431  0  3.091039  0  0  -0.622343  0  3.323706  0  0  -0.645602  0  3.318753  0  0  -0.550003  -0.606418  0  3.327194  0
N  N30  1  0.23890340  0.05639629  0.87648499  1  0  -0.672388  0  3.117898  0  0  -0.636324  0  3.356413  0  0  -0.658762  0  3.35077  0  0  -0.556637  -0.620933  0  3.360391  0
N  N31  1  0.76109605  0.94360382  0.12351572  1  0  -0.672442  0  3.117887  0  0  -0.63633  0  3.356443  0  0  -0.658762  0  3.350799  0  0  -0.556638  -0.620941  0  3.360421  0
Cl  Cl32  1  0.28982061  0.67560370  0.55341930  1  0  -0.675991  0  0.775679  0  0  -0.607516  0  0.992706  0  0  -0.623965  0  0.973052  0  0  -0.277377  -0.594894  0  1.006495  0
Cl  Cl33  1  0.71018061  0.32439644  0.44658126  1  0  -0.675992  0  0.775689  0  0  -0.607518  0  0.992697  0  0  -0.623966  0  0.973042  0  0  -0.277384  -0.594895  0  1.006487  0
Cl  Cl34  1  0.27572655  0.21489805  0.10459874  1  0  -0.658603  0  0.785201  0  0  -0.589926  0  1.000441  0  0  -0.605444  0  0.979293  0  0  -0.266252  -0.57835  0  1.015378  0
Cl  Cl35  1  0.72427638  0.78510341  0.89539876  1  0  -0.658598  0  0.785182  0  0  -0.589913  0  1.000423  0  0  -0.605432  0  0.979275  0  0  -0.266258  -0.578334  0  1.01536  0
O  O36  1  0.91018410  0.33319975  0.88103842  1  0  -0.694727  0  1.955921  0  0  -0.630658  0  2.194408  0  0  -0.656471  0  2.185222  0  0  -0.371507  -0.61251  0  2.200487  0
O  O37  1  0.08981366  0.66679370  0.11895607  1  0  -0.695043  0  1.955327  0  0  -0.630928  0  2.19393  0  0  -0.656745  0  2.18475  0  0  -0.37166  -0.612775  0  2.200013  0
O  O38  1  0.19051170  0.13404110  0.39103299  1  0  -0.888727  0  1.86313  0  0  -0.834532  0  2.043838  0  0  -0.854413  0  2.012946  0  0  -0.635316  -0.820289  0  2.06586  0
O  O39  1  0.80948603  0.86595635  0.60896759  1  0  -0.888738  0  1.863127  0  0  -0.834542  0  2.043835  0  0  -0.854422  0  2.012944  0  0  -0.635312  -0.820299  0  2.065856  0
O  O40  1  0.31786870  0.00345197  0.69156567  1  0  -0.696124  0  1.978957  0  0  -0.638966  0  2.228512  0  0  -0.665715  0  2.220343  0  0  -0.385194  -0.619725  0  2.233687  0
O  O41  1  0.68212531  0.99655338  0.30843259  1  0  -0.69623  0  1.978877  0  0  -0.639034  0  2.228476  0  0  -0.665782  0  2.220309  0  0  -0.385256  -0.619792  0  2.23364  0
O  O42  1  0.32360127  0.60419987  0.83681473  1  0  -0.875221  0  1.902225  0  0  -0.817126  0  2.087636  0  0  -0.838274  0  2.057304  0  0  -0.612557  -0.801869  0  2.109077  0
O  O43  1  0.67639994  0.39580025  0.16318495  1  0  -0.875302  0  1.902177  0  0  -0.817197  0  2.087639  0  0  -0.838347  0  2.057306  0  0  -0.612579  -0.801942  0  2.109083  0
