# generated using pymatgen
data_ZnH4C5N3O2
_symmetry_space_group_name_H-M   'P 1'
_cell_length_a   13.17093300
_cell_length_b   13.33263940
_cell_length_c   27.74958993
_cell_angle_alpha   90.00035863
_cell_angle_beta   90.00018255
_cell_angle_gamma   90.00038502
_symmetry_Int_Tables_number   1
_chemical_formula_structural   ZnH4C5N3O2
_chemical_formula_sum   'Zn16 H64 C80 N48 O32'
_cell_volume   4872.91957403
_cell_formula_units_Z   16
loop_
 _symmetry_equiv_pos_site_id
 _symmetry_equiv_pos_as_xyz
  1  'x, y, z'
loop_
 _atom_site_type_symbol
 _atom_site_label
 _atom_site_symmetry_multiplicity
 _atom_site_fract_x
 _atom_site_fract_y
 _atom_site_fract_z
 _atom_site_occupancy
 _atom_site_pbe_bader_charge
 _atom_site_pbe_bader_spin_density
 _atom_site_pbe_cm5_charge
 _atom_site_pbe_ddec_charge
 _atom_site_pbe_ddec_spin_density
 _atom_site_pbe_ddec_sum_bond_order
 _atom_site_pbe_magmom
Zn  Zn0  1  0.00804265  0.56169603  0.80147251  1  1.241301  0  0.704587  0.676745  0  2.505119  0
Zn  Zn1  1  0.99196095  0.06169381  0.19852813  1  1.241278  0  0.704601  0.676795  0  2.505061  0
Zn  Zn2  1  0.50803633  0.06169249  0.69853009  1  1.24133  0  0.704584  0.676786  0  2.50512  0
Zn  Zn3  1  0.49196879  0.56169135  0.30147018  1  1.241285  0  0.7046  0.676873  0  2.50513  0
Zn  Zn4  1  0.10637054  0.12034861  0.79866540  1  1.241007  0  0.707643  0.67194  0  2.53695  0
Zn  Zn5  1  0.89362510  0.62034808  0.20133722  1  1.24094  0  0.707587  0.671896  0  2.536942  0
Zn  Zn6  1  0.60637675  0.62034366  0.70133573  1  1.24106  0  0.707626  0.671961  0  2.537041  0
Zn  Zn7  1  0.39361889  0.12034478  0.29866364  1  1.241018  0  0.707556  0.671801  0  2.537055  0
Zn  Zn8  1  0.66636319  0.01367625  0.80967773  1  1.239425  0  0.706241  0.681519  0  2.486339  0
Zn  Zn9  1  0.33363248  0.51367634  0.19032168  1  1.239463  0  0.706177  0.681472  0  2.486361  0
Zn  Zn10  1  0.16637411  0.51367307  0.69031957  1  1.23935  0  0.706215  0.681554  0  2.486303  0
Zn  Zn11  1  0.83362764  0.01367952  0.30968057  1  1.239434  0  0.706188  0.68146  0  2.486311  0
Zn  Zn12  1  0.05731728  0.95555745  0.68921310  1  1.240642  0  0.701344  0.681602  0  2.461954  0
Zn  Zn13  1  0.94268064  0.45556163  0.31079052  1  1.240341  0  0.701309  0.681499  0  2.462242  0
Zn  Zn14  1  0.55731699  0.45555914  0.81079220  1  1.240266  0  0.701318  0.681599  0  2.461867  0
Zn  Zn15  1  0.44267941  0.95555920  0.18921069  1  1.24031  0  0.70131  0.681627  0  2.462133  0
H  H16  1  0.17085740  0.02383105  0.94919402  1  0.102981  0  0.108422  0.127697  0  0.984517  0
H  H17  1  0.82912772  0.52383410  0.05080362  1  0.102328  0  0.108475  0.127815  0  0.984489  0
H  H18  1  0.67086036  0.52381436  0.55080152  1  0.102651  0  0.108441  0.127728  0  0.984386  0
H  H19  1  0.32913615  0.02383279  0.44919396  1  0.102855  0  0.108482  0.127806  0  0.98463  0
H  H20  1  0.91970776  0.16080424  0.04839159  1  0.098674  0  0.109062  0.127677  0  0.983409  0
H  H21  1  0.08029271  0.66079916  0.95160898  1  0.098383  0  0.109066  0.127646  0  0.983496  0
H  H22  1  0.41970517  0.66079775  0.45160871  1  0.100761  0  0.10911  0.127707  0  0.983404  0
H  H23  1  0.58030289  0.16079365  0.54839006  1  0.100772  0  0.109092  0.127728  0  0.983366  0
H  H24  1  0.79341711  0.07459790  0.47663120  1  0.07428  0  0.108256  0.125154  0  0.987695  0
H  H25  1  0.20657822  0.57461878  0.52336983  1  0.074166  0  0.108252  0.125169  0  0.987682  0
H  H26  1  0.29341632  0.57460378  0.02337224  1  0.074301  0  0.108277  0.125141  0  0.98765  0
H  H27  1  0.70657293  0.07460165  0.97662915  1  0.074391  0  0.10826  0.12514  0  0.987771  0
H  H28  1  0.98907411  0.80102309  0.77873564  1  0.118146  0  0.143931  0.110521  0  0.971489  0
H  H29  1  0.01093338  0.30102366  0.22126571  1  0.118134  0  0.143918  0.110527  0  0.97151  0
H  H30  1  0.48907272  0.30102403  0.72126482  1  0.118152  0  0.14393  0.11055  0  0.97147  0
H  H31  1  0.51094237  0.80102422  0.27873653  1  0.118103  0  0.143903  0.110506  0  0.971455  0
H  H32  1  0.81149623  0.94336223  0.71357223  1  0.155869  0  0.145127  0.113386  0  0.967348  0
H  H33  1  0.18849477  0.44337608  0.28643099  1  0.156035  0  0.145078  0.113412  0  0.967254  0
H  H34  1  0.31150969  0.44337153  0.78642838  1  0.156115  0  0.14504  0.113364  0  0.967266  0
H  H35  1  0.68849802  0.94338404  0.21356763  1  0.156099  0  0.145081  0.113449  0  0.967198  0
H  H36  1  0.88339908  0.09681901  0.84175886  1  0.222112  0  0.145596  0.13645  0  1.00176  0
H  H37  1  0.11659716  0.59681049  0.15824080  1  0.222111  0  0.145611  0.136496  0  1.001761  0
H  H38  1  0.38340675  0.59681391  0.65823903  1  0.222034  0  0.145554  0.136447  0  1.001824  0
H  H39  1  0.61659025  0.09680508  0.34176063  1  0.22189  0  0.145602  0.136488  0  1.001752  0
H  H40  1  0.29205534  0.97728210  0.64948227  1  0.216083  0  0.149611  0.137001  0  0.978545  0
H  H41  1  0.70794880  0.47728375  0.35051996  1  0.216028  0  0.149635  0.137004  0  0.978604  0
H  H42  1  0.79205303  0.47727756  0.85051588  1  0.21608  0  0.149605  0.136975  0  0.978552  0
H  H43  1  0.20794048  0.97728004  0.14948023  1  0.216268  0  0.149656  0.137077  0  0.978543  0
H  H44  1  0.97758280  0.15253300  0.96136836  1  0.113152  0  0.111688  0.112912  0  0.976443  0
H  H45  1  0.02240546  0.65253579  0.03863327  1  0.113066  0  0.111749  0.11283  0  0.976584  0
H  H46  1  0.47758439  0.65252109  0.53863597  1  0.112999  0  0.11169  0.11289  0  0.976227  0
H  H47  1  0.52241678  0.15252296  0.46136710  1  0.112885  0  0.11169  0.112907  0  0.976255  0
H  H48  1  0.34527385  0.12378973  0.78149885  1  0.155465  0  0.144146  0.11084  0  0.970787  0
H  H49  1  0.65472561  0.62378483  0.21850197  1  0.155534  0  0.144169  0.110863  0  0.970843  0
H  H50  1  0.84528472  0.62379024  0.71850627  1  0.155457  0  0.144138  0.110895  0  0.970768  0
H  H51  1  0.15472385  0.12379331  0.28149708  1  0.155494  0  0.144118  0.110833  0  0.970823  0
H  H52  1  0.97129573  0.93367803  0.45111044  1  0.053913  0  0.109009  0.109991  0  0.977323  0
H  H53  1  0.02870584  0.43367477  0.54888626  1  0.053952  0  0.108995  0.109937  0  0.977329  0
H  H54  1  0.47129474  0.43367821  0.04888498  1  0.053961  0  0.109014  0.109978  0  0.977413  0
H  H55  1  0.52870227  0.93367235  0.95111208  1  0.053794  0  0.108982  0.10991  0  0.977426  0
H  H56  1  0.08202169  0.89438775  0.52240948  1  0.089502  0  0.108238  0.125673  0  0.985479  0
H  H57  1  0.91799403  0.39438421  0.47758566  1  0.08966  0  0.10829  0.125754  0  0.985461  0
H  H58  1  0.58201337  0.39438488  0.97758882  1  0.089652  0  0.108271  0.125731  0  0.985473  0
H  H59  1  0.41798717  0.89438558  0.02241605  1  0.08955  0  0.108296  0.125755  0  0.985438  0
H  H60  1  0.09605712  0.01178590  0.03261067  1  0.080474  0  0.110619  0.109965  0  0.977979  0
H  H61  1  0.90393323  0.51179325  0.96738838  1  0.080388  0  0.110613  0.109973  0  0.978018  0
H  H62  1  0.59605365  0.51177994  0.46738688  1  0.080427  0  0.110602  0.109881  0  0.978014  0
H  H63  1  0.40393745  0.01178046  0.53261109  1  0.080453  0  0.110588  0.109867  0  0.978042  0
H  H64  1  0.89392560  0.02030414  0.54965318  1  0.1052  0  0.108887  0.109904  0  0.977311  0
H  H65  1  0.10607619  0.52032039  0.45034625  1  0.105452  0  0.108883  0.109885  0  0.977236  0
H  H66  1  0.39392909  0.52031938  0.95034738  1  0.105469  0  0.108865  0.10987  0  0.97733  0
H  H67  1  0.60608030  0.02031715  0.04964881  1  0.105439  0  0.108903  0.109909  0  0.977292  0
H  H68  1  0.15191337  0.74310071  0.65115175  1  0.242528  0  0.146488  0.133984  0  0.992395  0
H  H69  1  0.84808690  0.24309801  0.34884943  1  0.242482  0  0.146496  0.134027  0  0.99236  0
H  H70  1  0.65191789  0.24309540  0.84884909  1  0.242479  0  0.146464  0.133988  0  0.992322  0
H  H71  1  0.34808541  0.74310107  0.15115425  1  0.242616  0  0.146474  0.133939  0  0.992312  0
H  H72  1  0.66102516  0.77033350  0.79347069  1  0.149776  0  0.146619  0.114801  0  0.961909  0
H  H73  1  0.33897377  0.27033530  0.20652769  1  0.14965  0  0.146627  0.114767  0  0.961903  0
H  H74  1  0.16102596  0.27033275  0.70652665  1  0.149621  0  0.14664  0.114744  0  0.961942  0
H  H75  1  0.83897374  0.77033306  0.29347029  1  0.149743  0  0.146636  0.114776  0  0.961938  0
H  H76  1  0.53165902  0.83560508  0.65823589  1  0.218913  0  0.150199  0.138291  0  0.979766  0
H  H77  1  0.46834719  0.33559827  0.34176123  1  0.218296  0  0.150277  0.138419  0  0.979704  0
H  H78  1  0.03165916  0.33560010  0.84176071  1  0.218373  0  0.150235  0.138373  0  0.979695  0
H  H79  1  0.96834325  0.83560325  0.15824146  1  0.218426  0  0.150262  0.138369  0  0.97972  0
C  C80  1  0.98502116  0.07097117  0.10711994  1  1.496188  0  0.183815  0.599184  0  4.221966  0
C  C81  1  0.01497794  0.57096638  0.89288144  1  1.496228  0  0.183819  0.599277  0  4.221591  0
C  C82  1  0.48502427  0.57096841  0.39287875  1  1.496161  0  0.183765  0.59929  0  4.221617  0
C  C83  1  0.51497103  0.07096464  0.60711795  1  1.495986  0  0.183677  0.599244  0  4.221845  0
C  C84  1  0.10831755  0.07397164  0.93993228  1  -0.044057  0  -0.092205  -0.227586  0  3.898292  0
C  C85  1  0.89166715  0.57397748  0.06006911  1  -0.043565  0  -0.092345  -0.227908  0  3.898308  0
C  C86  1  0.60832285  0.57396407  0.56006871  1  -0.043846  0  -0.092306  -0.227771  0  3.898514  0
C  C87  1  0.39167400  0.07396329  0.43993160  1  -0.044122  0  -0.092334  -0.227729  0  3.898329  0
C  C88  1  0.97598226  0.10307473  0.05641148  1  -0.030737  0  -0.090331  -0.22222  0  3.897455  0
C  C89  1  0.02401781  0.60307292  0.94359036  1  -0.030362  0  -0.090316  -0.222162  0  3.897218  0
C  C90  1  0.47597963  0.60306963  0.44358981  1  -0.032604  0  -0.090372  -0.222281  0  3.897342  0
C  C91  1  0.52401589  0.10306901  0.55641131  1  -0.032586  0  -0.090338  -0.222339  0  3.897367  0
C  C92  1  0.84363580  0.02800025  0.45473571  1  -0.073041  0  -0.089401  -0.221653  0  3.889733  0
C  C93  1  0.15635846  0.52802633  0.54526626  1  -0.07314  0  -0.089551  -0.221896  0  3.889984  0
C  C94  1  0.34363667  0.52800717  0.04526803  1  -0.073237  0  -0.089475  -0.221656  0  3.889912  0
C  C95  1  0.65636214  0.02799841  0.95473178  1  -0.073103  0  -0.089369  -0.22155  0  3.889625  0
C  C96  1  0.10186162  0.10741627  0.88941771  1  1.506431  0  0.182926  0.597032  0  4.219622  0
C  C97  1  0.89812330  0.60741982  0.11058234  1  1.505224  0  0.182952  0.596944  0  4.219776  0
C  C98  1  0.60186572  0.60740562  0.61058049  1  1.505046  0  0.183006  0.597107  0  4.219788  0
C  C99  1  0.39813363  0.10741397  0.38941776  1  1.50583  0  0.182908  0.59685  0  4.219878  0
C  C100  1  0.02965059  0.76336926  0.74991098  1  1.01207  0  0.149151  0.142748  0  3.973551  0
C  C101  1  0.97035741  0.26336682  0.25009062  1  1.011621  0  0.149247  0.142718  0  3.973402  0
C  C102  1  0.52964688  0.26336715  0.75008973  1  1.011716  0  0.149262  0.142749  0  3.973559  0
C  C103  1  0.47036339  0.76336743  0.24991259  1  1.011767  0  0.149338  0.142972  0  3.973239  0
C  C104  1  0.82450184  0.03105775  0.40225024  1  1.509758  0  0.186826  0.601135  0  4.218509  0
C  C105  1  0.17550079  0.53107790  0.59774886  1  1.509542  0  0.1869  0.601322  0  4.217541  0
C  C106  1  0.32450836  0.53105711  0.09774880  1  1.509664  0  0.186717  0.601018  0  4.218407  0
C  C107  1  0.67549274  0.03106354  0.90224670  1  1.509912  0  0.186812  0.600977  0  4.218219  0
C  C108  1  0.85246850  0.98239009  0.74186607  1  0.986661  0  0.148329  0.142312  0  3.961973  0
C  C109  1  0.14752581  0.48239879  0.25813510  1  0.986328  0  0.148315  0.142272  0  3.962023  0
C  C110  1  0.35247569  0.48239526  0.75813220  1  0.986457  0  0.148322  0.142289  0  3.962052  0
C  C111  1  0.64752696  0.98240412  0.24186321  1  0.986231  0  0.14838  0.142307  0  3.961986  0
C  C112  1  0.05341439  0.93813942  0.59685422  1  1.505204  0  0.184297  0.600223  0  4.219992  0
C  C113  1  0.94658797  0.43814110  0.40314681  1  1.505198  0  0.184346  0.600336  0  4.219642  0
C  C114  1  0.55341242  0.43814233  0.90315065  1  1.505297  0  0.184413  0.600468  0  4.21995  0
C  C115  1  0.44659297  0.93814420  0.09685435  1  1.505324  0  0.184404  0.60058  0  4.219182  0
C  C116  1  0.88898918  0.06061441  0.80681884  1  0.982682  0  0.156784  0.161011  0  3.907259  0
C  C117  1  0.11100757  0.56061607  0.19318180  1  0.982733  0  0.156691  0.16088  0  3.907651  0
C  C118  1  0.38899480  0.56061877  0.69317967  1  0.98253  0  0.156799  0.160929  0  3.90766  0
C  C119  1  0.61100271  0.06061470  0.30681844  1  0.982765  0  0.156732  0.160987  0  3.907577  0
C  C120  1  0.28121543  0.01270284  0.68431846  1  0.985202  0  0.16138  0.169522  0  3.887073  0
C  C121  1  0.71878327  0.51270190  0.31568203  1  0.985222  0  0.161238  0.169346  0  3.887186  0
C  C122  1  0.78122162  0.51269939  0.81568010  1  0.985096  0  0.161261  0.169447  0  3.887233  0
C  C123  1  0.21877481  0.01270310  0.18431643  1  0.984833  0  0.161211  0.169341  0  3.887266  0
C  C124  1  0.03818073  0.10169006  0.97291726  1  -0.042253  0  -0.069236  -0.024977  0  4.006713  0
C  C125  1  0.96180871  0.60169819  0.02708386  1  -0.042121  0  -0.069131  -0.024496  0  4.00657  0
C  C126  1  0.53818733  0.60168507  0.52708226  1  -0.04181  0  -0.069178  -0.024891  0  4.006586  0
C  C127  1  0.46181653  0.10168218  0.47291669  1  -0.041813  0  -0.069128  -0.024842  0  4.006548  0
C  C128  1  0.30834686  0.08730075  0.75124571  1  0.983748  0  0.148761  0.140809  0  3.979064  0
C  C129  1  0.69165463  0.58729500  0.24875392  1  0.983621  0  0.148771  0.140803  0  3.979006  0
C  C130  1  0.80835033  0.58730542  0.74875744  1  0.983725  0  0.148747  0.140721  0  3.9791  0
C  C131  1  0.19165268  0.08730158  0.25124471  1  0.983332  0  0.148765  0.140776  0  3.979145  0
C  C132  1  0.92194182  0.97743530  0.47484307  1  0.029381  0  -0.073228  -0.031683  0  4.007607  0
C  C133  1  0.07806460  0.47744481  0.52515844  1  0.029655  0  -0.073086  -0.03145  0  4.007494  0
C  C134  1  0.42193537  0.47743817  0.02515745  1  0.029725  0  -0.073148  -0.031618  0  4.007506  0
C  C135  1  0.57805966  0.97743370  0.97484226  1  0.029603  0  -0.073201  -0.031583  0  4.007485  0
C  C136  1  0.02784958  0.93483883  0.54500154  1  -0.07116  0  -0.091635  -0.226272  0  3.894724  0
C  C137  1  0.97216186  0.43484210  0.45499841  1  -0.070872  0  -0.091703  -0.22642  0  3.894839  0
C  C138  1  0.52784188  0.43484091  0.95499968  1  -0.071027  0  -0.091678  -0.226419  0  3.895023  0
C  C139  1  0.47215818  0.93484752  0.04500207  1  -0.07092  0  -0.091674  -0.226363  0  3.894761  0
C  C140  1  0.03945233  0.06782856  0.02209379  1  -0.059995  0  -0.071944  -0.031354  0  4.017215  0
C  C141  1  0.96054068  0.56783117  0.97790939  1  -0.059968  0  -0.072049  -0.031624  0  4.017098  0
C  C142  1  0.53945196  0.56781898  0.47790635  1  -0.0602  0  -0.071884  -0.031141  0  4.017092  0
C  C143  1  0.46054408  0.06781674  0.52209070  1  -0.060204  0  -0.071916  -0.031239  0  4.017063  0
C  C144  1  0.94519167  0.97955307  0.52559592  1  -0.006777  0  -0.07284  -0.027943  0  4.005899  0
C  C145  1  0.05481856  0.47955726  0.47440525  1  -0.007474  0  -0.072823  -0.027925  0  4.005952  0
C  C146  1  0.44518128  0.47955659  0.97440357  1  -0.007509  0  -0.072782  -0.027837  0  4.005941  0
C  C147  1  0.55481756  0.97955224  0.02559579  1  -0.007442  0  -0.072846  -0.027997  0  4.006012  0
C  C148  1  0.11272337  0.73397133  0.68531041  1  0.95818  0  0.159528  0.16672  0  3.893268  0
C  C149  1  0.88727836  0.23397219  0.31469146  1  0.94862  0  0.159591  0.166721  0  3.893629  0
C  C150  1  0.61272311  0.23397157  0.81469035  1  0.948919  0  0.159542  0.166721  0  3.89334  0
C  C151  1  0.38727938  0.73397270  0.18531297  1  0.957653  0  0.159519  0.166863  0  3.89326  0
C  C152  1  0.62811485  0.80984525  0.76302811  1  1.003615  0  0.149579  0.140548  0  3.970566  0
C  C153  1  0.37188435  0.30984392  0.23697074  1  1.003722  0  0.149531  0.140616  0  3.97051  0
C  C154  1  0.12811128  0.30984714  0.73696749  1  1.003682  0  0.149646  0.140754  0  3.970465  0
C  C155  1  0.87187957  0.80984577  0.26302920  1  1.003592  0  0.149507  0.14055  0  3.970522  0
C  C156  1  0.56246791  0.84301206  0.69436764  1  0.989827  0  0.162478  0.167596  0  3.896991  0
C  C157  1  0.43753987  0.34300681  0.30562952  1  0.990569  0  0.162366  0.167468  0  3.896869  0
C  C158  1  0.06246631  0.34301110  0.80562832  1  0.990305  0  0.16226  0.167236  0  3.897274  0
C  C159  1  0.93753312  0.84301152  0.19437171  1  0.99041  0  0.162279  0.167314  0  3.897498  0
N  N160  1  0.59988346  0.76643037  0.72103641  1  -1.268612  0  -0.355748  -0.316032  0  3.578254  0
N  N161  1  0.40012684  0.26642603  0.27896015  1  -1.268775  0  -0.355735  -0.315994  0  3.578308  0
N  N162  1  0.09987485  0.26642982  0.77895721  1  -1.268433  0  -0.355703  -0.315893  0  3.578354  0
N  N163  1  0.90011723  0.76643258  0.22103935  1  -1.26866  0  -0.355702  -0.315898  0  3.578428  0
N  N164  1  0.81086996  0.01594992  0.78354053  1  -1.281727  0  -0.355335  -0.320501  0  3.565098  0
N  N165  1  0.18912649  0.51595840  0.21646177  1  -1.281621  0  -0.355292  -0.320446  0  3.565395  0
N  N166  1  0.31087649  0.51595684  0.71645809  1  -1.281603  0  -0.355402  -0.320577  0  3.565529  0
N  N167  1  0.68912299  0.01596123  0.28353737  1  -1.28142  0  -0.355355  -0.320579  0  3.56547  0
N  N168  1  0.06724856  0.80899999  0.71017752  1  -1.276094  0  -0.352909  -0.315021  0  3.553819  0
N  N169  1  0.93275519  0.30899934  0.28982566  1  -1.266538  0  -0.35292  -0.314968  0  3.553716  0
N  N170  1  0.56724739  0.30899991  0.78982483  1  -1.266775  0  -0.352944  -0.315028  0  3.553824  0
N  N171  1  0.43275409  0.80900242  0.21017979  1  -1.27566  0  -0.352996  -0.315248  0  3.553726  0
N  N172  1  0.04964201  0.66547873  0.74987950  1  -0.779821  0  -0.25024  -0.192  0  3.500503  0
N  N173  1  0.95036760  0.16547766  0.25012361  1  -0.779261  0  -0.2503  -0.192001  0  3.500315  0
N  N174  1  0.54963602  0.16547887  0.75012059  1  -0.779487  0  -0.250262  -0.191919  0  3.500541  0
N  N175  1  0.45037359  0.66547827  0.24987891  1  -0.779578  0  -0.250245  -0.191998  0  3.500495  0
N  N176  1  0.95112560  0.00421274  0.73931799  1  -0.8001  0  -0.24771  -0.191674  0  3.482701  0
N  N177  1  0.04886697  0.50421487  0.26068320  1  -0.800049  0  -0.247597  -0.191583  0  3.482893  0
N  N178  1  0.45113318  0.50421574  0.76067865  1  -0.799982  0  -0.247668  -0.191685  0  3.482998  0
N  N179  1  0.54886699  0.00421862  0.23931677  1  -0.800021  0  -0.247759  -0.191822  0  3.483011  0
N  N180  1  0.60998739  0.90804705  0.76272842  1  -0.804975  0  -0.251334  -0.191037  0  3.501422  0
N  N181  1  0.39001932  0.40804059  0.23727145  1  -0.804944  0  -0.251244  -0.19095  0  3.501317  0
N  N182  1  0.10998534  0.40804745  0.73726961  1  -0.805126  0  -0.251274  -0.191081  0  3.5013  0
N  N183  1  0.89000694  0.90804394  0.26272810  1  -0.805021  0  -0.25125  -0.191039  0  3.501442  0
N  N184  1  0.19155066  0.02144589  0.70639116  1  -0.810852  0  -0.249307  -0.189297  0  3.508692  0
N  N185  1  0.80845342  0.52144375  0.29360972  1  -0.810872  0  -0.249213  -0.189167  0  3.508671  0
N  N186  1  0.69155291  0.52144440  0.79360800  1  -0.810811  0  -0.24921  -0.18921  0  3.508729  0
N  N187  1  0.30844586  0.02144600  0.20638891  1  -0.810651  0  -0.249259  -0.189212  0  3.508672  0
N  N188  1  0.10298352  0.64674341  0.70833692  1  -0.790864  0  -0.252854  -0.188402  0  3.516551  0
N  N189  1  0.89701534  0.14674478  0.29166397  1  -0.790875  0  -0.252896  -0.188371  0  3.516611  0
N  N190  1  0.60298311  0.14674259  0.79166320  1  -0.790863  0  -0.252879  -0.18845  0  3.516584  0
N  N191  1  0.39701878  0.64674410  0.20833913  1  -0.790753  0  -0.252894  -0.188481  0  3.516621  0
N  N192  1  0.56819377  0.92921872  0.71854867  1  -0.799954  0  -0.254474  -0.190929  0  3.530524  0
N  N193  1  0.43181308  0.42921462  0.28145018  1  -0.799927  0  -0.25448  -0.191067  0  3.530344  0
N  N194  1  0.06819580  0.42922195  0.78145116  1  -0.799789  0  -0.254456  -0.190845  0  3.530436  0
N  N195  1  0.93180497  0.92921964  0.21855021  1  -0.799823  0  -0.254416  -0.190813  0  3.530594  0
N  N196  1  0.35629918  0.05371240  0.71133412  1  -1.259555  0  -0.354828  -0.315342  0  3.563551  0
N  N197  1  0.64369525  0.55370685  0.28866542  1  -1.25943  0  -0.35477  -0.315209  0  3.563494  0
N  N198  1  0.85630519  0.55371385  0.78866721  1  -1.259513  0  -0.35476  -0.31519  0  3.563758  0
N  N199  1  0.14369380  0.05371141  0.21133196  1  -1.25925  0  -0.35478  -0.3153  0  3.563587  0
N  N200  1  0.20925966  0.06929423  0.74937278  1  -0.784836  0  -0.256287  -0.192254  0  3.525508  0
N  N201  1  0.79074323  0.56928915  0.25062752  1  -0.78481  0  -0.256334  -0.192308  0  3.525526  0
N  N202  1  0.70926162  0.56929817  0.75062835  1  -0.78469  0  -0.256317  -0.19236  0  3.52561  0
N  N203  1  0.29073822  0.06929121  0.24937122  1  -0.784732  0  -0.25621  -0.192178  0  3.525746  0
N  N204  1  0.97410605  0.05432545  0.78116987  1  -0.782352  0  -0.256131  -0.186804  0  3.531193  0
N  N205  1  0.02589293  0.55432162  0.21882967  1  -0.782392  0  -0.256119  -0.186825  0  3.531447  0
N  N206  1  0.47411108  0.55432640  0.71882984  1  -0.782324  0  -0.256009  -0.186614  0  3.531384  0
N  N207  1  0.52588866  0.05432067  0.28116969  1  -0.782397  0  -0.256006  -0.186636  0  3.531292  0
O  O208  1  0.94398413  0.12987706  0.13927254  1  -1.157154  0  -0.359389  -0.559255  0  2.188251  0
O  O209  1  0.05602676  0.62987062  0.86073010  1  -1.157052  0  -0.359383  -0.55925  0  2.188072  0
O  O210  1  0.44398779  0.62987313  0.36072914  1  -1.157025  0  -0.359327  -0.55927  0  2.188201  0
O  O211  1  0.55601398  0.12986931  0.63926954  1  -1.156849  0  -0.359275  -0.559244  0  2.188202  0
O  O212  1  0.03212904  0.99231828  0.11913372  1  -1.17814  0  -0.330366  -0.561475  0  2.107893  0
O  O213  1  0.96786457  0.49231888  0.88086748  1  -1.178177  0  -0.330348  -0.561495  0  2.107849  0
O  O214  1  0.53213225  0.49231339  0.38086552  1  -1.178238  0  -0.330377  -0.561609  0  2.107743  0
O  O215  1  0.46786288  0.99231402  0.61913280  1  -1.178238  0  -0.330365  -0.561526  0  2.107783  0
O  O216  1  0.86989275  0.96549160  0.37466063  1  -1.167022  0  -0.356547  -0.560573  0  2.214838  0
O  O217  1  0.13011739  0.46550577  0.62533905  1  -1.166756  0  -0.356759  -0.560782  0  2.214431  0
O  O218  1  0.36989757  0.46549053  0.12534158  1  -1.167048  0  -0.356507  -0.560582  0  2.21475  0
O  O219  1  0.63010041  0.96549709  0.87465738  1  -1.166967  0  -0.356587  -0.560583  0  2.214846  0
O  O220  1  0.98781387  0.97691224  0.62688177  1  -1.153011  0  -0.357155  -0.562141  0  2.214223  0
O  O221  1  0.01219558  0.47691781  0.37311903  1  -1.152776  0  -0.357151  -0.562149  0  2.213941  0
O  O222  1  0.48780814  0.47691518  0.87312174  1  -1.152844  0  -0.357157  -0.562235  0  2.214133  0
O  O223  1  0.51220055  0.97691713  0.12688337  1  -1.152948  0  -0.357158  -0.562291  0  2.213814  0
O  O224  1  0.13737572  0.90332599  0.61117157  1  -1.174659  0  -0.332967  -0.562627  0  2.085436  0
O  O225  1  0.86263096  0.40332841  0.38882540  1  -1.174694  0  -0.33299  -0.562635  0  2.085453  0
O  O226  1  0.63736986  0.40333245  0.88882937  1  -1.17464  0  -0.333073  -0.562738  0  2.085384  0
O  O227  1  0.36263757  0.90332870  0.11117661  1  -1.174532  0  -0.333079  -0.562827  0  2.0852  0
O  O228  1  0.03157365  0.16464992  0.87480095  1  -1.184988  0  -0.327939  -0.559134  0  2.125214  0
O  O229  1  0.96840862  0.66465713  0.12519748  1  -1.184813  0  -0.327904  -0.558975  0  2.125314  0
O  O230  1  0.53157861  0.66463647  0.62519767  1  -1.184803  0  -0.327933  -0.559116  0  2.125349  0
O  O231  1  0.46841581  0.16465034  0.37480183  1  -1.18491  0  -0.327866  -0.558947  0  2.125383  0
O  O232  1  0.16990973  0.07241273  0.85970844  1  -1.152906  0  -0.358793  -0.558685  0  2.177916  0
O  O233  1  0.83008027  0.57241097  0.14029223  1  -1.151909  0  -0.358862  -0.55875  0  2.177867  0
O  O234  1  0.66991251  0.57240397  0.64029192  1  -1.151861  0  -0.358905  -0.558797  0  2.17786  0
O  O235  1  0.33008660  0.07240848  0.35970875  1  -1.152359  0  -0.358871  -0.558732  0  2.178013  0
O  O236  1  0.76725701  0.09804718  0.38507527  1  -1.17286  0  -0.328406  -0.558103  0  2.093849  0
O  O237  1  0.23275214  0.59806119  0.61492331  1  -1.1728  0  -0.328253  -0.558032  0  2.093229  0
O  O238  1  0.26725758  0.59805052  0.11492532  1  -1.172766  0  -0.328353  -0.558024  0  2.093438  0
O  O239  1  0.73273943  0.09805410  0.88507146  1  -1.172993  0  -0.328401  -0.558009  0  2.093504  0
