# generated using pymatgen
data_CuH9C9SNCl2O5
_symmetry_space_group_name_H-M   'P 1'
_cell_length_a   5.02895580
_cell_length_b   7.70784529
_cell_length_c   16.83556998
_cell_angle_alpha   92.50874520
_cell_angle_beta   96.83278874
_cell_angle_gamma   102.98185670
_symmetry_Int_Tables_number   1
_chemical_formula_structural   CuH9C9SNCl2O5
_chemical_formula_sum   'Cu2 H18 C18 S2 N2 Cl4 O10'
_cell_volume   629.71317981
_cell_formula_units_Z   2
loop_
 _symmetry_equiv_pos_site_id
 _symmetry_equiv_pos_as_xyz
  1  'x, y, z'
loop_
 _atom_site_type_symbol
 _atom_site_label
 _atom_site_symmetry_multiplicity
 _atom_site_fract_x
 _atom_site_fract_y
 _atom_site_fract_z
 _atom_site_occupancy
 _atom_site_hle17_ddec_charge
 _atom_site_hle17_ddec_spin_density
 _atom_site_hle17_ddec_sum_bond_order
 _atom_site_hle17_magmom
 _atom_site_hse06_10hf_ddec_charge
 _atom_site_hse06_10hf_ddec_spin_density
 _atom_site_hse06_10hf_ddec_sum_bond_order
 _atom_site_hse06_10hf_magmom
 _atom_site_hse06_ddec_charge
 _atom_site_hse06_ddec_spin_density
 _atom_site_hse06_ddec_sum_bond_order
 _atom_site_hse06_magmom
 _atom_site_pbe_cm5_charge
 _atom_site_pbe_ddec_charge
 _atom_site_pbe_ddec_spin_density
 _atom_site_pbe_ddec_sum_bond_order
 _atom_site_pbe_magmom
Cu  Cu0  1  0.51856774  0.58801451  0.65154970  1  0.966266  0.706357  1.767062  0.532  0.955635  0.790029  2.16161  0.644  1.036768  0.850199  2.09777  0.726  0.744262  0.900822  0.746791  2.213094  0.59
Cu  Cu1  1  0.48143437  0.41198691  0.34845102  1  0.966322  0.706351  1.767012  0.532  0.95573  0.79002  2.161491  0.644  1.036845  0.850199  2.097683  0.726  0.744281  0.900906  0.746781  2.213037  0.59
H  H2  1  0.14113670  0.86357007  0.71600679  1  0.068039  0.000127  0.947476  0.001  0.084078  -3e-05  1.012131  0.0  0.083138  1.2e-05  1.014217  0.0  0.104309  0.084563  -5.4e-05  1.010744  0.0
H  H3  1  0.85886248  0.13642868  0.28399317  1  0.067964  0.000127  0.947479  0.001  0.084018  -3e-05  1.012133  0.0  0.083078  1.2e-05  1.01422  0.0  0.104277  0.0845  -5.4e-05  1.010743  0.0
H  H4  1  0.43077955  0.04809360  0.73312447  1  0.075496  0.003699  0.917296  0.004  0.095167  0.002561  0.973793  0.003  0.095138  0.001844  0.973817  0.002  0.106035  0.094993  0.003104  0.973975  0.003
H  H5  1  0.56921656  0.95190780  0.26687543  1  0.075481  0.003698  0.917291  0.004  0.095153  0.002561  0.973793  0.003  0.095124  0.001844  0.973818  0.002  0.106034  0.094976  0.003104  0.97397  0.003
H  H6  1  0.51959125  0.97800058  0.58741106  1  0.162471  0.000109  0.92527  0.0  0.170393  0.000104  0.983887  0.0  0.173918  6.7e-05  0.982229  0.0  0.116915  0.167824  0.000141  0.985172  0.0
H  H7  1  0.48040239  0.02199948  0.41258813  1  0.162504  0.000111  0.925211  0.0  0.170375  0.000104  0.983887  0.0  0.173897  6.7e-05  0.982229  0.0  0.116898  0.167811  0.000141  0.985169  0.0
H  H8  1  0.22635766  0.06556049  0.60001035  1  0.161193  0.000349  0.933149  0.0  0.170888  0.000185  0.989866  0.0  0.174624  5.7e-05  0.987628  0.0  0.117156  0.168149  0.000314  0.991616  0.0
H  H9  1  0.77363750  0.93443824  0.39999006  1  0.161209  0.00035  0.933161  0.0  0.170891  0.000185  0.989883  0.0  0.174625  5.7e-05  0.987646  0.0  0.117159  0.168156  0.000314  0.991625  0.0
H  H10  1  0.66397318  0.95390751  0.82688075  1  0.065423  0.00765  0.943586  0.009  0.073737  0.004819  1.014855  0.005  0.074443  0.00339  1.011097  0.004  0.108913  0.072937  0.005938  1.017886  0.007
H  H11  1  0.33602847  0.04609257  0.17311874  1  0.065446  0.007651  0.943584  0.009  0.073757  0.00482  1.014852  0.005  0.074463  0.00339  1.011094  0.004  0.108915  0.072956  0.005939  1.017874  0.007
H  H12  1  0.96364899  0.92116312  0.93390121  1  0.104991  0.000423  0.968315  0.0  0.111003  0.000236  1.041047  0.0  0.114312  0.000143  1.037896  0.0  0.095269  0.108656  0.000332  1.043231  0.0
H  H13  1  0.03635360  0.07883963  0.06609836  1  0.105058  0.000423  0.968382  0.0  0.111085  0.000236  1.041087  0.0  0.114405  0.000143  1.037925  0.0  0.095319  0.108736  0.000332  1.043272  0.0
H  H14  1  0.36657750  0.48145347  0.94126723  1  0.11326  0.000585  0.971067  0.001  0.121931  0.000312  1.03815  0.0  0.124739  0.000185  1.035831  0.0  0.096135  0.119836  0.000429  1.03992  0.001
H  H15  1  0.63342663  0.51854795  0.05873238  1  0.113256  0.000584  0.971074  0.001  0.12193  0.000312  1.038155  0.0  0.124738  0.000185  1.03583  0.0  0.096138  0.119834  0.000429  1.039926  0.001
H  H16  1  0.37759499  0.34296657  0.53441778  1  0.424163  -0.000143  0.865049  0.0  0.395855  0.000384  0.937991  0.001  0.405929  0.000262  0.923535  0.001  0.302195  0.38858  0.000473  0.947574  0.001
H  H17  1  0.62240064  0.65703349  0.46558327  1  0.424151  -0.000144  0.865068  0.0  0.395841  0.000384  0.938012  0.001  0.405915  0.000262  0.923554  0.001  0.302185  0.388563  0.000473  0.94759  0.001
H  H18  1  0.66256916  0.32493909  0.57896888  1  0.440045  -0.000279  0.844917  0.0  0.415315  0.000193  0.904237  0.001  0.426702  6.7e-05  0.887972  0.0  0.306776  0.407299  0.000299  0.915662  0.001
H  H19  1  0.33742800  0.67505964  0.42103160  1  0.440018  -0.000278  0.844958  0.0  0.415267  0.000193  0.904308  0.001  0.426655  6.7e-05  0.88804  0.0  0.306746  0.407251  0.000299  0.915731  0.001
C  C20  1  0.34619396  0.91832211  0.69889451  1  0.068875  0.003304  3.655796  0.003  0.014367  0.002866  3.917142  0.002  0.020747  0.00158  3.930807  0.001  -0.06481  0.010631  0.003808  3.907556  0.003
C  C21  1  0.65380568  0.08167797  0.30110550  1  0.068964  0.003306  3.655745  0.003  0.014444  0.002865  3.917068  0.002  0.020819  0.00158  3.930741  0.001  -0.064807  0.010718  0.003808  3.907468  0.003
C  C22  1  0.32001904  0.95155334  0.61032473  1  -0.356664  -3.7e-05  3.594254  0.001  -0.388711  0.000353  3.84564  0.001  -0.396104  7.7e-05  3.851108  0.001  -0.160221  -0.383632  0.00066  3.842037  0.001
C  C23  1  0.67997660  0.04844672  0.38967513  1  -0.356706  -4.1e-05  3.594215  0.001  -0.388718  0.000353  3.845605  0.001  -0.396107  7.7e-05  3.851074  0.001  -0.160196  -0.383653  0.00066  3.842015  0.001
C  C24  1  0.67470630  0.83248833  0.79176995  1  0.161432  -0.028183  3.705593  -0.018  0.123487  -0.010344  3.968787  -0.006  0.145933  -0.012014  3.978693  -0.007  0.073022  0.108311  -0.009009  3.962249  -0.005
C  C25  1  0.32529628  0.16751443  0.20823022  1  0.161338  -0.028165  3.705667  -0.018  0.12342  -0.010343  3.968869  -0.006  0.145866  -0.012011  3.978773  -0.007  0.072983  0.10825  -0.009008  3.962317  -0.005
C  C26  1  0.90329687  0.57394104  0.79102954  1  0.282549  -0.010518  3.873701  -0.011  0.265115  -0.00206  4.145243  -0.003  0.287652  -0.003034  4.161531  -0.003  0.088727  0.250173  -0.00105  4.133348  -0.003
C  C27  1  0.09670525  0.42606037  0.20897059  1  0.282527  -0.010504  3.873856  -0.011  0.265116  -0.002061  4.145404  -0.003  0.287654  -0.003032  4.161683  -0.003  0.088731  0.250169  -0.001049  4.133507  -0.003
C  C28  1  0.85858611  0.73310212  0.82935929  1  -0.092888  0.006371  3.810436  0.009  -0.075881  0.002823  4.055316  0.005  -0.092747  0.001607  4.083574  0.004  -0.038196  -0.06478  0.003974  4.03625  0.006
C  C29  1  0.14141648  0.26690064  0.17064029  1  -0.092819  0.006363  3.810418  0.009  -0.075878  0.002825  4.055375  0.005  -0.092744  0.001606  4.083635  0.004  -0.03819  -0.064777  0.003974  4.036302  0.006
C  C30  1  0.17955982  0.71010527  0.94588317  1  0.116461  -9.7e-05  3.822717  0.0  0.12973  -0.000817  4.094881  0.0  0.126836  -0.000575  4.118896  0.0  -0.009732  0.131152  -0.000915  4.078858  0.0
C  C31  1  0.82044477  0.28989749  0.05411648  1  0.11659  -0.000113  3.822558  0.0  0.129916  -0.000816  4.094628  0.0  0.127022  -0.000578  4.118643  0.0  -0.009636  0.131341  -0.000915  4.078602  0.0
C  C32  1  0.99941979  0.79913836  0.90651141  1  -0.145829  -0.006724  3.749833  -0.004  -0.183524  -0.002395  4.008501  -0.001  -0.179479  -0.002529  4.028819  -0.001  -0.100538  -0.185859  -0.002266  3.994736  -0.001
C  C33  1  0.00058187  0.20086173  0.09348749  1  -0.145981  -0.006698  3.749909  -0.004  -0.18368  -0.002396  4.008557  -0.001  -0.179647  -0.002527  4.028873  -0.001  -0.100619  -0.186015  -0.002266  3.99479  -0.001
C  C34  1  0.09084839  0.48715812  0.83522406  1  0.027722  0.012913  3.765992  0.015  0.036977  0.006897  4.039294  0.009  0.03268  0.004792  4.05849  0.007  -0.003781  0.039292  0.00864  4.026671  0.011
C  C35  1  0.90915526  0.51284197  0.16477550  1  0.027709  0.012897  3.766023  0.015  0.036941  0.006899  4.039355  0.009  0.032646  0.00479  4.058549  0.007  -0.003792  0.039262  0.008641  4.026723  0.011
C  C36  1  0.22598045  0.55271120  0.91041802  1  -0.156409  -0.00688  3.772006  -0.004  -0.191958  -0.002037  4.025354  -0.001  -0.189624  -0.002445  4.045486  -0.001  -0.10137  -0.193086  -0.001774  4.011927  0.0
C  C37  1  0.77402167  0.44729022  0.08958092  1  -0.156459  -0.006856  3.771979  -0.004  -0.192037  -0.002039  4.025355  -0.001  -0.189707  -0.002441  4.045492  -0.001  -0.101439  -0.193162  -0.001774  4.011903  0.0
S  S38  1  0.10379126  0.76883707  0.54831997  1  1.379481  0.000776  5.469256  -0.001  1.287149  0.002773  5.989944  0.001  1.335942  0.001702  5.967186  0.001  0.525351  1.253451  0.003842  6.003869  0.001
S  S39  1  0.89620390  0.23116166  0.45168045  1  1.379587  0.000774  5.469049  -0.001  1.287323  0.002773  5.989673  0.001  1.336116  0.001702  5.966905  0.001  0.525397  1.253615  0.003841  6.003617  0.001
N  N40  1  0.52380687  0.79592879  0.72211154  1  -0.348143  0.091034  3.236056  0.119  -0.309699  0.056636  3.562663  0.078  -0.343606  0.045799  3.577034  0.068  -0.376085  -0.288779  0.062839  3.554206  0.082
N  N41  1  0.47619124  0.20407262  0.27788785  1  -0.348137  0.091023  3.236121  0.118  -0.30971  0.056636  3.562723  0.078  -0.343612  0.045797  3.577097  0.068  -0.376072  -0.288798  0.06284  3.55428  0.082
Cl  Cl42  1  0.14510080  0.29395745  0.79079278  1  -0.063659  0.000484  1.374128  0.0  -0.052091  0.000429  1.612357  0.0  -0.054666  -3.6e-05  1.605109  0.0  0.007631  -0.050181  0.000965  1.617671  0.0
Cl  Cl43  1  0.85490084  0.70604263  0.20920789  1  -0.063656  0.000484  1.374097  0.0  -0.052078  0.000429  1.612338  0.0  -0.054653  -3.7e-05  1.605086  0.0  0.007619  -0.050179  0.000964  1.617641  0.0
Cl  Cl44  1  0.35517366  0.78937497  0.04040371  1  -0.109832  0.000551  1.384876  0.0  -0.092904  0.000499  1.626581  0.0  -0.098067  0.000334  1.62394  0.0  -0.003861  -0.089179  0.000695  1.628613  0.0
Cl  Cl45  1  0.64483094  0.21062779  0.95959534  1  -0.109831  0.000549  1.384808  0.0  -0.092918  0.000499  1.626485  0.0  -0.098081  0.000334  1.623845  0.0  -0.003856  -0.089196  0.000695  1.628525  0.0
O  O46  1  0.81603879  0.75748421  0.56184517  1  -0.705254  0.00512  2.016175  0.009  -0.66177  0.003061  2.294685  0.006  -0.68517  0.001338  2.276757  0.004  -0.340651  -0.644545  0.004834  2.306334  0.008
O  O47  1  0.18395836  0.24251452  0.43815650  1  -0.705357  0.005123  2.016174  0.009  -0.661856  0.003062  2.294592  0.006  -0.685248  0.001339  2.276659  0.004  -0.340666  -0.644631  0.004834  2.306251  0.008
O  O48  1  0.14447123  0.80239758  0.46507447  1  -0.650818  0.003575  1.948339  0.005  -0.586206  0.002685  2.174445  0.004  -0.608487  0.001831  2.16145  0.003  -0.324711  -0.570752  0.003497  2.183224  0.005
O  O49  1  0.85551944  0.19759980  0.53492634  1  -0.650815  0.003576  1.948175  0.005  -0.586307  0.002686  2.174343  0.004  -0.608592  0.00183  2.161353  0.003  -0.324752  -0.570827  0.003497  2.183106  0.005
O  O50  1  0.19449097  0.60673744  0.57512608  1  -0.679929  0.045337  2.084221  0.062  -0.639718  0.032412  2.392975  0.047  -0.669333  0.025062  2.372683  0.039  -0.359502  -0.618625  0.037683  2.406365  0.052
O  O51  1  0.80550820  0.39326130  0.42487447  1  -0.679934  0.04533  2.084233  0.062  -0.639743  0.032411  2.392957  0.047  -0.669352  0.025063  2.372663  0.039  -0.359486  -0.618652  0.037681  2.406371  0.052
O  O52  1  0.49106491  0.36261727  0.58757422  1  -0.793358  0.046803  2.00219  0.064  -0.75577  0.035043  2.238321  0.051  -0.783629  0.028196  2.201886  0.045  -0.584354  -0.73596  0.039395  2.263181  0.055
O  O53  1  0.50893272  0.63738279  0.41242691  1  -0.793319  0.046803  2.002234  0.064  -0.755745  0.035043  2.238401  0.051  -0.7836  0.028196  2.201965  0.045  -0.584317  -0.735925  0.039393  2.263258  0.055
O  O54  1  0.78980328  0.50676025  0.72011477  1  -0.515103  0.117283  2.158913  0.163  -0.512574  0.072386  2.470166  0.111  -0.558566  0.052087  2.468453  0.087  -0.324876  -0.48127  0.086418  2.470638  0.125
O  O55  1  0.21019637  0.49323983  0.27988464  1  -0.515092  0.117287  2.158958  0.163  -0.512561  0.072385  2.470181  0.111  -0.558551  0.052086  2.468473  0.087  -0.324862  -0.48125  0.086423  2.470647  0.125
