# generated using pymatgen
data_CuH6C7(NO)3
_symmetry_space_group_name_H-M   'P 1'
_cell_length_a   10.04195548
_cell_length_b   10.04195720
_cell_length_c   16.43663504
_cell_angle_alpha   90.00007035
_cell_angle_beta   89.99994447
_cell_angle_gamma   120.00026259
_symmetry_Int_Tables_number   1
_chemical_formula_structural   CuH6C7(NO)3
_chemical_formula_sum   'Cu6 H36 C42 N18 O18'
_cell_volume   1435.42019448
_cell_formula_units_Z   6
loop_
 _symmetry_equiv_pos_site_id
 _symmetry_equiv_pos_as_xyz
  1  'x, y, z'
loop_
 _atom_site_type_symbol
 _atom_site_label
 _atom_site_symmetry_multiplicity
 _atom_site_fract_x
 _atom_site_fract_y
 _atom_site_fract_z
 _atom_site_occupancy
 _atom_site_pbe_bader_charge
 _atom_site_pbe_bader_spin_density
 _atom_site_pbe_cm5_charge
 _atom_site_pbe_ddec_charge
 _atom_site_pbe_ddec_spin_density
 _atom_site_pbe_ddec_sum_bond_order
 _atom_site_pbe_magmom
Cu  Cu0  1  0.84882618  0.24620794  0.02654177  1  1.039691  0.568  0.740234  0.745397  0.724751  2.245783  0.569
Cu  Cu1  1  0.75379039  0.60262019  0.35987537  1  1.039305  0.568007  0.740209  0.745381  0.724751  2.24578  0.569
Cu  Cu2  1  0.39738381  0.15117117  0.69321117  1  1.041574  0.568013  0.740234  0.745381  0.724757  2.245826  0.569
Cu  Cu3  1  0.60262028  0.75379037  0.64012383  1  1.03932  0.568007  0.740225  0.745415  0.724753  2.245764  0.569
Cu  Cu4  1  0.15117205  0.39738468  0.30678918  1  1.041577  0.568014  0.740234  0.745417  0.724757  2.245783  0.569
Cu  Cu5  1  0.24620765  0.84882466  0.97345740  1  1.039592  0.568  0.740226  0.74541  0.724754  2.245759  0.569
H  H6  1  0.85682685  0.33349215  0.72722110  1  0.543927  0.000573  0.309538  0.285175  0.000439  1.003672  0.001
H  H7  1  0.66650849  0.52333416  0.06055558  1  0.545596  0.000574  0.309546  0.285196  0.000439  1.003666  0.001
H  H8  1  0.47666386  0.14317422  0.39389015  1  0.567553  0.000536  0.309571  0.285237  0.000439  1.0036  0.001
H  H9  1  0.52333594  0.66650902  0.93944421  1  0.545483  0.000574  0.309562  0.285203  0.000439  1.003642  0.001
H  H10  1  0.14317422  0.47666383  0.60611021  1  0.567548  0.000536  0.309579  0.285245  0.000439  1.003573  0.001
H  H11  1  0.33349143  0.85682720  0.27277868  1  0.543925  0.000573  0.309554  0.285198  0.000439  1.003637  0.001
H  H12  1  0.69710418  0.23393567  0.85051582  1  0.123623  0.000383  0.136299  0.103872  1.5e-05  1.012059  0.0
H  H13  1  0.76606441  0.46316920  0.18385023  1  0.150023  0.000376  0.136296  0.103855  1.5e-05  1.012089  0.0
H  H14  1  0.53683303  0.30289737  0.51718428  1  0.1755  0.000364  0.136285  0.103877  1.5e-05  1.012008  0.0
H  H15  1  0.46316776  0.76606402  0.81615017  1  0.150016  0.000376  0.13629  0.103855  1.5e-05  1.012061  0.0
H  H16  1  0.30289735  0.53683296  0.48281548  1  0.1755  0.000364  0.136279  0.103869  1.5e-05  1.012006  0.0
H  H17  1  0.23393364  0.69709978  0.14948456  1  0.12394  0.000383  0.136299  0.103857  1.5e-05  1.012077  0.0
H  H18  1  0.14649335  0.41121719  0.75631124  1  0.165039  0.000983  0.121667  0.135088  0.000461  1.027004  0.001
H  H19  1  0.58878413  0.73527588  0.08964375  1  0.162991  0.000975  0.121651  0.135096  0.000461  1.027017  0.001
H  H20  1  0.26472275  0.85350611  0.42297915  1  0.162693  0.000974  0.121665  0.135087  0.000461  1.027023  0.001
H  H21  1  0.73527713  0.58878527  0.91035483  1  0.163011  0.000975  0.121666  0.135125  0.000461  1.027002  0.001
H  H22  1  0.85350628  0.26472284  0.57702063  1  0.162693  0.000974  0.121665  0.13509  0.000461  1.027023  0.001
H  H23  1  0.41121699  0.14649543  0.24368911  1  0.16505  0.000983  0.121658  0.135116  0.000461  1.026962  0.001
H  H24  1  0.28706918  0.39665326  0.89832140  1  0.065551  8.9e-05  0.106018  0.118603  8e-06  0.982621  0.0
H  H25  1  0.60334603  0.89041470  0.23165524  1  0.057113  9e-05  0.106033  0.118627  8e-06  0.98258  0.0
H  H26  1  0.10958429  0.71293215  0.56498997  1  0.061282  8.9e-05  0.106029  0.118628  8e-06  0.982633  0.0
H  H27  1  0.89041278  0.60334628  0.76834458  1  0.057109  9e-05  0.106011  0.118604  8e-06  0.982602  0.0
H  H28  1  0.71293125  0.10958334  0.43501040  1  0.061282  8.9e-05  0.106029  0.118636  8e-06  0.982625  0.0
H  H29  1  0.39665228  0.28706587  0.10167895  1  0.065562  8.8e-05  0.106033  0.118627  8e-06  0.982623  0.0
H  H30  1  0.15712512  0.22099831  0.94582502  1  0.066854  0.000318  0.102064  0.111999  8.9e-05  0.988314  0.0
H  H31  1  0.77900044  0.93612644  0.27915884  1  0.071529  0.000318  0.102071  0.111995  8.9e-05  0.988361  0.0
H  H32  1  0.06387702  0.84287632  0.61249489  1  0.051294  0.000326  0.102085  0.111977  8.9e-05  0.988357  0.0
H  H33  1  0.93612820  0.77900091  0.72084099  1  0.071537  0.000318  0.10208  0.111993  8.9e-05  0.988335  0.0
H  H34  1  0.84287643  0.06387707  0.38750488  1  0.051285  0.000326  0.102078  0.111971  8.9e-05  0.988368  0.0
H  H35  1  0.22099756  0.15712552  0.05417410  1  0.066361  0.00032  0.10207  0.111987  8.9e-05  0.98835  0.0
H  H36  1  0.29695606  0.42116782  0.04776836  1  0.087481  0.008593  0.113562  0.076951  0.004721  0.997509  0.005
H  H37  1  0.57883154  0.87578931  0.38110189  1  0.087746  0.008596  0.11356  0.076922  0.004721  0.997487  0.005
H  H38  1  0.12421127  0.70303938  0.71443539  1  0.061614  0.008717  0.113572  0.076959  0.004721  0.997502  0.005
H  H39  1  0.87578947  0.57883158  0.61889853  1  0.087748  0.008596  0.113552  0.076944  0.004721  0.997502  0.005
H  H40  1  0.70303942  0.12421126  0.28556437  1  0.061611  0.008717  0.113579  0.076953  0.004721  0.997493  0.005
H  H41  1  0.42116805  0.29695625  0.95223260  1  0.087504  0.008593  0.113552  0.076962  0.004721  0.997507  0.005
C  C42  1  0.81823241  0.27000652  0.84894065  1  1.030184  0.001431  0.14609  0.168845  0.000857  3.920197  0.002
C  C43  1  0.72999384  0.54822642  0.18227452  1  1.016792  0.001404  0.146094  0.168889  0.000857  3.920154  0.002
C  C44  1  0.45177552  0.18176716  0.51560912  1  0.990696  0.0014  0.146133  0.1689  0.000857  3.92002  0.002
C  C45  1  0.54822699  0.72999546  0.81772527  1  1.01678  0.001404  0.146084  0.16888  0.000857  3.920139  0.002
C  C46  1  0.18176712  0.45177545  0.48439123  1  0.990674  0.001401  0.146127  0.168899  0.000857  3.920048  0.002
C  C47  1  0.27000491  0.81822957  0.15105913  1  1.028974  0.001432  0.146086  0.168864  0.000857  3.920222  0.002
C  C48  1  0.05357633  0.36149412  0.80028619  1  0.348806  0.006802  -0.000926  -0.108513  0.004637  3.888351  0.005
C  C49  1  0.63850782  0.69208286  0.13361988  1  0.35888  0.006794  -0.000913  -0.108556  0.004636  3.88844  0.005
C  C50  1  0.30791473  0.94642561  0.46695533  1  0.339926  0.006822  -0.000937  -0.108567  0.004636  3.88843  0.005
C  C51  1  0.69208392  0.63851107  0.86637992  1  0.3589  0.006794  -0.000929  -0.108604  0.004636  3.888522  0.005
C  C52  1  0.94642578  0.30791480  0.53304507  1  0.339845  0.006823  -0.000943  -0.108594  0.004637  3.888432  0.005
C  C53  1  0.36148850  0.05357185  0.19971415  1  0.348826  0.006801  -0.000944  -0.10862  0.004636  3.88851  0.005
C  C54  1  0.05253184  0.32769670  0.88155646  1  0.401469  0.001194  0.07445  0.178939  0.000523  4.002893  0.001
C  C55  1  0.67230080  0.72483299  0.21489016  1  0.379728  0.001228  0.074438  0.178972  0.000523  4.002976  0.001
C  C56  1  0.27516703  0.94746823  0.54822563  1  0.403931  0.001186  0.074488  0.17911  0.000523  4.002939  0.001
C  C57  1  0.72483360  0.67230244  0.78510903  1  0.379729  0.001228  0.074426  0.17897  0.000523  4.002984  0.001
C  C58  1  0.94746837  0.27516708  0.45177417  1  0.404023  0.001186  0.074494  0.179144  0.000523  4.002926  0.001
C  C59  1  0.32769617  0.05253016  0.11844509  1  0.40158  0.001194  0.074479  0.179044  0.000524  4.002965  0.001
C  C60  1  0.17921332  0.33801899  0.93294772  1  -0.026394  0.003576  -0.148219  -0.2443  0.002187  3.943381  0.003
C  C61  1  0.66198011  0.84119519  0.26628090  1  -0.018442  0.003571  -0.148229  -0.244331  0.002188  3.94334  0.003
C  C62  1  0.15880518  0.82078287  0.59961569  1  -0.011159  0.003566  -0.148228  -0.244303  0.002188  3.943415  0.003
C  C63  1  0.84119481  0.66198075  0.73371830  1  -0.018444  0.003571  -0.148206  -0.244245  0.002188  3.943387  0.003
C  C64  1  0.82078355  0.15880464  0.40038408  1  -0.011155  0.003566  -0.148237  -0.244348  0.002187  3.943419  0.003
C  C65  1  0.33801727  0.17921274  0.06705262  1  -0.026394  0.003576  -0.148218  -0.244296  0.002187  3.943364  0.003
C  C66  1  0.20048332  0.41980462  0.01532258  1  0.321333  0.012081  0.00647  0.03678  0.009164  3.88224  0.008
C  C67  1  0.58019527  0.78067854  0.34865664  1  0.315143  0.012124  0.006522  0.036907  0.009164  3.88203  0.008
C  C68  1  0.21932346  0.79951412  0.68199141  1  0.353408  0.011945  0.006456  0.036771  0.009162  3.882022  0.008
C  C69  1  0.78067869  0.58019531  0.65134377  1  0.315127  0.012124  0.006512  0.036796  0.009163  3.882229  0.008
C  C70  1  0.79951475  0.21932287  0.31800837  1  0.353408  0.011948  0.006455  0.036819  0.009164  3.882005  0.008
C  C71  1  0.41980587  0.20048454  0.98467838  1  0.321322  0.012081  0.006533  0.036785  0.009164  3.88224  0.008
C  C72  1  0.07581782  0.35153489  0.14451144  1  1.402206  -0.000572  0.207709  0.35556  -0.000469  4.190739  0.001
C  C73  1  0.64846972  0.72428835  0.47784606  1  1.370004  -0.000585  0.207777  0.355504  -0.000469  4.190794  0.001
C  C74  1  0.27571405  0.92417866  0.81118029  1  1.369484  -0.00061  0.207683  0.35537  -0.000469  4.190872  0.001
C  C75  1  0.72429057  0.64846954  0.52215313  1  1.403233  -0.000553  0.207765  0.355575  -0.000469  4.190824  0.001
C  C76  1  0.92417769  0.27571299  0.18881950  1  1.369528  -0.000609  0.207669  0.355293  -0.000469  4.190932  0.001
C  C77  1  0.35153351  0.07581759  0.85548890  1  1.402448  -0.000573  0.207683  0.355461  -0.000469  4.190835  0.001
C  C78  1  0.25103979  0.59026769  0.00179857  1  1.571492  -0.001543  0.20692  0.564722  -0.002435  4.143808  -0.004
C  C79  1  0.40973156  0.66077136  0.33513016  1  1.577324  -0.001541  0.206867  0.564678  -0.002435  4.143845  -0.004
C  C80  1  0.33923013  0.74895877  0.66846486  1  1.578788  -0.001549  0.206893  0.564664  -0.002433  4.143826  -0.004
C  C81  1  0.66077209  0.40973106  0.66486962  1  1.577404  -0.001541  0.206863  0.564671  -0.002434  4.143835  -0.004
C  C82  1  0.74895881  0.33923009  0.33153553  1  1.578794  -0.001551  0.2069  0.564663  -0.002435  4.143763  -0.004
C  C83  1  0.59026798  0.25104003  0.99820180  1  1.571492  -0.001543  0.206882  0.564698  -0.002435  4.143801  -0.004
N  N84  1  0.90432508  0.27045315  0.91097887  1  -1.205372  0.095312  -0.381769  -0.355132  0.06276  3.607314  0.082
N  N85  1  0.72954341  0.63387176  0.24431341  1  -1.194145  0.095319  -0.381738  -0.355091  0.062759  3.607207  0.082
N  N86  1  0.36613122  0.09567334  0.57764858  1  -1.189692  0.095348  -0.381789  -0.355199  0.062758  3.607268  0.082
N  N87  1  0.63387332  0.72954601  0.75568700  1  -1.194177  0.095319  -0.381744  -0.355129  0.06276  3.607256  0.082
N  N88  1  0.09567384  0.36613057  0.42235176  1  -1.189691  0.095349  -0.381794  -0.35524  0.062759  3.607318  0.082
N  N89  1  0.27045276  0.90432690  0.08902152  1  -1.204623  0.095312  -0.381779  -0.355166  0.062761  3.607261  0.082
N  N90  1  0.90504066  0.32374314  0.78143170  1  -1.298971  0.00387  -0.380263  -0.199026  0.00184  3.701442  0.002
N  N91  1  0.67626000  0.58129882  0.11476560  1  -1.309311  0.003877  -0.380263  -0.199064  0.001839  3.701508  0.002
N  N92  1  0.41870104  0.09496012  0.44810075  1  -1.335773  0.003912  -0.380313  -0.19914  0.001839  3.70153  0.002
N  N93  1  0.58129902  0.67626009  0.88523419  1  -1.309252  0.003878  -0.380265  -0.19904  0.00184  3.701541  0.002
N  N94  1  0.09496009  0.41870100  0.55189959  1  -1.335784  0.003912  -0.380295  -0.199108  0.00184  3.701469  0.002
N  N95  1  0.32373998  0.90503741  0.21856810  1  -1.298985  0.003869  -0.380258  -0.199018  0.00184  3.701576  0.002
N  N96  1  0.06259024  0.34042644  0.06470070  1  -1.207745  0.100078  -0.404691  -0.425785  0.064813  3.564706  0.083
N  N97  1  0.65957344  0.72216496  0.39803593  1  -1.209118  0.100037  -0.404722  -0.425837  0.064815  3.564745  0.083
N  N98  1  0.27783815  0.93740816  0.73137077  1  -1.217173  0.100084  -0.404689  -0.425735  0.064814  3.564667  0.083
N  N99  1  0.72216308  0.65957144  0.60196449  1  -1.209075  0.100038  -0.404729  -0.425882  0.064816  3.564769  0.083
N  N100  1  0.93740764  0.27783870  0.26862963  1  -1.217208  0.100084  -0.404726  -0.425754  0.064815  3.564735  0.083
N  N101  1  0.34042567  0.06258947  0.93529963  1  -1.207728  0.100081  -0.40472  -0.425808  0.064815  3.564681  0.083
O  O102  1  0.14578202  0.62650317  0.99850810  1  -1.095858  0.100552  -0.319027  -0.500602  0.063774  2.298946  0.091
O  O103  1  0.37349509  0.51927883  0.33183869  1  -1.103096  0.100521  -0.319003  -0.500574  0.063776  2.298967  0.091
O  O104  1  0.48072400  0.85421662  0.66517404  1  -1.105632  0.100542  -0.319019  -0.500562  0.063774  2.298958  0.091
O  O105  1  0.51927838  0.37349573  0.66816169  1  -1.103089  0.100525  -0.31901  -0.500562  0.063778  2.298915  0.091
O  O106  1  0.85421667  0.48072394  0.33482637  1  -1.105633  0.100544  -0.319025  -0.500574  0.063776  2.298925  0.091
O  O107  1  0.62650364  0.14578129  0.00149227  1  -1.095924  0.100556  -0.319024  -0.500592  0.063778  2.298883  0.091
O  O108  1  0.39263922  0.68517533  0.99415862  1  -1.199242  0.002698  -0.320647  -0.576529  0.001011  2.228193  0.003
O  O109  1  0.31482353  0.70746348  0.32749300  1  -1.195262  0.002701  -0.320621  -0.576512  0.001011  2.228144  0.003
O  O110  1  0.29253737  0.60735881  0.66082518  1  -1.196305  0.002698  -0.320635  -0.576528  0.001011  2.228183  0.003
O  O111  1  0.70746308  0.31482421  0.67250739  1  -1.195347  0.002701  -0.320607  -0.576482  0.001011  2.22818  0.003
O  O112  1  0.60735940  0.29253675  0.33917458  1  -1.196299  0.002698  -0.320623  -0.576517  0.001011  2.228212  0.003
O  O113  1  0.68517521  0.39263902  0.00584116  1  -1.199249  0.002697  -0.320631  -0.576499  0.001011  2.228155  0.003
O  O114  1  0.20031919  0.42186686  0.18634177  1  -1.120275  0.0956  -0.315478  -0.472026  0.060847  2.293293  0.085
O  O115  1  0.57814279  0.77846298  0.51967583  1  -1.11943  0.095606  -0.315582  -0.472079  0.060848  2.293335  0.085
O  O116  1  0.22153925  0.79967644  0.85300999  1  -1.115426  0.095607  -0.315487  -0.471954  0.060847  2.293387  0.085
O  O117  1  0.77846107  0.57814077  0.48032397  1  -1.119464  0.095601  -0.315537  -0.472038  0.060845  2.293397  0.085
O  O118  1  0.79967627  0.22154131  0.14699039  1  -1.115464  0.095605  -0.315452  -0.471918  0.060846  2.293385  0.085
O  O119  1  0.42186662  0.20031778  0.81365798  1  -1.120504  0.0956  -0.315468  -0.471974  0.060847  2.293351  0.085
