# generated using pymatgen
data_AlH16C24NO8
_symmetry_space_group_name_H-M   'P 1'
_cell_length_a   6.61529187
_cell_length_b   16.91889970
_cell_length_c   26.80600963
_cell_angle_alpha   93.43366508
_cell_angle_beta   87.96099668
_cell_angle_gamma   90.49115710
_symmetry_Int_Tables_number   1
_chemical_formula_structural   AlH16C24NO8
_chemical_formula_sum   'Al4 H64 C96 N4 O32'
_cell_volume   2992.87675797
_cell_formula_units_Z   4
loop_
 _symmetry_equiv_pos_site_id
 _symmetry_equiv_pos_as_xyz
  1  'x, y, z'
loop_
 _atom_site_type_symbol
 _atom_site_label
 _atom_site_symmetry_multiplicity
 _atom_site_fract_x
 _atom_site_fract_y
 _atom_site_fract_z
 _atom_site_occupancy
 _atom_site_pbe_bader_charge
 _atom_site_pbe_bader_spin_density
 _atom_site_pbe_cm5_charge
 _atom_site_pbe_ddec_charge
 _atom_site_pbe_ddec_spin_density
 _atom_site_pbe_ddec_sum_bond_order
 _atom_site_pbe_magmom
Al  Al0  1  0.82564748  0.25409206  0.99931226  1  2.501352  0  0.395387  1.640746  0  2.59451  0
Al  Al1  1  0.17439432  0.74593596  0.00068740  1  2.50147  0  0.395396  1.640796  0  2.594323  0
Al  Al2  1  0.32577774  0.25058800  0.99972138  1  2.500383  0  0.395833  1.638649  0  2.596312  0
Al  Al3  1  0.67423892  0.74944124  0.00027007  1  2.500485  0  0.395736  1.638529  0  2.596414  0
H  H4  1  0.23185806  0.51049844  0.00303907  1  0.148008  0  0.124988  0.14753  0  0.96864  0
H  H5  1  0.76821046  0.48952130  0.99696611  1  0.095805  0  0.124895  0.147469  0  0.968784  0
H  H6  1  0.72423935  0.99690190  0.01403157  1  0.120278  0  0.118683  0.138259  0  0.97849  0
H  H7  1  0.27576752  0.00310420  0.98596550  1  0.120388  0  0.118793  0.138408  0  0.978441  0
H  H8  1  0.63081865  0.87951326  0.14011786  1  0.095571  0  0.109062  0.115182  0  0.99297  0
H  H9  1  0.36920005  0.12048626  0.85988171  1  0.09541  0  0.109133  0.1153  0  0.992879  0
H  H10  1  0.16373717  0.60756907  0.86456750  1  0.098383  0  0.111562  0.118625  0  0.994784  0
H  H11  1  0.83630094  0.39243934  0.13543759  1  0.097993  0  0.111636  0.118701  0  0.994591  0
H  H12  1  0.64065604  0.93242005  0.22971824  1  0.08817  0  0.115584  0.127346  0  0.966955  0
H  H13  1  0.35932690  0.06755092  0.77028958  1  0.088421  0  0.115537  0.127281  0  0.967031  0
H  H14  1  0.19563444  0.55510764  0.77478153  1  0.06583  0  0.114593  0.124665  0  0.967808  0
H  H15  1  0.80440026  0.44488030  0.22522489  1  0.065875  0  0.114618  0.124605  0  0.967896  0
H  H16  1  0.14341808  0.11437815  0.34234615  1  0.116155  0  0.117217  0.127968  0  0.996949  0
H  H17  1  0.85658321  0.88560523  0.65766139  1  0.115758  0  0.117097  0.127728  0  0.996937  0
H  H18  1  0.63875110  0.37319200  0.65178016  1  0.121353  0  0.115365  0.123842  0  1.017316  0
H  H19  1  0.36125222  0.62679902  0.34822138  1  0.121618  0  0.115414  0.124013  0  1.017329  0
H  H20  1  0.80558890  0.23930489  0.84380201  1  0.108155  0  0.110557  0.122838  0  1.021789  0
H  H21  1  0.19443442  0.76069374  0.15619607  1  0.107976  0  0.110501  0.122791  0  1.021709  0
H  H22  1  0.26410945  0.27350635  0.15137837  1  0.111631  0  0.114318  0.131501  0  1.014677  0
H  H23  1  0.73595066  0.72651246  0.84861674  1  0.111146  0  0.11436  0.131594  0  1.014566  0
H  H24  1  0.33875787  0.21107543  0.59206937  1  0.094155  0  0.109463  0.111628  0  1.020597  0
H  H25  1  0.66117559  0.78892767  0.40793946  1  0.094578  0  0.109442  0.111746  0  1.020483  0
H  H26  1  0.59019400  0.25867583  0.39755657  1  0.101417  0  0.112462  0.112108  0  0.996904  0
H  H27  1  0.40978516  0.74131443  0.60244436  1  0.101638  0  0.112412  0.112085  0  0.99681  0
H  H28  1  0.30977683  0.16949665  0.50272513  1  0.052047  0  0.09986  0.094692  0  1.06164  0
H  H29  1  0.69010377  0.83050618  0.49728284  1  0.053079  0  0.099855  0.094883  0  1.061508  0
H  H30  1  0.57287080  0.29355166  0.48695476  1  0.081746  0  0.097973  0.090119  0  1.09677  0
H  H31  1  0.42707219  0.70643753  0.51304413  1  0.081592  0  0.098053  0.090124  0  1.096795  0
H  H32  1  0.70322145  0.30928190  0.77098262  1  0.060527  0  0.102856  0.11106  0  0.978275  0
H  H33  1  0.54473301  0.23189644  0.79510192  1  0.054924  0  0.095822  0.096367  0  1.018171  0
H  H34  1  0.52670199  0.25565428  0.73160210  1  0.091349  0  0.106161  0.127756  0  1.008224  0
H  H35  1  0.45527987  0.76811040  0.20489583  1  0.055  0  0.095793  0.096386  0  1.018122  0
H  H36  1  0.29683239  0.69070220  0.22900809  1  0.060358  0  0.10289  0.111087  0  0.978033  0
H  H37  1  0.47330744  0.74433159  0.26839739  1  0.092114  0  0.106095  0.127703  0  1.008307  0
H  H38  1  0.13800875  0.20532458  0.22529387  1  0.078483  0  0.104066  0.109212  0  0.975296  0
H  H39  1  0.98689114  0.28078032  0.20028486  1  0.071441  0  0.098214  0.100436  0  1.014094  0
H  H40  1  0.95012375  0.25855938  0.26413231  1  0.095847  0  0.10644  0.125246  0  0.995952  0
H  H41  1  0.01313406  0.71921773  0.79970760  1  0.071738  0  0.098195  0.100434  0  1.01422  0
H  H42  1  0.86203644  0.79467364  0.77469359  1  0.079046  0  0.10408  0.109066  0  0.97551  0
H  H43  1  0.04987598  0.74143353  0.73585560  1  0.095441  0  0.106489  0.125308  0  0.995936  0
H  H44  1  0.18442817  0.23910751  0.35645858  1  0.047486  0  0.092249  0.127958  0  1.003077  0
H  H45  1  0.92777718  0.23037638  0.37722829  1  0.03437  0  0.087296  0.118638  0  1.022119  0
H  H46  1  0.08255355  0.30778638  0.40267240  1  0.063973  0  0.087147  0.120304  0  0.998009  0
H  H47  1  0.06364061  0.21451315  0.46651496  1  0.029306  0  0.091978  0.087877  0  0.995475  0
H  H48  1  0.30534447  0.20653560  0.43813547  1  0.019238  0  0.0917  0.08503  0  1.013764  0
H  H49  1  0.07218548  0.76960597  0.62276894  1  0.03491  0  0.087346  0.118713  0  1.022076  0
H  H50  1  0.81550884  0.76087710  0.64353828  1  0.047588  0  0.092235  0.127996  0  1.002913  0
H  H51  1  0.91745800  0.69220556  0.59731927  1  0.063608  0  0.087185  0.120442  0  0.997914  0
H  H52  1  0.69459416  0.79345672  0.56186142  1  0.018847  0  0.091755  0.085124  0  1.013351  0
H  H53  1  0.93629297  0.78548956  0.53349201  1  0.028715  0  0.091947  0.08806  0  0.995624  0
H  H54  1  0.90168023  0.29433263  0.62121082  1  0.061146  0  0.093325  0.131362  0  0.985833  0
H  H55  1  0.66054617  0.25183551  0.63504164  1  0.046061  0  0.092919  0.127813  0  1.008742  0
H  H56  1  0.82783892  0.20354230  0.59055494  1  0.012195  0  0.082895  0.114258  0  1.0306  0
H  H57  1  0.56025354  0.26527815  0.54745568  1  0.01238  0  0.093647  0.086348  0  1.011179  0
H  H58  1  0.79830497  0.30403469  0.53077385  1  0.027761  0  0.096259  0.094157  0  0.979718  0
H  H59  1  0.33947703  0.74815791  0.36495706  1  0.045779  0  0.092871  0.127706  0  1.008797  0
H  H60  1  0.09834190  0.70567551  0.37878457  1  0.061144  0  0.09332  0.131335  0  0.985975  0
H  H61  1  0.17216184  0.79645217  0.40944043  1  0.012281  0  0.082913  0.114238  0  1.030519  0
H  H62  1  0.20167915  0.69596661  0.46922317  1  0.027805  0  0.096291  0.094153  0  0.9798  0
H  H63  1  0.43975299  0.73471167  0.45254289  1  0.012596  0  0.09366  0.086323  0  1.011123  0
H  H64  1  0.58202562  0.27543908  0.93704658  1  0.628823  0  0.353464  0.431048  0  0.855093  0
H  H65  1  0.41805435  0.72459340  0.06294856  1  0.629112  0  0.353576  0.431194  0  0.85503  0
H  H66  1  0.06202403  0.17239941  0.03758813  1  0.611201  0  0.354858  0.433667  0  0.851314  0
H  H67  1  0.93804179  0.82762049  0.96241217  1  0.610914  0  0.35485  0.433645  0  0.851747  0
C  C68  1  0.56848145  0.29665831  0.08634286  1  1.577768  0  0.270856  0.639978  0  4.093938  0
C  C69  1  0.43155007  0.70336001  0.91365014  1  1.575929  0  0.270707  0.640226  0  4.093838  0
C  C70  1  0.08152866  0.21126888  0.91029836  1  1.583686  0  0.267968  0.646987  0  4.08841  0
C  C71  1  0.91851294  0.78875050  0.08970245  1  1.58258  0  0.268107  0.647072  0  4.088506  0
C  C72  1  0.56922624  0.11023158  0.00721443  1  1.570248  0  0.263976  0.676973  0  4.108703  0
C  C73  1  0.43083284  0.88979995  0.99277634  1  1.57004  0  0.263936  0.676984  0  4.109291  0
C  C74  1  0.08837814  0.39254486  0.99484202  1  1.526798  0  0.269076  0.679402  0  4.106721  0
C  C75  1  0.91164708  0.60749662  0.00515974  1  1.524436  0  0.269055  0.679286  0  4.107412  0
C  C76  1  0.08693608  0.47991089  0.99944828  1  0.051052  0  -0.065012  -0.171806  0  3.872216  0
C  C77  1  0.91309715  0.52012724  0.00056865  1  -0.008144  0  -0.064985  -0.172045  0  3.872561  0
C  C78  1  0.57972954  0.02291296  0.00595563  1  -0.101665  0  -0.068806  -0.170386  0  3.879213  0
C  C79  1  0.42030995  0.97711457  0.99403315  1  0.026672  0  -0.069278  -0.170717  0  3.87975  0
C  C80  1  0.02649744  0.97449400  0.30558081  1  1.326999  0  0.245436  0.446792  0  4.087016  0
C  C81  1  0.97347636  0.02548029  0.69442878  1  1.325709  0  0.245538  0.447247  0  4.086591  0
C  C82  1  0.54376373  0.51061555  0.69449329  1  1.347528  0  0.244974  0.443724  0  4.082655  0
C  C83  1  0.45622293  0.48937119  0.30550777  1  1.347525  0  0.245228  0.444296  0  4.082662  0
C  C84  1  0.83230980  0.85468028  0.32985518  1  1.318558  0  0.247604  0.446822  0  4.094451  0
C  C85  1  0.16761155  0.14530670  0.67015031  1  1.31793  0  0.247582  0.446824  0  4.094141  0
C  C86  1  0.44411286  0.64726714  0.67641144  1  1.349907  0  0.244582  0.440223  0  4.107033  0
C  C87  1  0.55589947  0.35272721  0.32359179  1  1.350159  0  0.244652  0.440555  0  4.10717  0
C  C88  1  0.07588859  0.82424651  0.22339266  1  0.50129  0  0.093663  0.197883  0  4.050185  0
C  C89  1  0.92411321  0.17574267  0.77660859  1  0.501444  0  0.093603  0.197644  0  4.049917  0
C  C90  1  0.63609680  0.66163530  0.78135661  1  0.500498  0  0.092212  0.193166  0  4.04777  0
C  C91  1  0.36395068  0.33836100  0.21864147  1  0.500907  0  0.092211  0.193249  0  4.048106  0
C  C92  1  0.07331995  0.79739234  0.17309969  1  -0.020472  0  -0.099487  -0.224508  0  3.968183  0
C  C93  1  0.92670491  0.20261056  0.82689894  1  -0.019988  0  -0.099472  -0.224443  0  3.968358  0
C  C94  1  0.61930480  0.68943093  0.83146098  1  0.022165  0  -0.096265  -0.219469  0  3.953189  0
C  C95  1  0.38074318  0.31058177  0.16853333  1  0.022014  0  -0.096187  -0.219529  0  3.95359  0
C  C96  1  0.75494345  0.86504553  0.16352777  1  -0.001005  0  -0.092642  -0.119837  0  4.005026  0
C  C97  1  0.24507657  0.13495461  0.83647478  1  -0.001126  0  -0.092848  -0.120117  0  4.005028  0
C  C98  1  0.29548355  0.62141094  0.84112322  1  -0.015215  0  -0.089088  -0.112151  0  4.002902  0
C  C99  1  0.70456780  0.37857944  0.15888339  1  -0.014632  0  -0.089148  -0.112129  0  4.003175  0
C  C100  1  0.76082829  0.89442796  0.21322858  1  0.01325  0  -0.078656  -0.128273  0  3.992682  0
C  C101  1  0.23918568  0.10556969  0.78677335  1  0.014205  0  -0.078644  -0.128282  0  3.992974  0
C  C102  1  0.31360448  0.59242122  0.79142898  1  0.018222  0  -0.079922  -0.132094  0  3.99985  0
C  C103  1  0.68642726  0.40757083  0.20857727  1  0.017854  0  -0.079828  -0.131863  0  4.00015  0
C  C104  1  0.91867368  0.87421196  0.24275136  1  0.307556  0  0.081623  0.088389  0  4.004014  0
C  C105  1  0.08132654  0.12576560  0.75724817  1  0.306217  0  0.081453  0.088306  0  4.00398  0
C  C106  1  0.48006257  0.61309614  0.76173862  1  0.365633  0  0.081954  0.09084  0  3.999552  0
C  C107  1  0.51994700  0.38690854  0.23826301  1  0.365508  0  0.081851  0.090506  0  3.999893  0
C  C108  1  0.95354361  0.95315427  0.39677710  1  -0.036215  0  0.000486  0.028702  0  4.024185  0
C  C109  1  0.04639319  0.04683973  0.60322499  1  -0.035135  0  0.000727  0.029355  0  4.023163  0
C  C110  1  0.49842658  0.54436364  0.60489342  1  -0.052221  0  0.001569  0.033324  0  4.014223  0
C  C111  1  0.50155572  0.45562498  0.39510531  1  -0.05199  0  0.001627  0.033688  0  4.013811  0
C  C112  1  0.03090902  0.00126517  0.35916960  1  -0.035718  0  -0.011338  -0.066715  0  4.024763  0
C  C113  1  0.96904090  0.99872112  0.64083804  1  -0.034573  0  -0.011475  -0.067407  0  4.024477  0
C  C114  1  0.54330223  0.48886942  0.64004864  1  0.003633  0  -0.012405  -0.066894  0  4.030735  0
C  C115  1  0.45665418  0.51111297  0.35995163  1  0.002999  0  -0.01246  -0.067201  0  4.03115  0
C  C116  1  0.10003155  0.07662938  0.37250548  1  -0.015185  0  -0.068824  -0.11903  0  3.927318  0
C  C117  1  0.89993978  0.92334930  0.62749676  1  -0.01595  0  -0.068704  -0.118502  0  3.926789  0
C  C118  1  0.59828900  0.41305298  0.62345291  1  -0.061688  0  -0.071893  -0.122222  0  3.941966  0
C  C119  1  0.40169488  0.58693357  0.37654440  1  -0.061777  0  -0.071855  -0.122251  0  3.942006  0
C  C120  1  0.84754546  0.88284690  0.38278866  1  -0.059143  0  -0.010091  -0.068068  0  4.020635  0
C  C121  1  0.15237008  0.11715608  0.61721688  1  -0.059286  0  -0.010236  -0.068516  0  4.020556  0
C  C122  1  0.45703685  0.62320270  0.62261427  1  0.00975  0  -0.010825  -0.069934  0  4.021276  0
C  C123  1  0.54294655  0.37678542  0.37739051  1  0.009811  0  -0.010988  -0.070442  0  4.021596  0
C  C124  1  0.91336107  0.81749308  0.14352077  1  -0.008379  0  -0.012946  -0.014543  0  4.004014  0
C  C125  1  0.08666218  0.18250887  0.85647904  1  -0.008553  0  -0.01272  -0.014261  0  4.003677  0
C  C126  1  0.44845307  0.67022921  0.86082700  1  -0.044292  0  -0.011485  -0.018501  0  3.999747  0
C  C127  1  0.55157972  0.32978430  0.13916848  1  -0.045387  0  -0.0116  -0.018257  0  3.999795  0
C  C128  1  0.10263345  0.07261069  0.51422540  1  -0.040639  0  0.001781  0.044738  0  3.963481  0
C  C129  1  0.89723824  0.92738291  0.48577813  1  -0.039766  0  0.001672  0.044756  0  3.963425  0
C  C130  1  0.53889465  0.41954963  0.48226627  1  -0.116418  0  0.003026  0.049926  0  3.941174  0
C  C131  1  0.46104218  0.58044738  0.51773606  1  -0.116544  0  0.003088  0.050001  0  3.941518  0
C  C132  1  0.93167233  0.94688051  0.53875321  1  0.015461  0  0.000144  -0.022867  0  3.918723  0
C  C133  1  0.06821160  0.05311264  0.46124803  1  0.016379  0  6.4e-05  -0.023156  0  3.918473  0
C  C134  1  0.45211700  0.55975147  0.46381944  1  0.061529  0  0.002085  -0.022791  0  3.894009  0
C  C135  1  0.54782590  0.44024488  0.53618251  1  0.061783  0  0.001954  -0.022839  0  3.893856  0
C  C136  1  0.02216223  0.02249105  0.55170253  1  0.026096  0  0.00106  -0.001722  0  3.922093  0
C  C137  1  0.97772935  0.97750304  0.44829751  1  0.025914  0  0.001458  -0.001004  0  3.921324  0
C  C138  1  0.49964042  0.47918551  0.44751978  1  -0.024918  0  0.002438  -0.002629  0  3.901045  0
C  C139  1  0.50030863  0.52081112  0.55248062  1  -0.024899  0  0.002484  -0.002618  0  3.901533  0
C  C140  1  0.22556864  0.13680016  0.53019816  1  -0.074986  0  -0.08994  -0.13488  0  3.992357  0
C  C141  1  0.77434669  0.86318674  0.46980698  1  -0.077495  0  -0.089966  -0.135324  0  3.992972  0
C  C142  1  0.56147544  0.34119041  0.46238178  1  0.052798  0  -0.094285  -0.141638  0  3.998907  0
C  C143  1  0.43847932  0.65880606  0.53762349  1  0.053085  0  -0.094291  -0.141502  0  3.999312  0
C  C144  1  0.24823728  0.15953760  0.58053139  1  0.057789  0  -0.077037  -0.082489  0  4.003933  0
C  C145  1  0.75171141  0.84045710  0.41947400  1  0.058218  0  -0.077107  -0.082696  0  4.004757  0
C  C146  1  0.56751998  0.31994389  0.41140940  1  -0.097388  0  -0.074914  -0.074387  0  4.023909  0
C  C147  1  0.43244234  0.68004389  0.58859398  1  -0.09735  0  -0.075054  -0.07466  0  4.024323  0
C  C148  1  0.10804016  0.10594916  0.42262834  1  0.028134  0  0.003796  0.085883  0  3.864409  0
C  C149  1  0.89189209  0.89403614  0.57737191  1  0.02839  0  0.003816  0.085648  0  3.86461  0
C  C150  1  0.60596559  0.38712496  0.57270671  1  0.034579  0  0.004155  0.084974  0  3.849882  0
C  C151  1  0.39401525  0.61286785  0.42729222  1  0.03481  0  0.004071  0.084859  0  3.84993  0
C  C152  1  0.63066681  0.25160553  0.76215713  1  0.369297  0  -0.137548  -0.175897  0  3.866149  0
C  C153  1  0.36935062  0.74839196  0.23783839  1  0.368604  0  -0.137482  -0.175921  0  3.866028  0
C  C154  1  0.06308065  0.26271817  0.23354343  1  0.333793  0  -0.135784  -0.173616  0  3.87707  0
C  C155  1  0.93695949  0.73727926  0.76645162  1  0.333142  0  -0.13578  -0.173463  0  3.877169  0
C  C156  1  0.14434221  0.19427813  0.43150794  1  0.00275  0  -0.160202  -0.144424  0  3.972962  0
C  C157  1  0.08107795  0.24508858  0.38939630  1  -0.091693  0  -0.245839  -0.360978  0  3.947627  0
C  C158  1  0.85561995  0.80570770  0.56849741  1  0.003765  0  -0.160116  -0.144567  0  3.973069  0
C  C159  1  0.91890121  0.75490043  0.61060431  1  -0.092349  0  -0.245944  -0.36125  0  3.947722  0
C  C160  1  0.68397212  0.30340318  0.56170880  1  0.010604  0  -0.156695  -0.140359  0  3.968217  0
C  C161  1  0.77298372  0.26188546  0.60490060  1  -0.076353  0  -0.24638  -0.365792  0  3.949634  0
C  C162  1  0.31602227  0.69658863  0.43829086  1  0.010436  0  -0.156609  -0.140055  0  3.96805  0
C  C163  1  0.22703947  0.73811047  0.39509873  1  -0.076009  0  -0.246432  -0.365823  0  3.949668  0
N  N164  1  0.92209711  0.90287051  0.29436653  1  -1.174323  0  -0.228627  -0.209056  0  3.618294  0
N  N165  1  0.07788489  0.09710668  0.70563424  1  -1.173619  0  -0.228511  -0.208917  0  3.61845  0
N  N166  1  0.48832504  0.58898979  0.70935798  1  -1.207815  0  -0.227843  -0.205458  0  3.626033  0
N  N167  1  0.51171300  0.41100767  0.29064573  1  -1.208029  0  -0.227882  -0.20555  0  3.626178  0
O  O168  1  0.39697457  0.14096199  0.00177588  1  -1.257889  0  -0.236724  -0.600014  0  2.342047  0
O  O169  1  0.60306927  0.85906491  0.99821555  1  -1.258199  0  -0.236645  -0.599977  0  2.342152  0
O  O170  1  0.92198382  0.35669583  0.98662713  1  -1.26412  0  -0.234246  -0.595613  0  2.34645  0
O  O171  1  0.07807131  0.64333498  0.01337724  1  -1.263328  0  -0.234241  -0.595543  0  2.346369  0
O  O172  1  0.74244663  0.29662914  0.06450765  1  -1.257237  0  -0.230915  -0.579353  0  2.333048  0
O  O173  1  0.25759603  0.70337427  0.93549615  1  -1.256439  0  -0.230897  -0.579353  0  2.332883  0
O  O174  1  0.24966088  0.22725249  0.93056526  1  -1.264626  0  -0.239892  -0.603791  0  2.327022  0
O  O175  1  0.75039038  0.77278173  0.06942994  1  -1.264201  0  -0.240009  -0.603865  0  2.326917  0
O  O176  1  0.73599187  0.14748323  0.01331062  1  -1.253316  0  -0.238116  -0.602262  0  2.304927  0
O  O177  1  0.26404964  0.85254951  0.98667190  1  -1.252519  0  -0.238099  -0.602247  0  2.304636  0
O  O178  1  0.25832476  0.35965392  0.99965097  1  -1.245921  0  -0.22927  -0.576237  0  2.302585  0
O  O179  1  0.74173608  0.64039421  0.00033978  1  -1.245942  0  -0.229281  -0.576201  0  2.303571  0
O  O180  1  0.90679473  0.21754671  0.93171226  1  -1.263995  0  -0.240178  -0.601531  0  2.344486  0
O  O181  1  0.09325139  0.78247392  0.06828885  1  -1.263374  0  -0.240187  -0.60154  0  2.344461  0
O  O182  1  0.40729373  0.26955114  0.06691805  1  -1.267676  0  -0.234806  -0.587823  0  2.354952  0
O  O183  1  0.59274417  0.73046860  0.93307035  1  -1.267105  0  -0.234699  -0.587897  0  2.354966  0
O  O184  1  0.57872525  0.27607087  0.97323584  1  -1.428491  0  -0.448428  -0.989288  0  2.20646  0
O  O185  1  0.42131677  0.72394836  0.02675858  1  -1.428591  0  -0.448448  -0.989346  0  2.20642  0
O  O186  1  0.07005303  0.22412521  0.02389996  1  -1.411558  0  -0.448722  -0.992608  0  2.200859  0
O  O187  1  0.92998610  0.77589046  0.97609162  1  -1.411292  0  -0.448705  -0.99259  0  2.20125  0
O  O188  1  0.10747564  0.01152901  0.27213083  1  -1.097561  0  -0.278044  -0.435781  0  2.058724  0
O  O189  1  0.89253891  0.98843935  0.72787847  1  -1.096979  0  -0.278068  -0.435829  0  2.058509  0
O  O190  1  0.58902432  0.46380950  0.72557927  1  -1.098032  0  -0.273854  -0.433163  0  2.069005  0
O  O191  1  0.41098217  0.53617981  0.27441969  1  -1.097532  0  -0.274038  -0.433498  0  2.068974  0
O  O192  1  0.25268768  0.20806768  0.68296490  1  -1.115986  0  -0.274544  -0.449452  0  2.107162  0
O  O193  1  0.74725901  0.79192240  0.31704673  1  -1.115947  0  -0.274519  -0.449429  0  2.108083  0
O  O194  1  0.60439959  0.28521807  0.30798676  1  -1.115288  0  -0.276527  -0.450919  0  2.099923  0
O  O195  1  0.39562032  0.71477997  0.69201701  1  -1.115107  0  -0.276494  -0.450785  0  2.099839  0
O  O196  1  0.77946183  0.19376044  0.74447916  1  -1.067045  0  -0.188512  -0.163468  0  2.566962  0
O  O197  1  0.22053999  0.80622683  0.25552142  1  -1.066887  0  -0.18857  -0.163503  0  2.567258  0
O  O198  1  0.20719384  0.32164870  0.25065449  1  -1.082448  0  -0.190923  -0.168387  0  2.574043  0
O  O199  1  0.79284169  0.67834521  0.74934074  1  -1.082249  0  -0.190939  -0.168414  0  2.573885  0
