# generated using pymatgen
data_TlH6C7NO2
_symmetry_space_group_name_H-M   'P 1'
_cell_length_a   7.02020642
_cell_length_b   11.03813994
_cell_length_c   11.03847450
_cell_angle_alpha   81.66055257
_cell_angle_beta   71.43068480
_cell_angle_gamma   71.43108388
_symmetry_Int_Tables_number   1
_chemical_formula_structural   TlH6C7NO2
_chemical_formula_sum   'Tl4 H24 C28 N4 O8'
_cell_volume   767.72245449
_cell_formula_units_Z   4
loop_
 _symmetry_equiv_pos_site_id
 _symmetry_equiv_pos_as_xyz
  1  'x, y, z'
loop_
 _atom_site_type_symbol
 _atom_site_label
 _atom_site_symmetry_multiplicity
 _atom_site_fract_x
 _atom_site_fract_y
 _atom_site_fract_z
 _atom_site_occupancy
 _atom_site_pbe_bader_spin_density
 _atom_site_pbe_cm5_charge
 _atom_site_pbe_ddec_charge
 _atom_site_pbe_ddec_spin_density
 _atom_site_pbe_ddec_sum_bond_order
 _atom_site_pbe_magmom
Tl  Tl0  1  0.62893856  0.78856818  0.01417414  1  0  0.398235  0.678264  0  1.141052  0
Tl  Tl1  1  0.43175622  0.21158151  0.98589991  1  0  0.397977  0.67788  0  1.142433  0
Tl  Tl2  1  0.93177149  0.98589161  0.21157121  1  0  0.397938  0.677805  0  1.14262  0
Tl  Tl3  1  0.12894797  0.01417369  0.78857345  1  0  0.398256  0.678268  0  1.14104  0
H  H4  1  0.90991466  0.33984953  0.70741822  1  0  0.293657  0.311944  0  0.988251  0
H  H5  1  0.95759826  0.65995846  0.29277975  1  0  0.29365  0.312952  0  0.988221  0
H  H6  1  0.45763422  0.29277222  0.65994409  1  0  0.293589  0.312905  0  0.988241  0
H  H7  1  0.40989992  0.70742698  0.33985418  1  0  0.293729  0.311929  0  0.988249  0
H  H8  1  0.07157983  0.42663461  0.61766105  1  0  0.297011  0.2885  0  0.971394  0
H  H9  1  0.11667678  0.57323295  0.38243203  1  0  0.298451  0.289678  0  0.971889  0
H  H10  1  0.61672051  0.38244294  0.57322413  1  0  0.298354  0.289589  0  0.971793  0
H  H11  1  0.57154305  0.61767400  0.42663043  1  0  0.297027  0.288294  0  0.971857  0
H  H12  1  0.49966117  0.19553966  0.25951882  1  0  0.093623  0.07219  0  1.081011  0
H  H13  1  0.95443230  0.80457033  0.74056275  1  0  0.093058  0.07121  0  1.083141  0
H  H14  1  0.45439947  0.74057385  0.80458338  1  0  0.093044  0.071139  0  1.083234  0
H  H15  1  0.99960971  0.25952644  0.19554038  1  0  0.093613  0.072262  0  1.081051  0
H  H16  1  0.33249673  0.35980480  0.41977217  1  0  0.095974  0.105546  0  1.03752  0
H  H17  1  0.11246310  0.64023712  0.58040916  1  0  0.09623  0.106135  0  1.035716  0
H  H18  1  0.61244905  0.58042449  0.64024831  1  0  0.096204  0.106191  0  1.035896  0
H  H19  1  0.83247863  0.41976207  0.35980835  1  0  0.095933  0.10546  0  1.037285  0
H  H20  1  0.86350577  0.16454047  0.61051991  1  0  0.102555  0.115946  0  1.030415  0
H  H21  1  0.63951329  0.83530146  0.38924752  1  0  0.10203  0.115649  0  1.030198  0
H  H22  1  0.13954872  0.38920685  0.83527895  1  0  0.10215  0.115706  0  1.030145  0
H  H23  1  0.36347531  0.61052483  0.16456214  1  0  0.10255  0.115968  0  1.030283  0
H  H24  1  0.04874444  0.99237688  0.45745329  1  0  0.097941  0.09402  0  1.054814  0
H  H25  1  0.49892876  0.00773860  0.54217631  1  0  0.09753  0.093169  0  1.054982  0
H  H26  1  0.99889929  0.54214034  0.00772292  1  0  0.097546  0.093089  0  1.055055  0
H  H27  1  0.54871336  0.45747121  0.99239257  1  0  0.097824  0.09388  0  1.054999  0
C  C28  1  0.39596727  0.97892988  0.25251263  1  0  0.19166  0.54725  0  4.279271  0
C  C29  1  0.62686598  0.02127454  0.74728079  1  0  0.192759  0.549352  0  4.275454  0
C  C30  1  0.12681008  0.74726510  0.02128414  1  0  0.19273  0.549367  0  4.274917  0
C  C31  1  0.89593470  0.25251073  0.97893031  1  0  0.191587  0.547388  0  4.279146  0
C  C32  1  0.28660894  0.08163990  0.34616469  1  0  -0.045719  -0.106078  0  4.049135  0
C  C33  1  0.71427015  0.91847777  0.65373006  1  0  -0.044472  -0.103904  0  4.048248  0
C  C34  1  0.21424644  0.65371412  0.91846989  1  0  -0.044492  -0.104143  0  4.048335  0
C  C35  1  0.78656416  0.34617006  0.08164800  1  0  -0.045668  -0.106198  0  4.049198  0
C  C36  1  0.36087088  0.18805726  0.33713043  1  0  -0.087107  -0.081552  0  4.037361  0
C  C37  1  0.88598713  0.81206178  0.66292881  1  0  -0.086585  -0.080675  0  4.035607  0
C  C38  1  0.38596832  0.66292123  0.81207363  1  0  -0.086573  -0.080511  0  4.035621  0
C  C39  1  0.86084285  0.33713563  0.18804741  1  0  -0.087172  -0.081733  0  4.037758  0
C  C40  1  0.26508028  0.28184017  0.42619508  1  0  -0.107086  -0.199132  0  3.943425  0
C  C41  1  0.97351942  0.71827730  0.57382453  1  0  -0.108304  -0.20091  0  3.941175  0
C  C42  1  0.47351469  0.57383676  0.71826267  1  0  -0.108314  -0.201195  0  3.941032  0
C  C43  1  0.76504429  0.42619721  0.28183042  1  0  -0.106913  -0.1988  0  3.943263  0
C  C44  1  0.08579032  0.27435014  0.52842499  1  0  0.101582  0.310448  0  4.085098  0
C  C45  1  0.88922565  0.72566383  0.47159586  1  0  0.103101  0.312126  0  4.087493  0
C  C46  1  0.38924813  0.47158230  0.72566311  1  0  0.103097  0.312262  0  4.08715  0
C  C47  1  0.58577567  0.52842879  0.27435394  1  0  0.101469  0.310154  0  4.085445  0
C  C48  1  0.00611127  0.16993057  0.53517955  1  0  -0.113084  -0.238028  0  3.995379  0
C  C49  1  0.71187285  0.83010751  0.46465081  1  0  -0.113062  -0.23817  0  3.997043  0
C  C50  1  0.21186047  0.46463414  0.83009378  1  0  -0.113294  -0.238407  0  3.996976  0
C  C51  1  0.50611154  0.53518922  0.16993371  1  0  -0.113106  -0.238102  0  3.995425  0
C  C52  1  0.10746807  0.07474456  0.44730542  1  0  -0.088798  -0.091569  0  4.048511  0
C  C53  1  0.62973703  0.92531148  0.55249073  1  0  -0.089245  -0.091948  0  4.051868  0
C  C54  1  0.12975432  0.55246131  0.92529854  1  0  -0.089169  -0.091703  0  4.051831  0
C  C55  1  0.60743349  0.44731312  0.07475180  1  0  -0.088715  -0.091264  0  4.048676  0
N  N56  1  0.98739497  0.36714715  0.61698502  1  0  -0.588572  -0.611945  0  3.313229  0
N  N57  1  0.97235230  0.63280228  0.38312435  1  0  -0.590964  -0.615126  0  3.315428  0
N  N58  1  0.47237052  0.38312420  0.63279567  1  0  -0.590746  -0.614929  0  3.315312  0
N  N59  1  0.48737622  0.61700452  0.36714745  1  0  -0.588691  -0.611661  0  3.313628  0
O  O60  1  0.33311090  0.87933815  0.26914788  1  0  -0.323717  -0.590445  0  2.195657  0
O  O61  1  0.48111314  0.12093826  0.73044689  1  0  -0.324025  -0.591506  0  2.193004  0
O  O62  1  0.98110548  0.73041199  0.12093360  1  0  -0.323957  -0.591336  0  2.193094  0
O  O63  1  0.83309648  0.26917806  0.87933526  1  0  -0.323708  -0.590512  0  2.195574  0
O  O64  1  0.54888060  0.99595400  0.15667509  1  0  -0.317597  -0.604606  0  2.258098  0
O  O65  1  0.70081055  0.00429051  0.84314911  1  0  -0.318646  -0.606643  0  2.257125  0
O  O66  1  0.20077492  0.84313392  0.00429588  1  0  -0.318691  -0.606712  0  2.256725  0
O  O67  1  0.04882598  0.15668509  0.99596075  1  0  -0.317471  -0.604472  0  2.258284  0
