# generated using pymatgen
data_CuH9C9BrN3
_symmetry_space_group_name_H-M   'P 1'
_cell_length_a   7.58396279
_cell_length_b   8.32927420
_cell_length_c   9.09177390
_cell_angle_alpha   96.31733349
_cell_angle_beta   113.64415364
_cell_angle_gamma   108.89772651
_symmetry_Int_Tables_number   1
_chemical_formula_structural   CuH9C9BrN3
_chemical_formula_sum   'Cu2 H18 C18 Br2 N6'
_cell_volume   478.29408797
_cell_formula_units_Z   2
loop_
 _symmetry_equiv_pos_site_id
 _symmetry_equiv_pos_as_xyz
  1  'x, y, z'
loop_
 _atom_site_type_symbol
 _atom_site_label
 _atom_site_symmetry_multiplicity
 _atom_site_fract_x
 _atom_site_fract_y
 _atom_site_fract_z
 _atom_site_occupancy
 _atom_site_hle17_bader_spin_density
 _atom_site_hle17_ddec_charge
 _atom_site_hle17_ddec_spin_density
 _atom_site_hle17_ddec_sum_bond_order
 _atom_site_hle17_magmom
 _atom_site_hse06_10hf_bader_spin_density
 _atom_site_hse06_10hf_ddec_charge
 _atom_site_hse06_10hf_ddec_spin_density
 _atom_site_hse06_10hf_ddec_sum_bond_order
 _atom_site_hse06_10hf_magmom
 _atom_site_hse06_bader_spin_density
 _atom_site_hse06_ddec_charge
 _atom_site_hse06_ddec_spin_density
 _atom_site_hse06_ddec_sum_bond_order
 _atom_site_hse06_magmom
 _atom_site_pbe_bader_spin_density
 _atom_site_pbe_cm5_charge
 _atom_site_pbe_ddec_charge
 _atom_site_pbe_ddec_spin_density
 _atom_site_pbe_ddec_sum_bond_order
 _atom_site_pbe_magmom
Cu  Cu0  1  0.04725677  0.18130081  0.48145783  1  0  0.371388  0  1.956602  0  0  0.254434  0  2.45221  0  0  0.259477  0  2.402939  0  0  0.397053  0.254829  0  2.482495  0
Cu  Cu1  1  0.95273969  0.81870049  0.51854489  1  0  0.371382  0  1.956609  0  0  0.254457  0  2.452219  0  0  0.259555  0  2.402968  0  0  0.397063  0.254849  0  2.482503  0
H  H2  1  0.01206847  0.35074446  0.95104028  1  0  0.106481  0  0.965897  0  0  0.115951  0  1.026526  0  0  0.118523  0  1.027032  0  0  0.104613  0.114136  0  1.026296  0
H  H3  1  0.98793302  0.64925826  0.04895660  1  0  0.106481  0  0.965826  0  0  0.115949  0  1.026467  0  0  0.118521  0  1.026973  0  0  0.104618  0.114134  0  1.026236  0
H  H4  1  0.21723833  0.18374885  0.90420021  1  0  0.093891  0  0.984889  0  0  0.099773  0  1.055021  0  0  0.102981  0  1.052683  0  0  0.092395  0.097257  0  1.056932  0
H  H5  1  0.78275311  0.81624187  0.09580080  1  0  0.093918  0  0.984849  0  0  0.099784  0  1.054985  0  0  0.102999  0  1.052641  0  0  0.092436  0.097268  0  1.056895  0
H  H6  1  0.37768532  0.04473222  0.12715398  1  0  0.10242  0  0.967661  0  0  0.110414  0  1.031404  0  0  0.113855  0  1.030461  0  0  0.094581  0.107889  0  1.032263  0
H  H7  1  0.62230819  0.95525983  0.87284787  1  0  0.102479  0  0.967603  0  0  0.110495  0  1.031322  0  0  0.113928  0  1.030406  0  0  0.094616  0.107968  0  1.032183  0
H  H8  1  0.30655786  0.06174139  0.37175491  1  0  0.075609  0  0.971401  0  0  0.080526  0  1.041896  0  0  0.084172  0  1.038348  0  0  0.100102  0.077668  0  1.044777  0
H  H9  1  0.69343293  0.93824798  0.62824903  1  0  0.075577  0  0.971465  0  0  0.080505  0  1.041916  0  0  0.08415  0  1.038367  0  0  0.100113  0.077646  0  1.044798  0
H  H10  1  0.60756274  0.26413381  0.01907848  1  0  0.132583  0  0.978634  0  0  0.139852  0  1.043405  0  0  0.143245  0  1.042768  0  0  0.099193  0.137487  0  1.043818  0
H  H11  1  0.39243394  0.73586489  0.98092074  1  0  0.132588  0  0.978654  0  0  0.139866  0  1.043415  0  0  0.143258  0  1.042777  0  0  0.099188  0.137501  0  1.043828  0
H  H12  1  0.57926908  0.54511719  0.18799897  1  0  0.098569  0  0.954428  0  0  0.108988  0  1.015507  0  0  0.111178  0  1.01424  0  0  0.113144  0.107341  0  1.016483  0
H  H13  1  0.42073300  0.45488682  0.81200154  1  0  0.098566  0  0.954426  0  0  0.108988  0  1.015504  0  0  0.111177  0  1.014238  0  0  0.113137  0.107342  0  1.016481  0
H  H14  1  0.28521506  0.72299661  0.56635435  1  0  0.11036  0  0.98124  0  0  0.125086  0  1.056724  0  0  0.127162  0  1.055524  0  0  0.098666  0.1234  0  1.057733  0
H  H15  1  0.71479223  0.27700617  0.43364229  1  0  0.110341  0  0.981271  0  0  0.125041  0  1.056787  0  0  0.127123  0  1.05558  0  0  0.098643  0.123333  0  1.057816  0
H  H16  1  0.34124487  0.72701995  0.39329264  1  0  0.105818  0  0.946111  0  0  0.123739  0  1.016033  0  0  0.124736  0  1.015969  0  0  0.094647  0.122905  0  1.016068  0
H  H17  1  0.65875705  0.27298672  0.60670479  1  0  0.105915  0  0.946136  0  0  0.123782  0  1.016089  0  0  0.124777  0  1.016024  0  0  0.094673  0.122949  0  1.016121  0
H  H18  1  0.33032951  0.54404319  0.48197836  1  0  0.110222  0  0.945622  0  0  0.129276  0  1.011039  0  0  0.130546  0  1.010567  0  0  0.107228  0.128288  0  1.011386  0
H  H19  1  0.66966972  0.45596083  0.51801789  1  0  0.110237  0  0.94562  0  0  0.129285  0  1.011025  0  0  0.13055  0  1.01056  0  0  0.107209  0.128295  0  1.011372  0
C  C20  1  0.05463312  0.29427232  0.18481589  1  0  0.185587  0  3.763168  0  0  0.18603  0  4.003695  0  0  0.192515  0  4.021103  0  0  0.11205  0.181426  0  3.992448  0
C  C21  1  0.94537266  0.70573040  0.81518683  1  0  0.185709  0  3.763085  0  0  0.186081  0  4.003726  0  0  0.192569  0  4.021136  0  0  0.112041  0.18147  0  3.99249  0
C  C22  1  0.08109897  0.28515959  0.04122471  1  0  -0.148652  0  3.715427  0  0  -0.163522  0  3.954509  0  0  -0.170345  0  3.97533  0  0  -0.084436  -0.159294  0  3.94102  0
C  C23  1  0.91890001  0.71484702  0.95877613  1  0  -0.148588  0  3.715383  0  0  -0.163442  0  3.954495  0  0  -0.170264  0  3.975318  0  0  -0.084412  -0.159212  0  3.941009  0
C  C24  1  0.19641783  0.19415260  0.01632483  1  0  -0.004889  0  3.720445  0  0  -0.021311  0  3.964115  0  0  -0.017179  0  3.981875  0  0  -0.074247  -0.024173  0  3.952637  0
C  C25  1  0.80357677  0.80584474  0.98367574  1  0  -0.005045  0  3.720575  0  0  -0.02144  0  3.964225  0  0  -0.017316  0  3.981985  0  0  -0.074341  -0.024301  0  3.952743  0
C  C26  1  0.28259241  0.11499683  0.13752242  1  0  -0.112487  0  3.731985  0  0  -0.121297  0  3.972642  0  0  -0.127884  0  3.99373  0  0  -0.085244  -0.117358  0  3.959136  0
C  C27  1  0.71740200  0.88499398  0.86247300  1  0  -0.112588  0  3.732199  0  0  -0.121428  0  3.972819  0  0  -0.128021  0  3.993902  0  0  -0.085289  -0.117489  0  3.959315  0
C  C28  1  0.24591850  0.12517239  0.27563248  1  0  0.124439  0  3.681879  0  0  0.099684  0  3.92539  0  0  0.106409  0  3.939915  0  0  0.036761  0.095077  0  3.916392  0
C  C29  1  0.75408682  0.87482635  0.72437186  1  0  0.124507  0  3.682067  0  0  0.099816  0  3.925552  0  0  0.10654  0  3.940089  0  0  0.036798  0.095208  0  3.916554  0
C  C30  1  0.94061718  0.39673321  0.21501889  1  0  0.074422  0  3.752354  0  0  0.043968  0  4.012703  0  0  0.053504  0  4.02589  0  0  0.092639  0.037834  0  4.003879  0
C  C31  1  0.05938094  0.60326548  0.78498192  1  0  0.074285  0  3.752353  0  0  0.043978  0  4.012576  0  0  0.053512  0  4.025769  0  0  0.092642  0.037846  0  4.003755  0
C  C32  1  0.73084138  0.37211160  0.12779333  1  0  -0.238233  0  3.756795  0  0  -0.261751  0  4.027138  0  0  -0.270781  0  4.045749  0  0  -0.11629  -0.25579  0  4.014467  0
C  C33  1  0.26915960  0.62788710  0.87221064  1  0  -0.238225  0  3.756739  0  0  -0.261792  0  4.027079  0  0  -0.270818  0  4.045687  0  0  -0.116302  -0.255832  0  4.01441  0
C  C34  1  0.71507794  0.51443407  0.21169380  1  0  0.044037  0  3.741172  0  0  0.004938  0  4.018759  0  0  0.012171  0  4.032629  0  0  0.009155  0.000536  0  4.00914  0
C  C35  1  0.28492449  0.48556463  0.78831066  1  0  0.044074  0  3.741171  0  0  0.00497  0  4.018775  0  0  0.012203  0  4.032639  0  0  0.009173  0.000567  0  4.009159  0
C  C36  1  0.26317723  0.64148747  0.45226103  1  0  -0.19764  0  3.652297  0  0  -0.317408  0  3.901397  0  0  -0.315643  0  3.909498  0  0  -0.138998  -0.317942  0  3.895861  0
C  C37  1  0.73682552  0.35851790  0.54773545  1  0  -0.197756  0  3.652364  0  0  -0.317423  0  3.901423  0  0  -0.315656  0  3.909524  0  0  -0.138975  -0.317942  0  3.895916  0
Br  Br38  1  0.31258775  0.06347413  0.67136824  1  0  -0.547805  0  1.198081  0  0  -0.478799  0  1.555763  0  0  -0.495121  0  1.522204  0  0  -0.267756  -0.466641  0  1.577242  0
Br  Br39  1  0.68741185  0.93652462  0.32862868  1  0  -0.54779  0  1.198091  0  0  -0.478768  0  1.555744  0  0  -0.495092  0  1.522182  0  0  -0.26776  -0.466609  0  1.577217  0
N  N40  1  0.13333899  0.21198145  0.30085307  1  0  -0.319968  0  3.331633  0  0  -0.250164  0  3.616899  0  0  -0.260084  0  3.622111  0  0  -0.355354  -0.244528  0  3.613598  0
N  N41  1  0.86666949  0.78802392  0.69914974  1  0  -0.31995  0  3.331705  0  0  -0.250239  0  3.617095  0  0  -0.260179  0  3.622338  0  0  -0.355375  -0.244601  0  3.613795  0
N  N42  1  0.90327363  0.62277143  0.34109372  1  0  -0.236553  0  3.227658  0  0  -0.200324  0  3.538996  0  0  -0.206108  0  3.542853  0  0  -0.281673  -0.197075  0  3.536161  0
N  N43  1  0.09672993  0.37723263  0.65890400  1  0  -0.236507  0  3.227677  0  0  -0.200278  0  3.53903  0  0  -0.206044  0  3.542857  0  0  -0.281635  -0.197032  0  3.5362  0
N  N44  1  0.03932463  0.54913362  0.34164378  1  0  0.070395  0  3.535007  0  0  0.191896  0  3.712038  0  0  0.182634  0  3.736418  0  0  -0.148227  0.196711  0  3.697676  0
N  N45  1  0.96067563  0.45086648  0.65835020  1  0  0.070393  0  3.535051  0  0  0.191833  0  3.712093  0  0  0.182565  0  3.736474  0  0  -0.148265  0.19666  0  3.6977  0
