# generated using pymatgen
data_H12PbC17SN2O5
_symmetry_space_group_name_H-M   'P 1'
_cell_length_a   5.51051549
_cell_length_b   10.28755264
_cell_length_c   29.05982455
_cell_angle_alpha   89.99964204
_cell_angle_beta   90.00073675
_cell_angle_gamma   98.88182693
_symmetry_Int_Tables_number   1
_chemical_formula_structural   H12PbC17SN2O5
_chemical_formula_sum   'H48 Pb4 C68 S4 N8 O20'
_cell_volume   1627.63918432
_cell_formula_units_Z   4
loop_
 _symmetry_equiv_pos_site_id
 _symmetry_equiv_pos_as_xyz
  1  'x, y, z'
loop_
 _atom_site_type_symbol
 _atom_site_label
 _atom_site_symmetry_multiplicity
 _atom_site_fract_x
 _atom_site_fract_y
 _atom_site_fract_z
 _atom_site_occupancy
 _atom_site_pbe_bader_charge
 _atom_site_pbe_bader_spin_density
 _atom_site_pbe_cm5_charge
 _atom_site_pbe_ddec_charge
 _atom_site_pbe_ddec_spin_density
 _atom_site_pbe_ddec_sum_bond_order
 _atom_site_pbe_magmom
H  H0  1  0.12262601  0.86123192  0.22307249  1  0.119055  0  0.104041  0.10582  0  1.037928  0
H  H1  1  0.37736778  0.13875789  0.72306665  1  0.119187  0  0.10406  0.105835  0  1.037871  0
H  H2  1  0.87737366  0.13873152  0.77692825  1  0.118994  0  0.104103  0.10585  0  1.038006  0
H  H3  1  0.62259124  0.86127888  0.27692618  1  0.119051  0  0.104104  0.105724  0  1.038047  0
H  H4  1  0.15629684  0.62261891  0.21632224  1  0.128261  0  0.108164  0.117973  0  1.004391  0
H  H5  1  0.34369108  0.37737094  0.71631510  1  0.128434  0  0.108217  0.118056  0  1.004366  0
H  H6  1  0.84369555  0.37734447  0.78367507  1  0.130291  0  0.108226  0.117944  0  1.004409  0
H  H7  1  0.65629599  0.62266898  0.28367051  1  0.130121  0  0.108247  0.118006  0  1.004445  0
H  H8  1  0.46917631  0.55583145  0.14272523  1  0.117782  0  0.107543  0.12097  0  1.018511  0
H  H9  1  0.03080539  0.44417309  0.64272505  1  0.117842  0  0.107519  0.120941  0  1.018588  0
H  H10  1  0.53080152  0.44414557  0.85727517  1  0.118031  0  0.10756  0.120891  0  1.018588  0
H  H11  1  0.96920169  0.55586698  0.35727466  1  0.117633  0  0.107567  0.120917  0  1.018357  0
H  H12  1  0.43402424  0.79490648  0.15102332  1  0.075319  0  0.104241  0.103666  0  1.027006  0
H  H13  1  0.06597768  0.20510400  0.65102169  1  0.074895  0  0.104215  0.10367  0  1.027078  0
H  H14  1  0.56597488  0.20507561  0.84897742  1  0.075243  0  0.104254  0.103687  0  1.027061  0
H  H15  1  0.93402160  0.79493405  0.34897734  1  0.075293  0  0.104291  0.103784  0  1.026977  0
H  H16  1  0.43430699  0.98632124  0.11062645  1  0.144347  0  0.111298  0.084059  0  1.056789  0
H  H17  1  0.06572238  0.01369981  0.61062144  1  0.143831  0  0.111271  0.084002  0  1.056689  0
H  H18  1  0.56567839  0.01364308  0.88938530  1  0.144354  0  0.111242  0.083996  0  1.056587  0
H  H19  1  0.93429431  0.98633543  0.38937827  1  0.143937  0  0.111213  0.083816  0  1.056674  0
H  H20  1  0.33445403  0.90682090  0.03126530  1  0.083502  0  0.104312  0.10771  0  1.05884  0
H  H21  1  0.16556960  0.09318350  0.53125969  1  0.08366  0  0.104265  0.107682  0  1.058902  0
H  H22  1  0.66556797  0.09314467  0.96874336  1  0.083933  0  0.10422  0.107605  0  1.058671  0
H  H23  1  0.83441258  0.90683086  0.46873727  1  0.083952  0  0.104272  0.107562  0  1.05888  0
H  H24  1  0.74840430  0.14492784  0.03224258  1  0.096237  0  0.106608  0.11149  0  1.0529  0
H  H25  1  0.75160528  0.85505577  0.53224139  1  0.096491  0  0.106601  0.111493  0  1.052877  0
H  H26  1  0.25166417  0.85506263  0.96775679  1  0.095739  0  0.106648  0.111609  0  1.052987  0
H  H27  1  0.24834343  0.14492790  0.46775178  1  0.095903  0  0.106576  0.111491  0  1.052829  0
H  H28  1  0.87173386  0.21035385  0.11132676  1  0.145433  0  0.112259  0.085525  0  1.055847  0
H  H29  1  0.62824093  0.78963726  0.61132368  1  0.145548  0  0.112252  0.085535  0  1.055967  0
H  H30  1  0.12828214  0.78962346  0.88867329  1  0.145725  0  0.112204  0.085478  0  1.055824  0
H  H31  1  0.37173969  0.21037120  0.38867122  1  0.145219  0  0.112203  0.085456  0  1.055907  0
H  H32  1  0.30603770  0.23051323  0.92927520  1  0.051073  0  0.10322  0.070551  0  1.012861  0
H  H33  1  0.19396292  0.76948072  0.42927283  1  0.051025  0  0.103234  0.070594  0  1.012862  0
H  H34  1  0.69398426  0.76947984  0.07072589  1  0.051057  0  0.103234  0.070571  0  1.012871  0
H  H35  1  0.80601123  0.23051689  0.57073342  1  0.051253  0  0.103268  0.07051  0  1.013047  0
H  H36  1  0.00733671  0.38421502  0.92893397  1  0.09062  0  0.104625  0.111416  0  1.011604  0
H  H37  1  0.49265715  0.61577397  0.42893511  1  0.090684  0  0.104646  0.111445  0  1.011559  0
H  H38  1  0.99267097  0.61577204  0.07106678  1  0.090525  0  0.104621  0.111399  0  1.011661  0
H  H39  1  0.50731908  0.38422464  0.57106838  1  0.090422  0  0.104631  0.111312  0  1.011769  0
H  H40  1  0.22655380  0.48414602  0.06936977  1  0.071546  0  0.105634  0.112947  0  1.017459  0
H  H41  1  0.27346325  0.51586568  0.56937316  1  0.071689  0  0.105646  0.113062  0  1.017603  0
H  H42  1  0.77346191  0.51585780  0.93062960  1  0.071605  0  0.105623  0.112985  0  1.017433  0
H  H43  1  0.72654207  0.48413315  0.43063241  1  0.071667  0  0.105613  0.11297  0  1.017541  0
H  H44  1  0.52365546  0.33181259  0.06283690  1  0.102852  0  0.109682  0.090994  0  1.002362  0
H  H45  1  0.97634941  0.66819413  0.56283808  1  0.102871  0  0.109701  0.090945  0  1.002322  0
H  H46  1  0.47636491  0.66819519  0.93716488  1  0.102999  0  0.109717  0.091007  0  1.002373  0
H  H47  1  0.02363099  0.33179272  0.43716921  1  0.103027  0  0.109671  0.090918  0  1.002336  0
Pb  Pb48  1  0.31151193  0.19483388  0.19613661  1  1.493734  0  0.675847  1.18643  0  1.820828  0
Pb  Pb49  1  0.18848464  0.80516613  0.69613399  1  1.493828  0  0.675885  1.186445  0  1.820788  0
Pb  Pb50  1  0.68849214  0.80513254  0.80386482  1  1.493733  0  0.675864  1.186455  0  1.820787  0
Pb  Pb51  1  0.81152530  0.19487102  0.30386572  1  1.493764  0  0.675886  1.186488  0  1.820765  0
C  C52  1  0.74152697  0.98283652  0.19614320  1  1.554626  0  0.219639  0.591793  0  4.213093  0
C  C53  1  0.75851495  0.01716868  0.69613731  1  1.554067  0  0.219562  0.591635  0  4.213156  0
C  C54  1  0.25849475  0.01714181  0.80386030  1  1.554554  0  0.219636  0.592034  0  4.21252  0
C  C55  1  0.24149732  0.98287045  0.30386275  1  1.554437  0  0.219568  0.59202  0  4.212335  0
C  C56  1  0.77543112  0.84247088  0.18771699  1  -0.011708  0  -0.01822  -0.04454  0  3.958535  0
C  C57  1  0.72456460  0.15752623  0.68771449  1  0.116155  0  -0.018292  -0.044431  0  3.958495  0
C  C58  1  0.22455996  0.15750133  0.81228238  1  0.116594  0  -0.018393  -0.044801  0  3.958586  0
C  C59  1  0.27544508  0.84250994  0.31228316  1  0.116888  0  -0.018292  -0.044799  0  3.958557  0
C  C60  1  0.98029593  0.79403890  0.20560420  1  -0.004547  0  -0.079224  -0.081667  0  3.942035  0
C  C61  1  0.51970396  0.20596291  0.70559797  1  -0.13278  0  -0.079189  -0.081743  0  3.942265  0
C  C62  1  0.01969802  0.20592352  0.79439930  1  -0.132884  0  -0.079243  -0.08167  0  3.942383  0
C  C63  1  0.48027193  0.79408282  0.29439796  1  -0.133017  0  -0.079224  -0.081445  0  3.942514  0
C  C64  1  0.00005534  0.66126171  0.20160890  1  -0.030111  0  -0.081544  -0.087657  0  3.957665  0
C  C65  1  0.49993871  0.33873428  0.70160328  1  -0.030301  0  -0.081628  -0.087768  0  3.957834  0
C  C66  1  0.99991860  0.33870055  0.79839150  1  -0.031768  0  -0.081592  -0.087587  0  3.957562  0
C  C67  1  0.50006473  0.66130577  0.29838886  1  -0.031353  0  -0.081604  -0.087755  0  3.957807  0
C  C68  1  0.81484115  0.57721796  0.17875960  1  -0.281919  0  -0.012634  -0.067621  0  3.956416  0
C  C69  1  0.68515688  0.42278321  0.67875745  1  -0.282135  0  -0.012602  -0.06754  0  3.956389  0
C  C70  1  0.18514655  0.42275520  0.82123943  1  -0.282313  0  -0.012503  -0.067784  0  3.956212  0
C  C71  1  0.31484448  0.57725584  0.32123882  1  -0.282165  0  -0.012636  -0.067904  0  3.956408  0
C  C72  1  0.61207891  0.62394574  0.15979427  1  0.044708  0  -0.083828  -0.099105  0  3.979219  0
C  C73  1  0.88790836  0.37606052  0.65979275  1  0.044637  0  -0.083802  -0.098951  0  3.979301  0
C  C74  1  0.38790618  0.37603133  0.84021026  1  0.044473  0  -0.083885  -0.098826  0  3.97904  0
C  C75  1  0.11209664  0.62397856  0.34020662  1  0.044845  0  -0.083801  -0.098658  0  3.978866  0
C  C76  1  0.59363610  0.75680363  0.16444003  1  -0.086689  0  -0.0817  -0.088194  0  3.968346  0
C  C77  1  0.90637068  0.24319977  0.66443885  1  -0.086033  0  -0.081629  -0.088327  0  3.968218  0
C  C78  1  0.40637524  0.24316972  0.83556381  1  -0.087259  0  -0.081552  -0.08808  0  3.968004  0
C  C79  1  0.09361562  0.75683720  0.33556258  1  -0.087539  0  -0.081634  -0.088295  0  3.967927  0
C  C80  1  0.28295544  0.01779983  0.09171047  1  0.476999  0  0.041626  0.088224  0  3.964791  0
C  C81  1  0.21706478  0.98220471  0.59170719  1  0.47797  0  0.041672  0.08835  0  3.964867  0
C  C82  1  0.71704552  0.98216853  0.90829922  1  0.477119  0  0.041675  0.088362  0  3.964573  0
C  C83  1  0.78291687  0.01781455  0.40829355  1  0.477431  0  0.041604  0.088285  0  3.965172  0
C  C84  1  0.22563723  0.97472905  0.04722457  1  -0.054044  0  -0.081521  -0.166648  0  3.928844  0
C  C85  1  0.27437722  0.02527114  0.54722008  1  -0.053967  0  -0.081548  -0.166785  0  3.928904  0
C  C86  1  0.77438321  0.02523750  0.95278237  1  -0.054107  0  -0.081487  -0.166708  0  3.928985  0
C  C87  1  0.72559327  0.97474018  0.45277619  1  -0.054079  0  -0.081514  -0.166545  0  3.929364  0
C  C88  1  0.03125237  0.01976600  0.02394270  1  0.017391  0  0.013042  0.105054  0  3.964365  0
C  C89  1  0.46876616  0.98022767  0.52394249  1  0.016821  0  0.013161  0.105298  0  3.964148  0
C  C90  1  0.96879897  0.98021452  0.97606011  1  -0.022706  0  0.013189  0.105287  0  3.964237  0
C  C91  1  0.53121551  0.01977786  0.47605619  1  -0.02257  0  0.013162  0.105121  0  3.964342  0
C  C92  1  0.90062232  0.10493017  0.04798139  1  -0.004494  0  -0.079772  -0.162168  0  3.901592  0
C  C93  1  0.59938844  0.89506108  0.54797490  1  -0.004475  0  -0.079677  -0.162064  0  3.901155  0
C  C94  1  0.09942693  0.89504935  0.95202177  1  -0.004217  0  -0.079802  -0.162422  0  3.901722  0
C  C95  1  0.40058077  0.10493846  0.45201896  1  -0.004139  0  -0.079673  -0.162047  0  3.901559  0
C  C96  1  0.96968282  0.14279065  0.09261969  1  0.438475  0  0.044231  0.093095  0  3.957943  0
C  C97  1  0.53031373  0.85719793  0.59261724  1  0.438274  0  0.044074  0.092845  0  3.957509  0
C  C98  1  0.03034073  0.85718770  0.90738449  1  0.438669  0  0.044242  0.093102  0  3.957721  0
C  C99  1  0.46966586  0.14280659  0.40738041  1  0.438646  0  0.044184  0.092916  0  3.957802  0
C  C100  1  0.28632182  0.28967540  0.95987956  1  0.508628  0  0.033068  0.082334  0  4.023225  0
C  C101  1  0.21368375  0.71031621  0.45987737  1  0.508187  0  0.033027  0.0823  0  4.022718  0
C  C102  1  0.71368793  0.71031954  0.04012084  1  0.508647  0  0.033072  0.082319  0  4.022851  0
C  C103  1  0.78629119  0.28967748  0.54012991  1  0.507968  0  0.032969  0.082378  0  4.022573  0
C  C104  1  0.11553447  0.37638204  0.95988062  1  -0.038044  0  -0.084525  -0.169554  0  3.940194  0
C  C105  1  0.38446121  0.62361343  0.45988181  1  -0.038133  0  -0.084511  -0.169482  0  3.940345  0
C  C106  1  0.88447554  0.62360701  0.04011978  1  -0.038261  0  -0.084422  -0.169438  0  3.939945  0
C  C107  1  0.61552359  0.37638328  0.54012375  1  -0.038547  0  -0.084488  -0.169249  0  3.940602  0
C  C108  1  0.08795004  0.45221746  0.99923862  1  -0.034486  0  0.010959  0.098074  0  3.96331  0
C  C109  1  0.41205708  0.54778443  0.49923936  1  -0.034637  0  0.010993  0.098018  0  3.963301  0
C  C110  1  0.91206386  0.54777947  0.00076109  1  -0.104086  0  0.010916  0.097963  0  3.963352  0
C  C111  1  0.58793526  0.45221332  0.50076482  1  -0.103009  0  0.010937  0.097863  0  3.96344  0
C  C112  1  0.23771699  0.43249673  0.03693950  1  0.032498  0  -0.080607  -0.160203  0  3.920748  0
C  C113  1  0.26228491  0.56749958  0.53694309  1  0.032181  0  -0.080686  -0.160351  0  3.920666  0
C  C114  1  0.76228782  0.56750013  0.96306193  1  0.031839  0  -0.080652  -0.160301  0  3.920808  0
C  C115  1  0.73771159  0.43249329  0.46306213  1  0.031415  0  -0.080521  -0.160139  0  3.920594  0
C  C116  1  0.40593087  0.34475352  0.03346525  1  0.471518  0  0.038192  0.086733  0  3.986908  0
C  C117  1  0.09407262  0.65524972  0.53346409  1  0.471564  0  0.038189  0.086772  0  3.987235  0
C  C118  1  0.59407991  0.65524535  0.96653652  1  0.471939  0  0.038204  0.086771  0  3.987057  0
C  C119  1  0.90591063  0.34474108  0.46654147  1  0.471792  0  0.038227  0.086783  0  3.98731  0
S  S120  1  0.83270952  0.40649857  0.17636027  1  3.155891  0  0.516365  1.166227  0  6.180845  0
S  S121  1  0.66728732  0.59350558  0.67635840  1  3.155865  0  0.516213  1.166083  0  6.181236  0
S  S122  1  0.16728025  0.59347560  0.82363909  1  3.15764  0  0.516463  1.166521  0  6.18095  0
S  S123  1  0.33272729  0.40653554  0.32363925  1  3.157563  0  0.516527  1.166805  0  6.180732  0
N  N124  1  0.15887632  0.10100582  0.11438895  1  -1.241804  0  -0.299944  -0.264299  0  3.434096  0
N  N125  1  0.34112368  0.89899925  0.61438618  1  -1.242083  0  -0.299895  -0.264228  0  3.434077  0
N  N126  1  0.84112983  0.89896160  0.88561627  1  -1.242141  0  -0.299911  -0.264187  0  3.433449  0
N  N127  1  0.65888004  0.10102804  0.38561216  1  -1.241876  0  -0.299845  -0.264026  0  3.433902  0
N  N128  1  0.43314373  0.27315579  0.99564255  1  -1.210183  0  -0.325631  -0.284777  0  3.358251  0
N  N129  1  0.06684733  0.72684112  0.49564441  1  -1.209598  0  -0.325595  -0.284806  0  3.358045  0
N  N130  1  0.56688055  0.72684613  0.00436026  1  -1.210296  0  -0.325678  -0.284786  0  3.358399  0
N  N131  1  0.93312839  0.27314865  0.50436287  1  -1.209824  0  -0.32568  -0.28487  0  3.357684  0
O  O132  1  0.90120829  0.05590440  0.22030285  1  -1.198814  0  -0.303369  -0.624256  0  2.321359  0
O  O133  1  0.59881197  0.94409540  0.72029798  1  -1.198142  0  -0.303374  -0.624327  0  2.321119  0
O  O134  1  0.09879659  0.94405122  0.77970477  1  -1.198527  0  -0.303415  -0.624506  0  2.321206  0
O  O135  1  0.40119613  0.05595549  0.27970277  1  -1.198418  0  -0.303461  -0.624557  0  2.321006  0
O  O136  1  0.54846738  0.01777190  0.17934314  1  -1.17963  0  -0.292509  -0.560982  0  2.311258  0
O  O137  1  0.95155068  0.98223629  0.67934219  1  -1.179694  0  -0.292458  -0.5608  0  2.311543  0
O  O138  1  0.45155797  0.98221333  0.82066002  1  -1.17958  0  -0.292483  -0.561003  0  2.311128  0
O  O139  1  0.04845640  0.01780379  0.32066165  1  -1.179774  0  -0.292393  -0.560879  0  2.311272  0
O  O140  1  0.08582648  0.39671681  0.16222296  1  -1.326455  0  -0.322519  -0.605624  0  2.231066  0
O  O141  1  0.41417300  0.60328859  0.66222033  1  -1.326326  0  -0.322433  -0.605551  0  2.231273  0
O  O142  1  0.91415863  0.60325340  0.83777813  1  -1.326791  0  -0.322607  -0.605757  0  2.231091  0
O  O143  1  0.58584003  0.39676037  0.33777732  1  -1.32672  0  -0.322666  -0.605861  0  2.231042  0
O  O144  1  0.77080947  0.35538823  0.22301573  1  -1.332642  0  -0.323967  -0.650421  0  2.293339  0
O  O145  1  0.72919172  0.64461433  0.72301562  1  -1.332578  0  -0.323935  -0.650421  0  2.293362  0
O  O146  1  0.22916447  0.64458091  0.77698330  1  -1.333581  0  -0.323957  -0.650415  0  2.293107  0
O  O147  1  0.27082315  0.35542777  0.27698237  1  -1.33354  0  -0.323866  -0.650455  0  2.293052  0
O  O148  1  0.64656032  0.34815824  0.14245039  1  -1.330121  0  -0.323168  -0.603375  0  2.215134  0
O  O149  1  0.85343762  0.65184441  0.64245129  1  -1.330162  0  -0.323125  -0.603357  0  2.215343  0
O  O150  1  0.35341412  0.65181974  0.85754794  1  -1.330069  0  -0.323298  -0.603558  0  2.2154  0
O  O151  1  0.14658167  0.34819380  0.35754533  1  -1.330244  0  -0.323389  -0.603711  0  2.215418  0
