# generated using pymatgen
data_ZnH20C34(NO2)2
_symmetry_space_group_name_H-M   'P 1'
_cell_length_a   8.58974529
_cell_length_b   12.30879970
_cell_length_c   14.22360000
_cell_angle_alpha   72.60630830
_cell_angle_beta   88.11562050
_cell_angle_gamma   71.61589440
_symmetry_Int_Tables_number   1
_chemical_formula_structural   ZnH20C34(NO2)2
_chemical_formula_sum   'Zn2 H40 C68 N4 O8'
_cell_volume   1358.71169436
_cell_formula_units_Z   2
loop_
 _symmetry_equiv_pos_site_id
 _symmetry_equiv_pos_as_xyz
  1  'x, y, z'
loop_
 _atom_site_type_symbol
 _atom_site_label
 _atom_site_symmetry_multiplicity
 _atom_site_fract_x
 _atom_site_fract_y
 _atom_site_fract_z
 _atom_site_occupancy
 _atom_site_hle17_bader_spin_density
 _atom_site_hle17_ddec_charge
 _atom_site_hle17_ddec_spin_density
 _atom_site_hle17_ddec_sum_bond_order
 _atom_site_hle17_magmom
 _atom_site_hse06_10hf_bader_spin_density
 _atom_site_hse06_10hf_ddec_charge
 _atom_site_hse06_10hf_ddec_spin_density
 _atom_site_hse06_10hf_ddec_sum_bond_order
 _atom_site_hse06_10hf_magmom
 _atom_site_hse06_bader_spin_density
 _atom_site_hse06_ddec_charge
 _atom_site_hse06_ddec_spin_density
 _atom_site_hse06_ddec_sum_bond_order
 _atom_site_hse06_magmom
 _atom_site_pbe_bader_charge
 _atom_site_pbe_bader_spin_density
 _atom_site_pbe_cm5_charge
 _atom_site_pbe_ddec_charge
 _atom_site_pbe_ddec_spin_density
 _atom_site_pbe_ddec_sum_bond_order
 _atom_site_pbe_magmom
Zn  Zn0  1  0.10508051  0.20137676  0.27617029  1  0  0.955022  0  1.89333  0  0  0.774748  0  2.346854  0  0  0.823762  0  2.29592  0  1.262821  0  0.677029  0.740666  0  2.38136  0
Zn  Zn1  1  0.89491899  0.79862371  0.72382932  1  0  0.955032  0  1.89329  0  0  0.774737  0  2.346809  0  0  0.823748  0  2.295878  0  1.26283  0  0.677034  0.740653  0  2.381316  0
H  H2  1  0.02209027  0.92112553  0.16056359  1  0  0.102879  0  0.94855  0  0  0.10981  0  1.014386  0  0  0.112918  0  1.012846  0  0.082969  0  0.101073  0.107865  0  1.015067  0
H  H3  1  0.97790728  0.07887674  0.83943629  1  0  0.102869  0  0.948546  0  0  0.109801  0  1.014381  0  0  0.112908  0  1.012842  0  0.082973  0  0.101068  0.10786  0  1.015057  0
H  H4  1  0.02013932  0.83351048  0.47617667  1  0  0.1214  0  0.938646  0  0  0.129689  0  1.000935  0  0  0.133349  0  0.998478  0  0.125312  0  0.111945  0.126999  0  1.002775  0
H  H5  1  0.97985784  0.16649269  0.52382229  1  0  0.121386  0  0.938629  0  0  0.129667  0  1.000939  0  0  0.13333  0  0.998473  0  0.125317  0  0.111937  0.126977  0  1.002778  0
H  H6  1  0.80089939  0.47289105  0.42389348  1  0  0.090871  0  0.970686  0  0  0.099928  0  1.039347  0  0  0.102963  0  1.037214  0  0.068183  0  0.099756  0.097751  0  1.040904  0
H  H7  1  0.19910398  0.52711122  0.57610348  1  0  0.090866  0  0.970701  0  0  0.099978  0  1.039304  0  0  0.103014  0  1.037171  0  0.068185  0  0.099803  0.097802  0  1.040861  0
H  H8  1  0.96136857  0.64554990  0.48468538  1  0  0.085231  0  0.964294  0  0  0.09705  0  1.025573  0  0  0.100404  0  1.023133  0  0.061917  0  0.097562  0.094555  0  1.027532  0
H  H9  1  0.03863326  0.35445057  0.51531489  1  0  0.085215  0  0.964303  0  0  0.097045  0  1.025562  0  0  0.100399  0  1.023124  0  0.061911  0  0.09756  0.094547  0  1.02753  0
H  H10  1  0.92123881  0.59844944  0.33094110  1  0  0.088719  0  0.975341  0  0  0.09952  0  1.038668  0  0  0.102566  0  1.03661  0  0.070269  0  0.097971  0.097271  0  1.040267  0
H  H11  1  0.07876576  0.40154744  0.66905934  1  0  0.088711  0  0.97538  0  0  0.099535  0  1.038691  0  0  0.102583  0  1.036627  0  0.070268  0  0.097962  0.097286  0  1.04029  0
H  H12  1  0.96801699  0.79954221  0.07540933  1  0  0.083917  0  0.96196  0  0  0.094505  0  1.025764  0  0  0.096367  0  1.025747  0  0.049861  0  0.098326  0.093411  0  1.025544  0
H  H13  1  0.03198134  0.20045827  0.92459100  1  0  0.083916  0  0.961899  0  0  0.094502  0  1.025715  0  0  0.096364  0  1.025696  0  0.049831  0  0.098337  0.093408  0  1.025495  0
H  H14  1  0.27082779  0.57960674  0.23496565  1  0  0.082741  0  0.97411  0  0  0.091543  0  1.039783  0  0  0.093419  0  1.040701  0  0.077953  0  0.093903  0.090371  0  1.03899  0
H  H15  1  0.72917367  0.42039193  0.76503509  1  0  0.082709  0  0.974126  0  0  0.091512  0  1.0398  0  0  0.093388  0  1.040718  0  0.077923  0  0.093893  0.090339  0  1.039007  0
H  H16  1  0.82979567  0.59983887  0.19283443  1  0  0.090986  0  0.966921  0  0  0.104316  0  1.027393  0  0  0.106474  0  1.027517  0  0.061276  0  0.100421  0.102583  0  1.027469  0
H  H17  1  0.17020306  0.40016070  0.80716894  1  0  0.091022  0  0.966949  0  0  0.104347  0  1.027412  0  0  0.106514  0  1.027527  0  0.061389  0  0.100454  0.102614  0  1.027489  0
H  H18  1  0.29056832  0.68818998  0.35091012  1  0  0.083726  0  1.001175  0  0  0.092912  0  1.066827  0  0  0.094126  0  1.068663  0  0.084449  0  0.095551  0.092048  0  1.065549  0
H  H19  1  0.70943157  0.31180959  0.64909111  1  0  0.083695  0  1.001202  0  0  0.092906  0  1.066824  0  0  0.094121  0  1.068659  0  0.084439  0  0.095549  0.092041  0  1.065548  0
H  H20  1  0.74777231  0.71938478  0.58094530  1  0  0.07973  0  0.953903  0  0  0.089283  0  1.019704  0  0  0.091773  0  1.017261  0  0.082398  0  0.115568  0.087449  0  1.021461  0
H  H21  1  0.25222835  0.28061569  0.41905358  1  0  0.079731  0  0.953901  0  0  0.089283  0  1.019703  0  0  0.091772  0  1.017261  0  0.082406  0  0.115573  0.08745  0  1.021458  0
H  H22  1  0.33497552  0.78619522  0.44247434  1  0  0.092124  0  0.965747  0  0  0.103934  0  1.028617  0  0  0.105648  0  1.028925  0  0.057861  0  0.101698  0.102693  0  1.028426  0
H  H23  1  0.66502554  0.21380435  0.55752546  1  0  0.092143  0  0.965677  0  0  0.103937  0  1.028562  0  0  0.105651  0  1.02887  0  0.057853  0  0.101687  0.102696  0  1.028372  0
H  H24  1  0.23149384  0.93238747  0.52975032  1  0  0.124966  0  0.944116  0  0  0.132297  0  1.00812  0  0  0.135749  0  1.005297  0  0.168006  0  0.111991  0.129773  0  1.010199  0
H  H25  1  0.76850606  0.06761210  0.47024951  1  0  0.124987  0  0.944088  0  0  0.132328  0  1.008081  0  0  0.135779  0  1.00526  0  0.167937  0  0.112007  0.129805  0  1.010158  0
H  H26  1  0.69104778  0.61784935  0.50247190  1  0  0.07613  0  0.965268  0  0  0.089687  0  1.027923  0  0  0.091631  0  1.027659  0  0.033558  0  0.097173  0.08827  0  1.028194  0
H  H27  1  0.30895173  0.38215112  0.49752840  1  0  0.076144  0  0.965251  0  0  0.089701  0  1.027908  0  0  0.091645  0  1.027644  0  0.033563  0  0.097183  0.088285  0  1.028179  0
H  H28  1  0.57006819  0.98028870  0.71965539  1  0  0.08235  0  0.932822  0  0  0.089008  0  0.997798  0  0  0.091508  0  0.995619  0  0.108545  0  0.115362  0.087415  0  0.999056  0
H  H29  1  0.42992940  0.01970817  0.28034729  1  0  0.082358  0  0.932835  0  0  0.089032  0  0.997795  0  0  0.091531  0  0.995618  0  0.107812  0  0.115409  0.087438  0  0.999052  0
H  H30  1  0.28555134  0.04065390  0.64204823  1  0  0.099675  0  0.977445  0  0  0.109472  0  1.037218  0  0  0.110985  0  1.039332  0  0.114676  0  0.10366  0.108474  0  1.03577  0
H  H31  1  0.71444778  0.95934478  0.35795185  1  0  0.099693  0  0.977462  0  0  0.109486  0  1.037237  0  0  0.110998  0  1.039353  0  0.114512  0  0.103665  0.108488  0  1.035789  0
H  H32  1  0.52031019  0.41793751  0.20956006  1  0  0.095109  0  0.963622  0  0  0.101408  0  1.033244  0  0  0.104728  0  1.031174  0  0.095934  0  0.099984  0.099271  0  1.034344  0
H  H33  1  0.47969087  0.58206206  0.79044045  1  0  0.095054  0  0.963631  0  0  0.101351  0  1.033267  0  0  0.104672  0  1.031195  0  0.095897  0  0.099959  0.099213  0  1.034366  0
H  H34  1  0.74438275  0.49188384  0.10161843  1  0  0.104265  0  0.958184  0  0  0.114352  0  1.022001  0  0  0.116877  0  1.020798  0  0.106766  0  0.106406  0.112492  0  1.022793  0
H  H35  1  0.25561637  0.50811484  0.89838165  1  0  0.104234  0  0.958246  0  0  0.114312  0  1.022059  0  0  0.116836  0  1.020861  0  0.106761  0  0.106395  0.11245  0  1.022852  0
H  H36  1  0.69482465  0.46073667  0.94214018  1  0  0.093256  0  1.005717  0  0  0.098576  0  1.073125  0  0  0.101157  0  1.073327  0  0.103987  0  0.093309  0.09688  0  1.073168  0
H  H37  1  0.30517641  0.53926290  0.05785893  1  0  0.093215  0  1.005735  0  0  0.098548  0  1.073133  0  0  0.10113  0  1.073334  0  0.103952  0  0.093301  0.096851  0  1.073175  0
H  H38  1  0.76444665  0.59481050  0.78522315  1  0  0.072337  0  0.950421  0  0  0.08216  0  1.017605  0  0  0.084566  0  1.015576  0  0.104034  0  0.114175  0.080263  0  1.019197  0
H  H39  1  0.23555285  0.40518997  0.21477646  1  0  0.07233  0  0.950436  0  0  0.082159  0  1.017609  0  0  0.084565  0  1.01558  0  0.104031  0  0.114176  0.080264  0  1.019208  0
H  H40  1  0.92170438  0.78287982  0.93694376  1  0  0.092764  0  0.937445  0  0  0.100989  0  1.001902  0  0  0.103697  0  0.999171  0  0.111815  0  0.119998  0.099169  0  1.003652  0
H  H41  1  0.07829513  0.21711796  0.06305795  1  0  0.092827  0  0.937462  0  0  0.10103  0  1.001905  0  0  0.103736  0  0.999182  0  0.111773  0  0.120034  0.099215  0  1.00365  0
C  C42  1  0.60967387  0.07581028  0.04809459  1  0  0.242505  0  3.631578  0  0  0.239268  0  3.886968  0  0  0.255159  0  3.90685  0  -0.392298  0  0.089368  0.228373  0  3.874086  0
C  C43  1  0.39031902  0.92419199  0.95190257  1  0  0.242538  0  3.631452  0  0  0.239306  0  3.886837  0  0  0.255198  0  3.906718  0  -0.39249  0  0.089384  0.228412  0  3.873958  0
C  C44  1  0.58960666  0.11823557  0.94977507  1  0  -0.275709  0  3.336466  0  0  -0.260862  0  3.573426  0  0  -0.273131  0  3.593138  0  0.323986  0  -0.099584  -0.254204  0  3.561189  0
C  C45  1  0.41039243  0.88176850  0.05022150  1  0  -0.275689  0  3.336332  0  0  -0.260842  0  3.573287  0  0  -0.273111  0  3.592999  0  0.324225  0  -0.099559  -0.254183  0  3.561048  0
C  C46  1  0.64232137  0.20938711  0.94841218  1  0  0.256566  0  3.622609  0  0  0.257053  0  3.871716  0  0  0.274184  0  3.89023  0  -0.356013  0  0.091839  0.244772  0  3.86023  0
C  C47  1  0.35768124  0.79061426  0.05158502  1  0  0.256565  0  3.622538  0  0  0.257054  0  3.87165  0  0  0.274184  0  3.890165  0  -0.355845  0  0.09184  0.244771  0  3.860163  0
C  C48  1  0.69874861  0.26581096  0.99915166  1  0  -0.290196  0  3.387797  0  0  -0.266643  0  3.632948  0  0  -0.279094  0  3.651088  0  0.32978  0  -0.082683  -0.26034  0  3.622578  0
C  C49  1  0.30125790  0.73418681  0.00084710  1  0  -0.290189  0  3.387721  0  0  -0.266637  0  3.632879  0  0  -0.279087  0  3.651019  0  0.330035  0  -0.082697  -0.260333  0  3.622509  0
C  C50  1  0.69190140  0.18697197  0.08575739  1  0  0.298626  0  3.551705  0  0  0.295002  0  3.801539  0  0  0.314442  0  3.815919  0  -0.341631  0  0.107189  0.280919  0  3.793398  0
C  C51  1  0.30810045  0.81302580  0.91424146  1  0  0.298545  0  3.55162  0  0  0.294921  0  3.801467  0  0  0.314361  0  3.81585  0  -0.341982  0  0.107163  0.280839  0  3.793325  0
C  C52  1  0.65530759  0.08788288  0.13175548  1  0  -0.24964  0  3.376041  0  0  -0.228701  0  3.619682  0  0  -0.240264  0  3.639644  0  0.396748  0  -0.068761  -0.223275  0  3.60799  0
C  C53  1  0.34468958  0.91211759  0.86824136  1  0  -0.24962  0  3.375951  0  0  -0.228685  0  3.619597  0  0  -0.240249  0  3.63956  0  0.396628  0  -0.068766  -0.223263  0  3.607908  0
C  C54  1  0.06128450  0.00048801  0.31106923  1  0  0.616984  0  3.928772  0  0  0.571032  0  4.214255  0  0  0.604717  0  4.208652  0  1.542143  0  0.189405  0.54831  0  4.217128  0
C  C55  1  0.93871344  0.99951336  0.68892877  1  0  0.617032  0  3.92867  0  0  0.571114  0  4.214121  0  0  0.604799  0  4.208516  0  1.542168  0  0.189496  0.548391  0  4.216996  0
C  C56  1  0.82400963  0.34616880  0.29455857  1  0  0.619619  0  3.926722  0  0  0.575818  0  4.211417  0  0  0.610222  0  4.204586  0  1.530111  0  0.191955  0.552312  0  4.215115  0
C  C57  1  0.17598987  0.65383167  0.70544104  1  0  0.619564  0  3.926839  0  0  0.575754  0  4.211542  0  0  0.610158  0  4.204712  0  1.530111  0  0.191918  0.55225  0  4.215238  0
C  C58  1  0.67522890  0.43790991  0.31409923  1  0  -0.068586  0  3.794522  0  0  -0.04293  0  4.026707  0  0  -0.051251  0  4.050979  0  0.058873  0  -0.022649  -0.037721  0  4.010359  0
C  C59  1  0.32477177  0.56209056  0.68590105  1  0  -0.068632  0  3.794613  0  0  -0.04298  0  4.026815  0  0  -0.051303  0  4.051089  0  0.058967  0  -0.0227  -0.037778  0  4.010468  0
C  C60  1  0.02589215  0.88743766  0.31731870  1  0  -0.061827  0  3.788515  0  0  -0.036338  0  4.021007  0  0  -0.043897  0  4.042965  0  -0.046637  0  -0.017921  -0.031571  0  4.00609  0
C  C61  1  0.97410735  0.11256281  0.68268091  1  0  -0.061809  0  3.788409  0  0  -0.036337  0  4.020912  0  0  -0.043896  0  4.042869  0  -0.046657  0  -0.017923  -0.031569  0  4.005998  0
C  C62  1  0.00612467  0.86013166  0.23085796  1  0  -0.111104  0  3.693298  0  0  -0.146107  0  3.945586  0  0  -0.148009  0  3.967092  0  -0.004241  0  -0.080183  -0.143995  0  3.929946  0
C  C63  1  0.99387716  0.13986882  0.76914231  1  0  -0.111128  0  3.693201  0  0  -0.146127  0  3.945484  0  0  -0.148031  0  3.96699  0  -0.004465  0  -0.080191  -0.14402  0  3.929844  0
C  C64  1  0.00710432  0.81078078  0.40904504  1  0  -0.074538  0  3.703029  0  0  -0.099859  0  3.954011  0  0  -0.098449  0  3.97126  0  -0.084496  0  -0.080013  -0.100647  0  3.942527  0
C  C65  1  0.99289634  0.18921969  0.59095595  1  0  -0.074577  0  3.70302  0  0  -0.099909  0  3.954037  0  0  -0.098497  0  3.971288  0  -0.084481  0  -0.080041  -0.100695  0  3.942552  0
C  C66  1  0.68460601  0.49833849  0.38159424  1  0  -0.109758  0  3.693016  0  0  -0.141918  0  3.940422  0  0  -0.143065  0  3.960907  0  -0.079818  0  -0.080443  -0.140705  0  3.926307  0
C  C67  1  0.31539542  0.50166288  0.61840509  1  0  -0.109762  0  3.69303  0  0  -0.141968  0  3.94043  0  0  -0.143115  0  3.960918  0  -0.079799  0  -0.080456  -0.140751  0  3.926316  0
C  C68  1  0.97149637  0.70632269  0.41284445  1  0  -0.07839  0  3.789768  0  0  -0.091511  0  4.045563  0  0  -0.095087  0  4.066884  0  -0.003666  0  -0.092187  -0.089257  0  4.031315  0
C  C69  1  0.02850857  0.29367598  0.58715551  1  0  -0.078337  0  3.789682  0  0  -0.091449  0  4.045485  0  0  -0.095027  0  4.066809  0  -0.003659  0  -0.092167  -0.089195  0  4.031234  0
C  C70  1  0.96315052  0.75825381  0.23346685  1  0  0.080501  0  3.828808  0  0  0.101364  0  4.06051  0  0  0.100534  0  4.086412  0  -0.01345  0  -0.014046  0.102025  0  4.042362  0
C  C71  1  0.03685443  0.24174486  0.76653382  1  0  0.080481  0  3.828783  0  0  0.101368  0  4.060455  0  0  0.100539  0  4.086357  0  -0.013108  0  -0.014053  0.10203  0  4.042311  0
C  C72  1  0.94909114  0.68022457  0.32654405  1  0  -0.099384  0  3.698264  0  0  -0.115575  0  3.933697  0  0  -0.116264  0  3.953549  0  -0.097313  0  -0.084442  -0.114948  0  3.920234  0
C  C73  1  0.05091341  0.31977500  0.67345710  1  0  -0.099371  0  3.698225  0  0  -0.115607  0  3.933671  0  0  -0.116296  0  3.953523  0  -0.097463  0  -0.084426  -0.11498  0  3.920206  0
C  C74  1  0.93379976  0.73944975  0.14022889  1  0  -0.102984  0  3.760682  0  0  -0.12665  0  4.018517  0  0  -0.130875  0  4.043469  0  -0.030833  0  -0.086303  -0.123467  0  4.000623  0
C  C75  1  0.06620130  0.26054982  0.85977163  1  0  -0.102915  0  3.760704  0  0  -0.12659  0  4.018523  0  0  -0.130814  0  4.043477  0  -0.030796  0  -0.086281  -0.123409  0  4.000635  0
C  C76  1  0.54859879  0.59066108  0.39543259  1  0  0.083267  0  3.819029  0  0  0.105509  0  4.046857  0  0  0.105272  0  4.07144  0  -0.013494  0  -0.011816  0.105575  0  4.029962  0
C  C77  1  0.45140188  0.40933940  0.60456699  1  0  0.083295  0  3.819049  0  0  0.105531  0  4.046896  0  0  0.105294  0  4.071479  0  -0.013483  0  -0.011817  0.105594  0  4.030005  0
C  C78  1  0.38813627  0.55653643  0.27557660  1  0  -0.084753  0  3.791616  0  0  -0.097078  0  4.048077  0  0  -0.10188  0  4.072431  0  -0.075783  0  -0.098808  -0.093565  0  4.030677  0
C  C79  1  0.61186440  0.44346404  0.72442298  1  0  -0.084682  0  3.791617  0  0  -0.097003  0  4.048079  0  0  -0.101804  0  4.072433  0  -0.075762  0  -0.098772  -0.09349  0  4.030676  0
C  C80  1  0.86686857  0.65833788  0.12821149  1  0  -0.111057  0  3.758898  0  0  -0.134202  0  4.01232  0  0  -0.137343  0  4.036817  0  -0.055256  0  -0.091777  -0.131381  0  3.995075  0
C  C81  1  0.13312744  0.34166259  0.87179030  1  0  -0.111099  0  3.758955  0  0  -0.134237  0  4.012367  0  0  -0.137386  0  4.03686  0  -0.055703  0  -0.091796  -0.131417  0  3.995124  0
C  C82  1  0.39919901  0.61823491  0.34139842  1  0  -0.086147  0  3.686175  0  0  -0.10394  0  3.922626  0  0  -0.104721  0  3.943982  0  -0.047794  0  -0.081917  -0.102992  0  3.907612  0
C  C83  1  0.60080282  0.38176557  0.65860114  1  0  -0.086147  0  3.686239  0  0  -0.103963  0  3.922671  0  0  -0.104744  0  3.944027  0  -0.047806  0  -0.081951  -0.103014  0  3.907657  0
C  C84  1  0.63954084  0.78821915  0.59270193  1  0  0.085156  0  3.645033  0  0  0.047487  0  3.891555  0  0  0.052857  0  3.910098  0  0.470375  0  0.051323  0.044308  0  3.878834  0
C  C85  1  0.36045828  0.21177952  0.40729955  1  0  0.085161  0  3.645015  0  0  0.047478  0  3.891565  0  0  0.052847  0  3.910113  0  0.470273  0  0.051306  0.0443  0  3.878843  0
C  C86  1  0.45763070  0.75052027  0.48005927  1  0  -0.102425  0  3.733094  0  0  -0.125412  0  3.986134  0  0  -0.128275  0  4.010671  0  -0.005603  0  -0.087332  -0.122891  0  3.968908  0
C  C87  1  0.54236880  0.24948020  0.51994034  1  0  -0.10241  0  3.733043  0  0  -0.125378  0  3.986072  0  0  -0.128239  0  4.010608  0  -0.005616  0  -0.087298  -0.122856  0  3.968846  0
C  C88  1  0.35445795  0.90745320  0.56446269  1  0  -0.034712  0  3.609134  0  0  -0.061594  0  3.855573  0  0  -0.058821  0  3.873019  0  -0.092988  0  -0.057073  -0.063163  0  3.843772  0
C  C89  1  0.64554118  0.09254547  0.43553879  1  0  -0.034711  0  3.609112  0  0  -0.061603  0  3.855561  0  0  -0.05883  0  3.873009  0  -0.092948  0  -0.057087  -0.06317  0  3.84376  0
C  C90  1  0.48462894  0.81416988  0.54610605  1  0  0.046833  0  3.808819  0  0  0.068885  0  4.043706  0  0  0.065135  0  4.069635  0  0.041471  0  -0.002757  0.070946  0  4.026291  0
C  C91  1  0.51537019  0.18582879  0.45389544  1  0  0.046852  0  3.808741  0  0  0.068915  0  4.043616  0  0  0.065162  0  4.069547  0  0.041485  0  -0.002732  0.070974  0  4.026203  0
C  C92  1  0.56966636  0.65397726  0.46317247  1  0  -0.092658  0  3.746928  0  0  -0.115742  0  4.000194  0  0  -0.120131  0  4.025738  0  -0.05792  0  -0.083498  -0.112524  0  3.982399  0
C  C93  1  0.43033353  0.34602231  0.53682736  1  0  -0.092715  0  3.746952  0  0  -0.115801  0  4.00022  0  0  -0.120189  0  4.025763  0  -0.057924  0  -0.083538  -0.112582  0  3.982426  0
C  C94  1  0.54079622  0.93549347  0.67036434  1  0  0.116228  0  3.705099  0  0  0.077201  0  3.967103  0  0  0.083038  0  3.986048  0  0.433114  0  0.042028  0.074028  0  3.953388  0
C  C95  1  0.45920213  0.06450430  0.32963739  1  0  0.11629  0  3.705152  0  0  0.077266  0  3.967151  0  0  0.083103  0  3.986093  0  0.433828  0  0.042021  0.074093  0  3.953434  0
C  C96  1  0.38372351  0.96829520  0.62664479  1  0  -0.097795  0  3.747283  0  0  -0.112059  0  4.003474  0  0  -0.119031  0  4.026916  0  0.031357  0  -0.079402  -0.10744  0  3.987253  0
C  C97  1  0.61627484  0.03170258  0.37335694  1  0  -0.097876  0  3.747312  0  0  -0.112148  0  4.00352  0  0  -0.119119  0  4.026961  0  0.031577  0  -0.07942  -0.107528  0  3.987298  0
C  C98  1  0.52553847  0.46693609  0.26111670  1  0  -0.073564  0  3.738897  0  0  -0.103741  0  3.994986  0  0  -0.104644  0  4.017618  0  -0.098576  0  -0.087058  -0.102397  0  3.978724  0
C  C99  1  0.47446142  0.53306349  0.73888383  1  0  -0.07351  0  3.738953  0  0  -0.103687  0  3.99504  0  0  -0.10459  0  4.017672  0  -0.098635  0  -0.087027  -0.102341  0  3.978777  0
C  C100  1  0.83643850  0.64081631  0.03470186  1  0  0.048297  0  3.811108  0  0  0.068876  0  4.04733  0  0  0.065352  0  4.073173  0  -0.001263  0  -0.003948  0.070956  0  4.02953  0
C  C101  1  0.16355907  0.35918326  0.96530013  1  0  0.04828  0  3.811092  0  0  0.068858  0  4.047267  0  0  0.065334  0  4.073112  0  -0.000934  0  -0.004002  0.070938  0  4.029468  0
C  C102  1  0.77081821  0.55007818  0.03289073  1  0  -0.047265  0  3.656178  0  0  -0.07339  0  3.90119  0  0  -0.07143  0  3.920574  0  -0.081732  0  -0.063794  -0.074096  0  3.887565  0
C  C103  1  0.22918131  0.44991960  0.96711098  1  0  -0.047289  0  3.656253  0  0  -0.073405  0  3.901267  0  0  -0.071446  0  3.920652  0  -0.081741  0  -0.063786  -0.074109  0  3.887639  0
C  C104  1  0.74283615  0.53249909  0.94366203  1  0  -0.116661  0  3.771159  0  0  -0.127147  0  4.022521  0  0  -0.134855  0  4.045877  0  0.03755  0  -0.087201  -0.122031  0  4.006385  0
C  C105  1  0.25716335  0.46750138  0.05633828  1  0  -0.116603  0  3.771044  0  0  -0.1271  0  4.022391  0  0  -0.134808  0  4.045746  0  0.037662  0  -0.087214  -0.121982  0  4.006255  0
C  C106  1  0.78197772  0.60504789  0.85728081  1  0  0.113002  0  3.710608  0  0  0.079793  0  3.961722  0  0  0.086185  0  3.980764  0  0.420546  0  0.040113  0.075773  0  3.948789  0
C  C107  1  0.21802257  0.39495078  0.14271995  1  0  0.113024  0  3.710497  0  0  0.079833  0  3.961627  0  0  0.086226  0  3.980667  0  0.420551  0  0.040151  0.075806  0  3.9487  0
C  C108  1  0.87115063  0.71029506  0.94329220  1  0  0.099638  0  3.620435  0  0  0.062255  0  3.864069  0  0  0.067929  0  3.882294  0  0.514911  0  0.059105  0.058989  0  3.851195  0
C  C109  1  0.12884733  0.28970361  0.05671001  1  0  0.099539  0  3.620293  0  0  0.062225  0  3.863901  0  0  0.067897  0  3.882127  0  0.514943  0  0.059119  0.058958  0  3.851024  0
N  N110  1  0.66622885  0.84657077  0.65312649  1  0  -0.324711  0  3.356208  0  0  -0.242827  0  3.634405  0  0  -0.262278  0  3.652855  0  -1.262996  0  -0.333673  -0.229714  0  3.621375  0
N  N111  1  0.33377067  0.15342700  0.34687592  1  0  -0.324765  0  3.356309  0  0  -0.242881  0  3.634494  0  0  -0.262332  0  3.652943  0  -1.262907  0  -0.333705  -0.229767  0  3.621463  0
N  N112  1  0.84473236  0.69231065  0.85781921  1  0  -0.316515  0  3.344175  0  0  -0.234477  0  3.61505  0  0  -0.253255  0  3.632446  0  -1.251008  0  -0.327247  -0.221841  0  3.602973  0
N  N113  1  0.15526754  0.30768893  0.14218344  1  0  -0.316435  0  3.343994  0  0  -0.234472  0  3.614918  0  0  -0.25325  0  3.632313  0  -1.251076  0  -0.327269  -0.221838  0  3.602845  0
O  O114  1  0.96325572  0.32815113  0.33909554  1  0  -0.645619  0  1.970893  0  0  -0.578883  0  2.224455  0  0  -0.607572  0  2.21231  0  -1.168222  0  -0.336368  -0.558261  0  2.231761  0
O  O115  1  0.03674494  0.67184934  0.66090404  1  0  -0.645606  0  1.970872  0  0  -0.578866  0  2.224435  0  0  -0.607554  0  2.21229  0  -1.168234  0  -0.336367  -0.558244  0  2.23174  0
O  O116  1  0.04797123  0.03743286  0.38589419  1  0  -0.604096  0  1.940786  0  0  -0.54913  0  2.175744  0  0  -0.573924  0  2.166505  0  -1.164671  0  -0.31139  -0.531989  0  2.181547  0
O  O117  1  0.95202397  0.96257210  0.61410293  1  0  -0.604127  0  1.940797  0  0  -0.54915  0  2.175711  0  0  -0.573945  0  2.166476  0  -1.164809  0  -0.311427  -0.532009  0  2.181515  0
O  O118  1  0.10277038  0.05850980  0.22790946  1  0  -0.637238  0  1.974711  0  0  -0.577661  0  2.2239  0  0  -0.605881  0  2.212314  0  -1.1688  0  -0.338061  -0.55745  0  2.230608  0
O  O119  1  0.89723185  0.94148978  0.77208892  1  0  -0.63726  0  1.974669  0  0  -0.577698  0  2.223852  0  0  -0.605918  0  2.212266  0  -1.168768  0  -0.33812  -0.557486  0  2.230561  0
O  O120  1  0.81238556  0.29215264  0.23364908  1  0  -0.608097  0  1.911688  0  0  -0.560364  0  2.140269  0  0  -0.586277  0  2.132118  0  -1.166996  0  -0.32285  -0.541105  0  2.144784  0
O  O121  1  0.18761317  0.70784693  0.76635077  1  0  -0.608022  0  1.91176  0  0  -0.560283  0  2.140333  0  0  -0.586194  0  2.132184  0  -1.166984  0  -0.322803  -0.541022  0  2.144846  0
