# generated using pymatgen
data_Cu2Mo4H16C10N6O13
_symmetry_space_group_name_H-M   'P 1'
_cell_length_a   9.74794444
_cell_length_b   11.82905239
_cell_length_c   12.08630000
_cell_angle_alpha   113.16586937
_cell_angle_beta   105.82883599
_cell_angle_gamma   104.76124624
_symmetry_Int_Tables_number   1
_chemical_formula_structural   Cu2Mo4H16C10N6O13
_chemical_formula_sum   'Cu4 Mo8 H32 C20 N12 O26'
_cell_volume   1124.67573190
_cell_formula_units_Z   2
loop_
 _symmetry_equiv_pos_site_id
 _symmetry_equiv_pos_as_xyz
  1  'x, y, z'
loop_
 _atom_site_type_symbol
 _atom_site_label
 _atom_site_symmetry_multiplicity
 _atom_site_fract_x
 _atom_site_fract_y
 _atom_site_fract_z
 _atom_site_occupancy
 _atom_site_pbe_bader_charge
 _atom_site_pbe_bader_spin_density
 _atom_site_pbe_cm5_charge
 _atom_site_pbe_ddec_charge
 _atom_site_pbe_ddec_spin_density
 _atom_site_pbe_ddec_sum_bond_order
 _atom_site_pbe_magmom
Cu  Cu0  1  0.26967669  0.76824555  0.53808099  1  0.799055  0  0.57643  0.521945  0  2.368989  0
Cu  Cu1  1  0.73032254  0.23175332  0.46191799  1  0.799063  0  0.576442  0.521952  0  2.368951  0
Cu  Cu2  1  0.69670422  0.69698134  0.39297983  1  0.709825  0  0.544453  0.451561  0  2.136177  0
Cu  Cu3  1  0.30329666  0.30301652  0.60702078  1  0.70995  0  0.544405  0.451529  0  2.136146  0
Mo  Mo4  1  0.31645475  0.74863202  0.99971496  1  2.575044  0  1.502626  2.079297  0  4.686188  0
Mo  Mo5  1  0.68354709  0.25136786  0.00028498  1  2.575019  0  1.502623  2.07932  0  4.68615  0
Mo  Mo6  1  0.29768222  0.66561339  0.22565344  1  2.571981  0  1.477507  2.107023  0  4.610478  0
Mo  Mo7  1  0.92962493  0.56133040  0.22730564  1  2.56944  0  1.476881  2.105184  0  4.611371  0
Mo  Mo8  1  0.70231844  0.33438850  0.77434785  1  2.57202  0  1.477527  2.107018  0  4.610358  0
Mo  Mo9  1  0.07037515  0.43867250  0.77269260  1  2.569544  0  1.476897  2.105162  0  4.611291  0
Mo  Mo10  1  0.05906756  0.36233584  0.99868261  1  2.597695  0  1.488946  2.142169  0  4.634216  0
Mo  Mo11  1  0.94093571  0.63766706  0.00131716  1  2.597603  0  1.488826  2.141942  0  4.634473  0
H  H12  1  0.61882617  0.87551981  0.65796300  1  0.015878  0  0.087054  0.076696  0  1.018786  0
H  H13  1  0.04092232  0.78150466  0.65782133  1  0.034773  0  0.087072  0.077281  0  1.017381  0
H  H14  1  0.38117353  0.12448007  0.34203895  1  0.015858  0  0.087052  0.076694  0  1.018803  0
H  H15  1  0.95907430  0.21849319  0.34217503  1  0.034622  0  0.087085  0.077318  0  1.017317  0
H  H16  1  0.73873422  0.99712955  0.82619244  1  0.091276  0  0.099571  0.120115  0  0.99376  0
H  H17  1  0.08726300  0.82937394  0.82595001  1  0.085585  0  0.100289  0.120888  0  0.990163  0
H  H18  1  0.26126453  0.00286831  0.17380688  1  0.091242  0  0.099562  0.120086  0  0.993787  0
H  H19  1  0.91273576  0.17062392  0.17404765  1  0.085589  0  0.100284  0.120879  0  0.990185  0
H  H20  1  0.16425752  0.45440183  0.44257249  1  0.164484  0  0.15067  0.131509  0  0.958011  0
H  H21  1  0.27872903  0.98561097  0.44236479  1  0.176713  0  0.150775  0.132348  0  0.957186  0
H  H22  1  0.83574171  0.54559704  0.55742649  1  0.164497  0  0.150678  0.131537  0  0.957997  0
H  H23  1  0.72127328  0.01438991  0.55763647  1  0.176722  0  0.150779  0.132359  0  0.957198  0
H  H24  1  0.62465195  0.82991313  0.89272056  1  0.086736  0  0.123474  0.115107  0  0.978128  0
H  H25  1  0.26718961  0.06411562  0.89359766  1  0.082992  0  0.123381  0.116447  0  0.977082  0
H  H26  1  0.37534562  0.17008674  0.10728093  1  0.086753  0  0.123476  0.115105  0  0.978077  0
H  H27  1  0.73280914  0.93588224  0.10640082  1  0.082959  0  0.123388  0.11647  0  0.977061  0
H  H28  1  0.49319109  0.88451678  0.81901700  1  0.096431  0  0.11194  0.093007  0  1.05199  0
H  H29  1  0.32558709  0.93513543  0.81858775  1  0.091844  0  0.112197  0.09265  0  1.051016  0
H  H30  1  0.50680708  0.11548209  0.18098340  1  0.096445  0  0.111973  0.093025  0  1.052015  0
H  H31  1  0.67440952  0.06486243  0.18141027  1  0.091833  0  0.112205  0.09264  0  1.050999  0
H  H32  1  0.55117879  0.58192859  0.79429516  1  0.268207  0  0.154226  0.15512  0  0.982268  0
H  H33  1  0.24360336  0.21410003  0.79629133  1  0.247181  0  0.153595  0.15443  0  0.985854  0
H  H34  1  0.44882199  0.41807129  0.20570455  1  0.268214  0  0.154218  0.155126  0  0.982251  0
H  H35  1  0.75639635  0.78589984  0.20370897  1  0.247168  0  0.153596  0.154399  0  0.985954  0
H  H36  1  0.75602574  0.72940348  0.66783031  1  -0.006157  0  0.076793  0.056324  0  1.043048  0
H  H37  1  0.91321496  0.93755827  0.66821206  1  -0.008668  0  0.076906  0.057787  0  1.038805  0
H  H38  1  0.24397195  0.27059438  0.33217042  1  -0.006144  0  0.07679  0.056313  0  1.043115  0
H  H39  1  0.08678309  0.06244261  0.33178992  1  -0.00844  0  0.076909  0.057787  0  1.038777  0
H  H40  1  0.84486972  0.82031549  0.84271957  1  0.033373  0  0.090283  0.090713  0  0.985865  0
H  H41  1  0.99724337  0.02299785  0.84310364  1  0.030595  0  0.090422  0.0911  0  0.988124  0
H  H42  1  0.15512998  0.17968438  0.15728156  1  0.033395  0  0.090292  0.090734  0  0.985852  0
H  H43  1  0.00275586  0.97700101  0.15689782  1  0.030589  0  0.090427  0.091098  0  0.988173  0
C  C44  1  0.68202594  0.88819639  0.75579705  1  -0.028271  0  -0.166805  -0.171401  0  3.928097  0
C  C45  1  0.07439011  0.86747625  0.75584178  1  -0.037716  0  -0.167376  -0.170256  0  3.927967  0
C  C46  1  0.31797222  0.11180247  0.24420417  1  -0.028182  0  -0.166816  -0.171397  0  3.928091  0
C  C47  1  0.92560805  0.13252261  0.24415614  1  -0.037555  0  -0.1674  -0.170364  0  3.927973  0
C  C48  1  0.26893412  0.51541834  0.53470186  1  0.973674  0  0.161756  0.16319  0  3.900807  0
C  C49  1  0.26647363  0.01786191  0.53508476  1  0.982803  0  0.161142  0.16317  0  3.899625  0
C  C50  1  0.73106404  0.48458052  0.46529772  1  0.973667  0  0.161772  0.163149  0  3.90093  0
C  C51  1  0.73352347  0.98213696  0.46491292  1  0.982809  0  0.161135  0.163169  0  3.899664  0
C  C52  1  0.56522056  0.82813732  0.80046359  1  0.305904  0  -0.049499  -0.106953  0  3.898555  0
C  C53  1  0.23530161  0.97304021  0.80091483  1  0.299279  0  -0.049642  -0.109179  0  3.899261  0
C  C54  1  0.43477962  0.17186356  0.19953803  1  0.305871  0  -0.049544  -0.106956  0  3.898479  0
C  C55  1  0.76469608  0.02695765  0.19908342  1  0.299287  0  -0.049622  -0.109081  0  3.899171  0
C  C56  1  0.46634645  0.57898973  0.71223068  1  0.966601  0  0.18038  0.120026  0  3.788574  0
C  C57  1  0.24650879  0.13401320  0.71368066  1  0.978051  0  0.180343  0.120415  0  3.782361  0
C  C58  1  0.53365576  0.42101317  0.28777217  1  0.966622  0  0.180342  0.119965  0  3.788648  0
C  C59  1  0.75348783  0.86598465  0.28631653  1  0.977936  0  0.180302  0.120423  0  3.782323  0
C  C60  1  0.80604437  0.83138760  0.75428981  1  -0.010276  0  -0.170318  -0.141316  0  3.950181  0
C  C61  1  0.94882081  0.92266243  0.75446878  1  -0.001556  0  -0.17067  -0.14461  0  3.952208  0
C  C62  1  0.19395486  0.16861127  0.24571082  1  -0.010278  0  -0.170341  -0.141348  0  3.950303  0
C  C63  1  0.05117629  0.07733644  0.24553056  1  -0.001806  0  -0.170654  -0.144549  0  3.952168  0
N  N64  1  0.33474802  0.64960389  0.59365970  1  -0.709467  0  -0.267851  -0.233138  0  3.514816  0
N  N65  1  0.25978394  0.94332210  0.59404120  1  -0.716172  0  -0.267616  -0.232152  0  3.513021  0
N  N66  1  0.66525062  0.35039599  0.40634120  1  -0.709473  0  -0.267847  -0.23317  0  3.514853  0
N  N67  1  0.74021529  0.05667677  0.40595696  1  -0.716158  0  -0.267609  -0.232093  0  3.513006  0
N  N68  1  0.34728255  0.46788670  0.60480622  1  -1.221029  0  -0.388448  -0.304149  0  3.704167  0
N  N69  1  0.25827584  0.13647838  0.60595116  1  -1.210396  0  -0.388211  -0.303948  0  3.702966  0
N  N70  1  0.65271775  0.53211217  0.39519382  1  -1.220952  0  -0.388429  -0.304018  0  3.704277  0
N  N71  1  0.74172445  0.86352049  0.39404971  1  -1.21027  0  -0.388206  -0.304007  0  3.702878  0
N  N72  1  0.45992688  0.68754495  0.70585824  1  -0.825252  0  -0.129219  0.18864  0  3.698275  0
N  N73  1  0.24671994  0.01884657  0.70683038  1  -0.824916  0  -0.12784  0.190554  0  3.694412  0
N  N74  1  0.54007117  0.31245593  0.29414291  1  -0.825254  0  -0.129201  0.188648  0  3.698239  0
N  N75  1  0.75327833  0.98115028  0.29316761  1  -0.824943  0  -0.127868  0.190469  0  3.694477  0
O  O76  1  0.35051931  0.80255033  0.18147877  1  -1.001376  0  -0.592183  -0.825465  0  1.988214  0
O  O77  1  0.83159004  0.37940559  0.18164004  1  -1.002253  0  -0.592192  -0.823565  0  1.990994  0
O  O78  1  0.64948029  0.19745156  0.81852228  1  -1.001403  0  -0.59221  -0.825472  0  1.98825  0
O  O79  1  0.16841372  0.62059832  0.81836022  1  -1.002258  0  -0.592173  -0.823553  0  1.99098  0
O  O80  1  0.34707103  0.76451655  0.39389215  1  -0.898771  0  -0.551721  -0.72787  0  1.989563  0
O  O81  1  0.04703696  0.63044791  0.39507991  1  -0.89805  0  -0.551659  -0.726888  0  1.9843  0
O  O82  1  0.65293117  0.23548635  0.60610903  1  -0.898733  0  -0.551731  -0.727905  0  1.989556  0
O  O83  1  0.95296941  0.36955700  0.60491884  1  -0.898088  0  -0.55167  -0.726855  0  1.98428  0
O  O84  1  0.15028596  0.54748674  0.99968509  1  -1.241332  0  -0.616076  -1.159745  0  2.129519  0
O  O85  1  0.84971732  0.45251616  0.00031385  1  -1.241318  0  -0.616068  -1.159772  0  2.12965  0
O  O86  1  0.05077466  0.69025906  0.18701360  1  -1.077531  0  -0.601741  -0.91998  0  2.071464  0
O  O87  1  0.13502844  0.49655767  0.18524266  1  -1.078838  0  -0.60221  -0.920916  0  2.072161  0
O  O88  1  0.94923016  0.30974485  0.81298855  1  -1.077498  0  -0.601754  -0.919979  0  2.071441  0
O  O89  1  0.86497483  0.50344523  0.81475711  1  -1.078831  0  -0.6022  -0.920895  0  2.072188  0
O  O90  1  0.37166888  0.89819515  0.99997375  1  -0.821693  0  -0.506866  -0.634852  0  1.747101  0
O  O91  1  0.62833605  0.10180674  0.00002847  1  -0.821631  0  -0.506849  -0.634848  0  1.747122  0
O  O92  1  0.44634417  0.61270493  0.22389422  1  -0.836493  0  -0.510728  -0.666482  0  1.87133  0
O  O93  1  0.77944427  0.61269284  0.22688201  1  -0.840717  0  -0.511928  -0.667434  0  1.888882  0
O  O94  1  0.55365697  0.38729797  0.77610756  1  -0.836485  0  -0.51072  -0.666441  0  1.871218  0
O  O95  1  0.22055901  0.38731006  0.77311776  1  -0.840803  0  -0.511925  -0.667435  0  1.888787  0
O  O96  1  0.20541630  0.30788337  0.99777266  1  -0.812764  0  -0.50513  -0.639783  0  1.666151  0
O  O97  1  0.79458698  0.69211953  0.00222711  1  -0.812717  0  -0.505086  -0.639732  0  1.666223  0
O  O98  1  0.08478685  0.76274376  0.00131500  1  -0.91944  0  -0.541194  -0.748495  0  1.898491  0
O  O99  1  0.91521750  0.23725913  0.99868665  1  -0.919434  0  -0.541223  -0.748622  0  1.898463  0
O  O100  1  0.46991014  0.70322892  0.99832156  1  -0.806462  0  -0.511922  -0.655976  0  1.673513  0
O  O101  1  0.53009218  0.29677196  0.00167887  1  -0.806437  0  -0.511903  -0.655966  0  1.673488  0
