# generated using pymatgen
data_KH7C7(N2O)4
_symmetry_space_group_name_H-M   'P 1'
_cell_length_a   9.33906250
_cell_length_b   9.38414783
_cell_length_c   13.88340000
_cell_angle_alpha   90.00000000
_cell_angle_beta   90.00000000
_cell_angle_gamma   111.21576466
_symmetry_Int_Tables_number   1
_chemical_formula_structural   KH7C7(N2O)4
_chemical_formula_sum   'K4 H28 C28 N32 O16'
_cell_volume   1134.26455929
_cell_formula_units_Z   4
loop_
 _symmetry_equiv_pos_site_id
 _symmetry_equiv_pos_as_xyz
  1  'x, y, z'
loop_
 _atom_site_type_symbol
 _atom_site_label
 _atom_site_symmetry_multiplicity
 _atom_site_fract_x
 _atom_site_fract_y
 _atom_site_fract_z
 _atom_site_occupancy
 _atom_site_hle17_bader_spin_density
 _atom_site_hle17_ddec_charge
 _atom_site_hle17_ddec_spin_density
 _atom_site_hle17_ddec_sum_bond_order
 _atom_site_hle17_magmom
 _atom_site_hse06_10hf_bader_spin_density
 _atom_site_hse06_10hf_ddec_charge
 _atom_site_hse06_10hf_ddec_spin_density
 _atom_site_hse06_10hf_ddec_sum_bond_order
 _atom_site_hse06_10hf_magmom
 _atom_site_hse06_bader_spin_density
 _atom_site_hse06_ddec_charge
 _atom_site_hse06_ddec_spin_density
 _atom_site_hse06_ddec_sum_bond_order
 _atom_site_hse06_magmom
 _atom_site_pbe_bader_charge
 _atom_site_pbe_bader_spin_density
 _atom_site_pbe_cm5_charge
 _atom_site_pbe_ddec_charge
 _atom_site_pbe_ddec_spin_density
 _atom_site_pbe_ddec_sum_bond_order
 _atom_site_pbe_magmom
K  K0  1  0.42361717  0.26761833  0.01498480  1  0  0.897418  0  0.45049  0  0  0.821171  0  0.661756  0  0  0.839114  0  0.636707  0  0.886482  0  0.776608  0.807537  0  0.680266  0
K  K1  1  0.07638452  0.73238507  0.51498912  1  0  0.897403  0  0.450508  0  0  0.821178  0  0.661724  0  0  0.839118  0  0.636674  0  0.886488  0  0.776605  0.807547  0  0.680235  0
K  K2  1  0.57638439  0.73238507  0.98501016  1  0  0.897404  0  0.450516  0  0  0.82117  0  0.661747  0  0  0.839112  0  0.636695  0  0.886485  0  0.776607  0.807537  0  0.680253  0
K  K3  1  0.92361472  0.26761490  0.48501232  1  0  0.897402  0  0.450504  0  0  0.821162  0  0.661756  0  0  0.839104  0  0.636704  0  0.886485  0  0.776609  0.80753  0  0.680266  0
H  H4  1  0.18026275  0.58783189  0.11993748  1  0  0.110871  0  0.933276  0  0  0.118606  0  0.997851  0  0  0.120963  0  0.99623  0  0.11432  0  0.141476  0.116695  0  0.998905  0
H  H5  1  0.31973918  0.41216921  0.61993604  1  0  0.110892  0  0.933287  0  0  0.118622  0  0.99786  0  0  0.120979  0  0.99624  0  0.114302  0  0.141489  0.116709  0  0.998922  0
H  H6  1  0.81973756  0.41216807  0.88006468  1  0  0.110864  0  0.933346  0  0  0.118588  0  0.997923  0  0  0.120945  0  0.996305  0  0.1143  0  0.14148  0.116674  0  0.998987  0
H  H7  1  0.68026113  0.58783075  0.38006396  1  0  0.110884  0  0.933298  0  0  0.11861  0  0.997876  0  0  0.120966  0  0.996256  0  0.114302  0  0.141483  0.116696  0  0.998937  0
H  H8  1  0.06362887  0.26414558  0.06151807  1  0  0.103468  0  0.972337  0  0  0.116819  0  1.047609  0  0  0.11843  0  1.046132  0  0.101718  0  0.104788  0.115343  0  1.04931  0
H  H9  1  0.43637050  0.73585438  0.56151879  1  0  0.103455  0  0.972342  0  0  0.116787  0  1.047642  0  0  0.118401  0  1.046165  0  0.101733  0  0.104772  0.115312  0  1.049344  0
H  H10  1  0.93637037  0.73585438  0.93848193  1  0  0.103461  0  0.972317  0  0  0.11681  0  1.047594  0  0  0.118427  0  1.046118  0  0.101724  0  0.104776  0.115335  0  1.049296  0
H  H11  1  0.56362939  0.26414444  0.43848121  1  0  0.103439  0  0.972354  0  0  0.116781  0  1.047636  0  0  0.118393  0  1.046162  0  0.101739  0  0.104773  0.115306  0  1.049338  0
H  H12  1  0.02900976  0.31057150  0.18120561  1  0  0.106662  0  0.946584  0  0  0.124909  0  1.013896  0  0  0.125464  0  1.013682  0  0.098006  0  0.103863  0.124545  0  1.013696  0
H  H13  1  0.47099028  0.68942731  0.68120633  1  0  0.10668  0  0.946635  0  0  0.124922  0  1.013939  0  0  0.125477  0  1.013727  0  0.097993  0  0.103869  0.124559  0  1.013739  0
H  H14  1  0.97099163  0.68942846  0.81879439  1  0  0.106666  0  0.946576  0  0  0.124916  0  1.013883  0  0  0.125472  0  1.013669  0  0.098014  0  0.103874  0.124553  0  1.013683  0
H  H15  1  0.52900962  0.31057150  0.31879367  1  0  0.106679  0  0.946629  0  0  0.124924  0  1.013932  0  0  0.125478  0  1.01372  0  0.097982  0  0.103878  0.12456  0  1.013733  0
H  H16  1  0.88893946  0.29390966  0.08910641  1  0  0.09436  0  0.959775  0  0  0.111911  0  1.028838  0  0  0.111464  0  1.031053  0  0.032152  0  0.102415  0.112438  0  1.026634  0
H  H17  1  0.61105965  0.70609030  0.58910641  1  0  0.094368  0  0.959818  0  0  0.111916  0  1.028877  0  0  0.11147  0  1.031091  0  0.032158  0  0.102428  0.112442  0  1.026674  0
H  H18  1  0.11105978  0.70609030  0.91089359  1  0  0.09436  0  0.959804  0  0  0.111912  0  1.02887  0  0  0.111467  0  1.031084  0  0.03215  0  0.102424  0.112439  0  1.026667  0
H  H19  1  0.38894067  0.29390966  0.41089359  1  0  0.094352  0  0.959804  0  0  0.111901  0  1.028866  0  0  0.111455  0  1.03108  0  0.032166  0  0.102421  0.112427  0  1.026663  0
H  H20  1  0.69411485  0.92503309  0.19418082  1  0  0.110501  0  0.975693  0  0  0.12469  0  1.046348  0  0  0.126154  0  1.045394  0  0.094036  0  0.108089  0.123173  0  1.047834  0
H  H21  1  0.80588640  0.07496688  0.69418154  1  0  0.110508  0  0.975709  0  0  0.124706  0  1.046355  0  0  0.126171  0  1.0454  0  0.094031  0  0.108091  0.123189  0  1.047842  0
H  H22  1  0.30588504  0.07496573  0.80581990  1  0  0.110514  0  0.975746  0  0  0.124709  0  1.046387  0  0  0.126173  0  1.045432  0  0.09403  0  0.108107  0.123193  0  1.047873  0
H  H23  1  0.19411392  0.92503309  0.30581918  1  0  0.110512  0  0.975708  0  0  0.124709  0  1.046353  0  0  0.126173  0  1.045398  0  0.09402  0  0.108093  0.123192  0  1.04784  0
H  H24  1  0.66449669  0.05860109  0.11225348  1  0  0.104388  0  0.957249  0  0  0.118765  0  1.030378  0  0  0.119726  0  1.030104  0  0.080113  0  0.109394  0.118715  0  1.029267  0
H  H25  1  0.83550456  0.94139887  0.61225348  1  0  0.104371  0  0.957258  0  0  0.11874  0  1.030408  0  0  0.1197  0  1.030134  0  0.080115  0  0.109388  0.118694  0  1.029284  0
H  H26  1  0.33550469  0.94139887  0.88774652  1  0  0.104379  0  0.957251  0  0  0.118746  0  1.030402  0  0  0.119706  0  1.030129  0  0.080113  0  0.109388  0.118701  0  1.029276  0
H  H27  1  0.16449510  0.05860224  0.38774580  1  0  0.104377  0  0.957251  0  0  0.118735  0  1.03042  0  0  0.119695  0  1.030147  0  0.080241  0  0.109391  0.118693  0  1.029287  0
H  H28  1  0.73345962  0.11953526  0.23056816  1  0  0.113845  0  0.943188  0  0  0.133793  0  1.002785  0  0  0.134568  0  1.002983  0  0.094644  0  0.108247  0.132906  0  1.00345  0
H  H29  1  0.76654163  0.88046471  0.73056888  1  0  0.113854  0  0.943142  0  0  0.13379  0  1.002771  0  0  0.134564  0  1.00297  0  0.09464  0  0.108243  0.132902  0  1.003436  0
H  H30  1  0.26654070  0.88046471  0.76943184  1  0  0.113845  0  0.943181  0  0  0.1338  0  1.002775  0  0  0.134574  0  1.002973  0  0.094648  0  0.108246  0.132912  0  1.00344  0
H  H31  1  0.23345868  0.11953526  0.26943112  1  0  0.11385  0  0.943154  0  0  0.133791  0  1.002772  0  0  0.134565  0  1.002972  0  0.094642  0  0.108245  0.132903  0  1.003437  0
C  C32  1  0.20564481  0.70882460  0.10851809  1  0  0.143471  0  3.663074  0  0  0.081752  0  3.953339  0  0  0.091721  0  3.965676  0  0.996763  0  0.13984  0.075691  0  3.944727  0
C  C33  1  0.29435778  0.29117536  0.60851737  1  0  0.143341  0  3.663199  0  0  0.081631  0  3.953476  0  0  0.091599  0  3.965813  0  0.996773  0  0.139787  0.07557  0  3.944861  0
C  C34  1  0.79435657  0.29117536  0.89148335  1  0  0.143414  0  3.663194  0  0  0.081711  0  3.953468  0  0  0.091679  0  3.965806  0  0.996736  0  0.13981  0.075649  0  3.944852  0
C  C35  1  0.70564254  0.70882460  0.39148263  1  0  0.143366  0  3.663191  0  0  0.081658  0  3.953468  0  0  0.091629  0  3.965804  0  0.996776  0  0.139795  0.075597  0  3.944853  0
C  C36  1  0.18145075  0.93384297  0.09685596  1  0  0.465161  0  3.869684  0  0  0.42565  0  4.150494  0  0  0.44599  0  4.16278  0  1.477248  0  0.323672  0.41216  0  4.143042  0
C  C37  1  0.31855119  0.06615814  0.59685668  1  0  0.465104  0  3.869726  0  0  0.425576  0  4.150556  0  0  0.445916  0  4.162846  0  1.477077  0  0.323662  0.412086  0  4.143104  0
C  C38  1  0.81855064  0.06615699  0.90314404  1  0  0.465149  0  3.869705  0  0  0.425631  0  4.150522  0  0  0.445971  0  4.162812  0  1.477245  0  0.323672  0.412141  0  4.14307  0
C  C39  1  0.68144806  0.93384183  0.40314404  1  0  0.465095  0  3.869735  0  0  0.425577  0  4.15055  0  0  0.445916  0  4.16284  0  1.477068  0  0.323652  0.412087  0  4.143098  0
C  C40  1  0.96999671  0.98897932  0.13114151  1  0  0.525431  0  3.781231  0  0  0.474317  0  4.068488  0  0  0.501184  0  4.074664  0  1.518622  0  0.352157  0.457446  0  4.063583  0
C  C41  1  0.53000454  0.01102064  0.63114223  1  0  0.525434  0  3.781211  0  0  0.474266  0  4.068524  0  0  0.50114  0  4.074693  0  1.518623  0  0.352145  0.457396  0  4.063618  0
C  C42  1  0.03000360  0.01102064  0.86885777  1  0  0.525398  0  3.781276  0  0  0.474259  0  4.06856  0  0  0.501122  0  4.074741  0  1.518625  0  0.352138  0.457389  0  4.063653  0
C  C43  1  0.46999578  0.98897932  0.36885777  1  0  0.525413  0  3.781253  0  0  0.474286  0  4.06852  0  0  0.501149  0  4.074704  0  1.518629  0  0.352154  0.457416  0  4.063615  0
C  C44  1  0.95289118  0.73894304  0.15514211  1  0  0.401649  0  3.799951  0  0  0.366049  0  4.078673  0  0  0.391774  0  4.081685  0  1.196852  0  0.276354  0.34874  0  4.07645  0
C  C45  1  0.54711114  0.26105692  0.65514139  1  0  0.40158  0  3.800029  0  0  0.36596  0  4.078766  0  0  0.391681  0  4.081782  0  1.196868  0  0.276348  0.348651  0  4.076542  0
C  C46  1  0.04710871  0.26105578  0.84485861  1  0  0.401641  0  3.799952  0  0  0.366054  0  4.078653  0  0  0.391779  0  4.081664  0  1.196856  0  0.276391  0.348745  0  4.076429  0
C  C47  1  0.45288918  0.73894304  0.34485861  1  0  0.401558  0  3.800063  0  0  0.365959  0  4.078786  0  0  0.391681  0  4.081801  0  1.196862  0  0.27634  0.348649  0  4.076564  0
C  C48  1  0.86861413  0.57985076  0.18532348  1  0  -0.0947  0  3.522877  0  0  -0.144955  0  3.810726  0  0  -0.156303  0  3.822837  0  0.775213  0  0.161177  -0.137581  0  3.801552  0
C  C49  1  0.63138861  0.42015035  0.68532420  1  0  -0.094696  0  3.522921  0  0  -0.144945  0  3.810779  0  0  -0.156291  0  3.822891  0  0.775219  0  0.161204  -0.137567  0  3.801599  0
C  C50  1  0.13138619  0.42014920  0.81467652  1  0  -0.094709  0  3.522832  0  0  -0.144966  0  3.810685  0  0  -0.156316  0  3.822798  0  0.775226  0  0.161176  -0.137593  0  3.801513  0
C  C51  1  0.36861170  0.57984961  0.31467652  1  0  -0.094696  0  3.522835  0  0  -0.144935  0  3.810712  0  0  -0.156281  0  3.822824  0  0.77522  0  0.161182  -0.13756  0  3.801535  0
C  C52  1  0.97436061  0.24857426  0.11571949  1  0  -0.168704  0  3.633442  0  0  -0.271212  0  3.886181  0  0  -0.267264  0  3.895981  0  0.251633  0  -0.140206  -0.273077  0  3.878865  0
C  C53  1  0.52564064  0.75142571  0.61572021  1  0  -0.168713  0  3.633562  0  0  -0.271206  0  3.886285  0  0  -0.26726  0  3.896084  0  0.251632  0  -0.1402  -0.273072  0  3.878969  0
C  C54  1  0.02564119  0.75142685  0.88428051  1  0  -0.168702  0  3.63344  0  0  -0.271224  0  3.886187  0  0  -0.267283  0  3.895988  0  0.251643  0  -0.140206  -0.273089  0  3.878872  0
C  C55  1  0.47435926  0.24857311  0.38427979  1  0  -0.168681  0  3.633576  0  0  -0.271179  0  3.886313  0  0  -0.267232  0  3.896114  0  0.251643  0  -0.140205  -0.273043  0  3.878997  0
C  C56  1  0.73723881  0.04424374  0.17089402  1  0  -0.180746  0  3.621535  0  0  -0.281438  0  3.867923  0  0  -0.278091  0  3.877239  0  0.225617  0  -0.138989  -0.283787  0  3.861735  0
C  C57  1  0.76276030  0.95575622  0.67089474  1  0  -0.180763  0  3.621548  0  0  -0.281463  0  3.867963  0  0  -0.27812  0  3.877287  0  0.225623  0  -0.139002  -0.28381  0  3.861776  0
C  C58  1  0.26276043  0.95575622  0.82910526  1  0  -0.180786  0  3.621626  0  0  -0.281485  0  3.868026  0  0  -0.278143  0  3.877353  0  0.225617  0  -0.139019  -0.283833  0  3.86184  0
C  C59  1  0.23724002  0.04424374  0.32910526  1  0  -0.180759  0  3.621548  0  0  -0.281457  0  3.867968  0  0  -0.278114  0  3.877295  0  0.225514  0  -0.139003  -0.283803  0  3.861782  0
N  N60  1  0.10237236  0.78072568  0.12297060  1  0  -0.225586  0  3.547671  0  0  -0.141897  0  3.765082  0  0  -0.161535  0  3.784091  0  -1.281501  0  -0.21774  -0.128235  0  3.75194  0
N  N61  1  0.39762999  0.21927657  0.62297060  1  0  -0.225421  0  3.547671  0  0  -0.141723  0  3.765083  0  0  -0.161361  0  3.784096  0  -1.281529  0  -0.217698  -0.128061  0  3.75194  0
N  N62  1  0.89762944  0.21927543  0.87702940  1  0  -0.225481  0  3.547676  0  0  -0.141803  0  3.765091  0  0  -0.161441  0  3.784103  0  -1.281513  0  -0.217699  -0.12814  0  3.751949  0
N  N63  1  0.60237074  0.78072454  0.37702940  1  0  -0.225425  0  3.547678  0  0  -0.141737  0  3.765084  0  0  -0.161376  0  3.784098  0  -1.281527  0  -0.217686  -0.128075  0  3.751942  0
N  N64  1  0.11648204  0.03944500  0.10026939  1  0  -0.555959  0  3.017509  0  0  -0.523725  0  3.300695  0  0  -0.544842  0  3.309536  0  -1.220264  0  -0.366392  -0.512052  0  3.296293  0
N  N65  1  0.38351841  0.96055496  0.60027011  1  0  -0.555933  0  3.017478  0  0  -0.523673  0  3.300675  0  0  -0.544793  0  3.309518  0  -1.220054  0  -0.366385  -0.512001  0  3.296273  0
N  N66  1  0.88351720  0.96055496  0.89972989  1  0  -0.555928  0  3.017563  0  0  -0.523675  0  3.300737  0  0  -0.544795  0  3.30959  0  -1.220221  0  -0.366377  -0.512003  0  3.296335  0
N  N67  1  0.61648191  0.03944500  0.39972989  1  0  -0.555908  0  3.017534  0  0  -0.523665  0  3.300719  0  0  -0.544782  0  3.309565  0  -1.220019  0  -0.366378  -0.511993  0  3.296316  0
N  N68  1  0.32339060  0.95102378  0.06965009  1  0  -0.381998  0  2.91225  0  0  -0.355153  0  3.199789  0  0  -0.368531  0  3.210455  0  -0.730048  0  -0.309679  -0.346427  0  3.192289  0
N  N69  1  0.17660878  0.04897618  0.56965081  1  0  -0.381972  0  2.912231  0  0  -0.35512  0  3.199774  0  0  -0.368499  0  3.210442  0  -0.730145  0  -0.309682  -0.346395  0  3.192276  0
N  N70  1  0.67660865  0.04897618  0.93034919  1  0  -0.381991  0  2.912234  0  0  -0.355142  0  3.199775  0  0  -0.368521  0  3.210442  0  -0.730154  0  -0.309695  -0.346416  0  3.192276  0
N  N71  1  0.82339046  0.95102378  0.43034991  1  0  -0.381978  0  2.912253  0  0  -0.355126  0  3.199793  0  0  -0.368505  0  3.210461  0  -0.730025  0  -0.309673  -0.346402  0  3.192294  0
N  N72  1  0.88737092  0.83959312  0.15871616  1  0  -0.445131  0  2.981058  0  0  -0.418224  0  3.257805  0  0  -0.434182  0  3.262127  0  -1.16589  0  -0.304268  -0.406744  0  3.254475  0
N  N73  1  0.61263033  0.16040685  0.65871616  1  0  -0.445118  0  2.981133  0  0  -0.418189  0  3.257892  0  0  -0.434146  0  3.262212  0  -1.165934  0  -0.304265  -0.406709  0  3.254564  0
N  N74  1  0.11262939  0.16040685  0.84128384  1  0  -0.445146  0  2.981114  0  0  -0.418238  0  3.257864  0  0  -0.434192  0  3.262187  0  -1.165915  0  -0.304289  -0.406757  0  3.254535  0
N  N75  1  0.38736957  0.83959197  0.34128384  1  0  -0.445112  0  2.981165  0  0  -0.418205  0  3.257913  0  0  -0.434158  0  3.262237  0  -1.165928  0  -0.304264  -0.406725  0  3.254586  0
N  N76  1  0.33576310  0.80873281  0.07651800  1  0  -0.228221  0  3.029776  0  0  -0.204729  0  3.335988  0  0  -0.209864  0  3.348193  0  -0.723472  0  -0.280317  -0.201879  0  3.328044  0
N  N77  1  0.16423883  0.19126830  0.57651800  1  0  -0.22821  0  3.029785  0  0  -0.204719  0  3.335989  0  0  -0.209853  0  3.348194  0  -0.723315  0  -0.280304  -0.201868  0  3.328046  0
N  N78  1  0.66423828  0.19126716  0.92348200  1  0  -0.228234  0  3.029804  0  0  -0.204745  0  3.336011  0  0  -0.209879  0  3.348216  0  -0.723306  0  -0.280324  -0.201894  0  3.328067  0
N  N79  1  0.83576148  0.80873166  0.42348200  1  0  -0.228216  0  3.029798  0  0  -0.204729  0  3.336004  0  0  -0.209865  0  3.34821  0  -0.723438  0  -0.280314  -0.201878  0  3.32806  0
N  N80  1  0.74717487  0.48919596  0.12916144  1  0  0.495124  0  4.024274  0  0  0.52406  0  4.327349  0  0  0.547043  0  4.337013  0  0.220038  0  0.001911  0.50853  0  4.320416  0
N  N81  1  0.75282572  0.51080515  0.62916144  1  0  0.495058  0  4.024314  0  0  0.523983  0  4.327399  0  0  0.546963  0  4.337066  0  0.220049  0  0.001884  0.508452  0  4.320462  0
N  N82  1  0.25282544  0.51080400  0.87083928  1  0  0.495161  0  4.024229  0  0  0.524097  0  4.327302  0  0  0.547078  0  4.336966  0  0.220047  0  0.001923  0.508568  0  4.320368  0
N  N83  1  0.24717352  0.48919482  0.37083856  1  0  0.495064  0  4.024308  0  0  0.523996  0  4.327386  0  0  0.546975  0  4.337055  0  0.220035  0  0.001885  0.508465  0  4.32045  0
N  N84  1  0.90745284  0.53507891  0.27411009  1  0  0.468237  0  4.038027  0  0  0.516895  0  4.317521  0  0  0.539444  0  4.327757  0  0.222591  0  0.017776  0.501925  0  4.309488  0
N  N85  1  0.59254841  0.46492106  0.77411009  1  0  0.468266  0  4.038093  0  0  0.516933  0  4.317564  0  0  0.539482  0  4.327802  0  0.222575  0  0.017719  0.501963  0  4.309533  0
N  N86  1  0.09254747  0.46492106  0.72588991  1  0  0.468282  0  4.038062  0  0  0.516933  0  4.31756  0  0  0.539481  0  4.327798  0  0.222583  0  0.017773  0.501963  0  4.309528  0
N  N87  1  0.40745149  0.53507776  0.22588991  1  0  0.468312  0  4.037861  0  0  0.516906  0  4.317438  0  0  0.539456  0  4.327674  0  0.222595  0  0.017761  0.501939  0  4.309409  0
N  N88  1  0.89517549  0.08729522  0.13717029  1  0  -0.111017  0  3.413077  0  0  -0.006455  0  3.639529  0  0  -0.026244  0  3.663084  0  -1.16709  0  -0.263556  0.006552  0  3.622862  0
N  N89  1  0.60482428  0.91270360  0.63717101  1  0  -0.111011  0  3.413153  0  0  -0.006423  0  3.639607  0  0  -0.026214  0  3.66316  0  -1.167113  0  -0.263553  0.006583  0  3.622939  0
N  N90  1  0.10482483  0.91270474  0.86282971  1  0  -0.110975  0  3.413131  0  0  -0.006396  0  3.639586  0  0  -0.026182  0  3.663143  0  -1.16711  0  -0.263542  0.00661  0  3.622918  0
N  N91  1  0.39517604  0.08729637  0.36282899  1  0  -0.111009  0  3.413205  0  0  -0.006436  0  3.639653  0  0  -0.026222  0  3.663208  0  -1.167123  0  -0.263551  0.00657  0  3.622985  0
O  O92  1  0.73630476  0.54106761  0.04568694  1  0  -0.49405  0  1.765911  0  0  -0.479483  0  2.003914  0  0  -0.495229  0  1.998753  0  -0.565075  0  -0.239895  -0.467975  0  2.006798  0
O  O93  1  0.76369584  0.45893349  0.54568622  1  0  -0.493979  0  1.765875  0  0  -0.479421  0  2.003878  0  0  -0.495164  0  1.998709  0  -0.565106  0  -0.239875  -0.467914  0  2.006764  0
O  O94  1  0.26369448  0.45893235  0.95431378  1  0  -0.494068  0  1.765895  0  0  -0.479517  0  2.003886  0  0  -0.495265  0  1.998734  0  -0.565113  0  -0.239931  -0.468007  0  2.006769  0
O  O95  1  0.23630448  0.54106647  0.45431378  1  0  -0.493994  0  1.765878  0  0  -0.479431  0  2.003872  0  0  -0.495174  0  1.998709  0  -0.565094  0  -0.239872  -0.467921  0  2.006756  0
O  O96  1  0.65483297  0.36255175  0.15731521  1  0  -0.411215  0  1.801064  0  0  -0.395536  0  2.030344  0  0  -0.407338  0  2.025655  0  -0.500669  0  -0.192839  -0.386911  0  2.033589  0
O  O97  1  0.84516656  0.63744935  0.65731521  1  0  -0.411225  0  1.801072  0  0  -0.395541  0  2.030372  0  0  -0.407339  0  2.025678  0  -0.500702  0  -0.192857  -0.386916  0  2.033617  0
O  O98  1  0.34516627  0.63744821  0.84268479  1  0  -0.411234  0  1.801072  0  0  -0.395537  0  2.030355  0  0  -0.407332  0  2.025655  0  -0.500675  0  -0.192836  -0.386912  0  2.0336  0
O  O99  1  0.15483269  0.36255061  0.34268479  1  0  -0.411233  0  1.80106  0  0  -0.395557  0  2.030367  0  0  -0.407353  0  2.025672  0  -0.500708  0  -0.192865  -0.386932  0  2.033611  0
O  O100  1  0.83590633  0.40770426  0.31143812  1  0  -0.399635  0  1.79311  0  0  -0.392588  0  2.014904  0  0  -0.403968  0  2.009768  0  -0.499848  0  -0.17212  -0.384604  0  2.018609  0
O  O101  1  0.66409385  0.59229570  0.81143740  1  0  -0.399661  0  1.793187  0  0  -0.392623  0  2.014988  0  0  -0.404005  0  2.009853  0  -0.499844  0  -0.172105  -0.384639  0  2.018692  0
O  O102  1  0.16409291  0.59229570  0.68856260  1  0  -0.399666  0  1.79317  0  0  -0.392613  0  2.014966  0  0  -0.403994  0  2.00983  0  -0.499842  0  -0.172116  -0.38463  0  2.01867  0
O  O103  1  0.33590647  0.40770426  0.18856188  1  0  -0.399662  0  1.793041  0  0  -0.392572  0  2.014857  0  0  -0.403954  0  2.009723  0  -0.499856  0  -0.17211  -0.384593  0  2.018561  0
O  O104  1  0.02272774  0.63440527  0.31444891  1  0  -0.443625  0  1.787862  0  0  -0.443983  0  2.028718  0  0  -0.459632  0  2.025848  0  -0.532195  0  -0.201754  -0.433129  0  2.030511  0
O  O105  1  0.47727205  0.36559583  0.81444819  1  0  -0.443596  0  1.787823  0  0  -0.443963  0  2.028714  0  0  -0.459611  0  2.025845  0  -0.532185  0  -0.20172  -0.433099  0  2.030485  0
O  O106  1  0.97727192  0.36559583  0.68555109  1  0  -0.443638  0  1.787863  0  0  -0.443992  0  2.02873  0  0  -0.459642  0  2.025861  0  -0.532193  0  -0.201755  -0.433131  0  2.030508  0
O  O107  1  0.52272719  0.63440413  0.18555109  1  0  -0.443627  0  1.787819  0  0  -0.443984  0  2.028726  0  0  -0.459635  0  2.025856  0  -0.532173  0  -0.201734  -0.433107  0  2.030461  0
