# generated using pymatgen
data_Cu2H26C21(NO4)2
_symmetry_space_group_name_H-M   'P 1'
_cell_length_a   8.71355930
_cell_length_b   12.84053453
_cell_length_c   28.30841106
_cell_angle_alpha   90.00047087
_cell_angle_beta   89.99960384
_cell_angle_gamma   90.00267244
_symmetry_Int_Tables_number   1
_chemical_formula_structural   Cu2H26C21(NO4)2
_chemical_formula_sum   'Cu8 H104 C84 N8 O32'
_cell_volume   3167.33636201
_cell_formula_units_Z   4
loop_
 _symmetry_equiv_pos_site_id
 _symmetry_equiv_pos_as_xyz
  1  'x, y, z'
loop_
 _atom_site_type_symbol
 _atom_site_label
 _atom_site_symmetry_multiplicity
 _atom_site_fract_x
 _atom_site_fract_y
 _atom_site_fract_z
 _atom_site_occupancy
 _atom_site_pbe_bader_charge
 _atom_site_pbe_bader_spin_density
 _atom_site_pbe_cm5_charge
 _atom_site_pbe_ddec_charge
 _atom_site_pbe_ddec_spin_density
 _atom_site_pbe_ddec_sum_bond_order
 _atom_site_pbe_magmom
Cu  Cu0  1  0.42845938  0.46659049  0.03687673  1  1.056537  0.542093  0.670692  0.741347  0.6985  2.405079  0.54
Cu  Cu1  1  0.42849027  0.03340444  0.46313792  1  1.056435  0.54212  0.670658  0.741336  0.698531  2.405392  0.54
Cu  Cu2  1  0.07151116  0.96660512  0.96313491  1  1.056456  -0.542163  0.67065  0.741398  -0.698589  2.40503  -0.54
Cu  Cu3  1  0.07149869  0.53338331  0.53685655  1  1.055653  -0.542144  0.670637  0.741443  -0.698571  2.405242  -0.54
Cu  Cu4  1  0.57151008  0.53338495  0.96313921  1  1.055623  -0.54211  0.670613  0.741548  -0.698525  2.404552  -0.539
Cu  Cu5  1  0.57149297  0.96662241  0.53685824  1  1.055869  -0.542112  0.670644  0.741495  -0.698542  2.40517  -0.54
Cu  Cu6  1  0.92850076  0.03338513  0.03686231  1  1.055947  0.542118  0.670659  0.741414  0.698559  2.405431  0.54
Cu  Cu7  1  0.92849946  0.46660537  0.46313642  1  1.056711  0.542141  0.670679  0.741453  0.698574  2.405396  0.54
H  H8  1  0.25893942  0.26730506  0.06303943  1  0.099563  -6.8e-05  0.119744  0.094696  -2.6e-05  1.010781  0.0
H  H9  1  0.25895131  0.23267048  0.43696428  1  0.099772  -6.8e-05  0.119691  0.094569  -2.6e-05  1.010793  0.0
H  H10  1  0.24105299  0.76731601  0.93696192  1  0.099678  6.8e-05  0.11973  0.094647  2.6e-05  1.010882  0.0
H  H11  1  0.24105823  0.73267233  0.56303165  1  0.099495  6.8e-05  0.119669  0.094583  2.6e-05  1.010679  0.0
H  H12  1  0.74106332  0.73267661  0.93697191  1  0.099403  6.8e-05  0.119654  0.094597  2.6e-05  1.010797  0.0
H  H13  1  0.74104340  0.76733612  0.56303400  1  0.099731  6.8e-05  0.11965  0.094609  2.6e-05  1.0107  0.0
H  H14  1  0.75896122  0.23266722  0.06303141  1  0.099737  -6.8e-05  0.119616  0.094532  -2.6e-05  1.010806  0.0
H  H15  1  0.75896402  0.26731402  0.43696522  1  0.099663  -6.8e-05  0.119699  0.094554  -2.6e-05  1.010863  0.0
H  H16  1  0.32325244  0.54206010  0.13594259  1  0.085203  -6.1e-05  0.116409  0.090199  -2.1e-05  0.990538  0.0
H  H17  1  0.32328028  0.95792881  0.36406214  1  0.085079  -6.1e-05  0.116391  0.090165  -2.1e-05  0.990676  0.0
H  H18  1  0.17675317  0.04205092  0.86406251  1  0.085289  6.1e-05  0.116366  0.090048  2.1e-05  0.990563  0.0
H  H19  1  0.17677230  0.45793730  0.63593463  1  0.085078  6.1e-05  0.116492  0.090176  2.1e-05  0.990685  0.0
H  H20  1  0.67672276  0.45794883  0.86404968  1  0.085408  6.1e-05  0.116333  0.090141  2.1e-05  0.990672  0.0
H  H21  1  0.67672246  0.04207234  0.63593649  1  0.085015  6.1e-05  0.116396  0.090141  2.1e-05  0.990783  0.0
H  H22  1  0.82325186  0.95793543  0.13593541  1  0.085016  -6.1e-05  0.116462  0.090162  -2.1e-05  0.990689  0.0
H  H23  1  0.82322586  0.54206073  0.36406330  1  0.085186  -6.1e-05  0.116383  0.090048  -2.1e-05  0.990656  0.0
H  H24  1  0.09344353  0.19328117  0.12590878  1  0.110496  6e-05  0.108219  0.127185  7.1e-05  1.016643  0.0
H  H25  1  0.09346764  0.30669926  0.37409317  1  0.111066  6e-05  0.108217  0.127176  7.1e-05  1.016342  0.0
H  H26  1  0.40654494  0.69328921  0.87408948  1  0.110728  -6e-05  0.108167  0.127098  -7.1e-05  1.016541  0.0
H  H27  1  0.40654470  0.80671760  0.62590268  1  0.11045  -6e-05  0.108183  0.127144  -7.1e-05  1.016607  0.0
H  H28  1  0.90655691  0.80670673  0.87410010  1  0.110529  -6e-05  0.108123  0.127137  -7.1e-05  1.016706  0.0
H  H29  1  0.90652363  0.69331279  0.62590616  1  0.110767  -6e-05  0.108135  0.12699  -7.1e-05  1.016596  0.0
H  H30  1  0.59347043  0.30668935  0.12590385  1  0.110746  6e-05  0.108207  0.127105  7.1e-05  1.016507  0.0
H  H31  1  0.59347181  0.19327030  0.37409525  1  0.110508  6e-05  0.10818  0.12712  7.1e-05  1.01666  0.0
H  H32  1  0.15347404  0.48282450  0.20228019  1  0.071422  -4.4e-05  0.103649  0.10967  -1.7e-05  0.996889  0.0
H  H33  1  0.15352468  0.01715005  0.29771668  1  0.071142  -4.4e-05  0.103572  0.109544  -1.7e-05  0.996895  0.0
H  H34  1  0.34651254  0.98283004  0.79772232  1  0.071464  4.4e-05  0.103643  0.109634  1.7e-05  0.996927  0.0
H  H35  1  0.34652742  0.51716943  0.70227526  1  0.071577  4.4e-05  0.103659  0.109688  1.7e-05  0.996943  0.0
H  H36  1  0.84648853  0.51719456  0.79770961  1  0.071  4.4e-05  0.103561  0.109648  1.7e-05  0.996838  0.0
H  H37  1  0.84647576  0.98286590  0.70228230  1  0.071127  4.4e-05  0.103637  0.109606  1.7e-05  0.996948  0.0
H  H38  1  0.65350627  0.01715631  0.20227878  1  0.071281  -4.4e-05  0.103599  0.109596  -1.7e-05  0.996926  0.0
H  H39  1  0.65347188  0.48282938  0.29772231  1  0.071461  -4.4e-05  0.103675  0.109695  -1.7e-05  0.996831  0.0
H  H40  1  0.93122341  0.23118055  0.19549044  1  0.043221  -1.2e-05  0.094023  0.096018  -5e-06  1.001563  0.0
H  H41  1  0.93123956  0.26877888  0.30451606  1  0.043823  -1.2e-05  0.09392  0.095877  -5e-06  1.001405  0.0
H  H42  1  0.56875398  0.73119144  0.80451323  1  0.043618  1.2e-05  0.094018  0.095989  5e-06  1.001457  0.0
H  H43  1  0.56875189  0.76882907  0.69548069  1  0.043367  1.2e-05  0.094074  0.096104  5e-06  1.001579  0.0
H  H44  1  0.06874605  0.76884162  0.80451914  1  0.043205  1.2e-05  0.094094  0.096075  5e-06  1.001579  0.0
H  H45  1  0.06875055  0.73122772  0.69548611  1  0.044015  1.2e-05  0.093788  0.095709  5e-06  1.00134  0.0
H  H46  1  0.43124991  0.26879880  0.19548257  1  0.043512  -1.2e-05  0.094003  0.095999  -4e-06  1.001294  0.0
H  H47  1  0.43124626  0.23116506  0.30451476  1  0.043424  -1.2e-05  0.094117  0.096133  -5e-06  1.001521  0.0
H  H48  1  0.93379238  0.35610788  0.22224526  1  0.026754  -2.3e-05  0.093824  0.091975  -9e-06  0.983903  0.0
H  H49  1  0.93380857  0.14383684  0.27776052  1  0.026329  -2.2e-05  0.093934  0.091992  -9e-06  0.98376  0.0
H  H50  1  0.56620737  0.85612443  0.77776135  1  0.026395  2.2e-05  0.093883  0.091923  9e-06  0.984005  0.0
H  H51  1  0.56621216  0.64389133  0.72223364  1  0.026431  2.2e-05  0.093849  0.092008  9e-06  0.984008  0.0
H  H52  1  0.06619774  0.64392520  0.77776255  1  0.026583  2.2e-05  0.0938  0.092041  9e-06  0.98417  0.0
H  H53  1  0.06619418  0.85617365  0.72223881  1  0.026488  2.2e-05  0.093943  0.091973  9e-06  0.983666  0.0
H  H54  1  0.43379652  0.14386347  0.22223375  1  0.026478  -2.2e-05  0.093895  0.091981  -9e-06  0.983984  0.0
H  H55  1  0.43379746  0.35609891  0.27776146  1  0.026541  -2.2e-05  0.093801  0.091985  -9e-06  0.983986  0.0
H  H56  1  0.17987753  0.18803065  0.23662488  1  0.017486  -4e-06  0.089299  0.079678  1e-06  0.999255  0.0
H  H57  1  0.17987690  0.31194162  0.26337052  1  0.017846  -3e-06  0.089382  0.079781  1e-06  0.99934  0.0
H  H58  1  0.32012780  0.68804875  0.76336699  1  0.017816  4e-06  0.089413  0.079835  -1e-06  0.99933  0.0
H  H59  1  0.32012088  0.81195923  0.73662782  1  0.017535  4e-06  0.089389  0.079774  -1e-06  0.999232  0.0
H  H60  1  0.82012980  0.81199386  0.76337481  1  0.017167  4e-06  0.089297  0.079654  -1e-06  0.999561  0.0
H  H61  1  0.82010174  0.68808133  0.73663129  1  0.018282  4e-06  0.089357  0.079861  -1e-06  0.999256  0.0
H  H62  1  0.67988757  0.31194228  0.23663093  1  0.017957  -4e-06  0.089407  0.079825  1e-06  0.99932  0.0
H  H63  1  0.67987957  0.18802322  0.26337152  1  0.017378  -4e-06  0.089327  0.079717  1e-06  0.999315  0.0
H  H64  1  0.99409050  0.52964406  0.95561731  1  0.099645  -0.002227  0.098557  0.162138  -0.001137  1.025934  -0.001
H  H65  1  0.99405512  0.97035097  0.54440784  1  0.100161  -0.002226  0.098648  0.162252  -0.001137  1.025631  -0.001
H  H66  1  0.50593959  0.02964580  0.04439621  1  0.099829  0.002228  0.09862  0.162219  0.001137  1.025676  0.001
H  H67  1  0.50593183  0.47034301  0.45560097  1  0.099587  0.002228  0.098638  0.162275  0.001137  1.025778  0.001
H  H68  1  0.00591224  0.47036409  0.04439545  1  0.099634  0.002228  0.098617  0.162147  0.001137  1.025823  0.001
H  H69  1  0.00593155  0.02964472  0.45560492  1  0.099691  0.002227  0.098628  0.16218  0.001137  1.025721  0.001
H  H70  1  0.49408037  0.97034522  0.95558971  1  0.100349  -0.002227  0.09861  0.162188  -0.001137  1.025584  -0.001
H  H71  1  0.49407780  0.52965035  0.54440579  1  0.099936  -0.002229  0.098569  0.16209  -0.001138  1.025716  -0.001
H  H72  1  0.08886254  0.51975815  0.89924916  1  0.033575  0.001335  0.095002  0.147491  0.000675  0.992732  0.001
H  H73  1  0.08887823  0.98026354  0.60077124  1  0.033267  0.001336  0.094932  0.147415  0.000675  0.992988  0.001
H  H74  1  0.41113810  0.01974647  0.10076434  1  0.033249  -0.001335  0.094971  0.147569  -0.000674  0.992858  -0.001
H  H75  1  0.41114374  0.48022610  0.39923339  1  0.033721  -0.001334  0.095011  0.147574  -0.000675  0.992738  -0.001
H  H76  1  0.91110807  0.48026013  0.10076466  1  0.033585  -0.001335  0.095006  0.147576  -0.000674  0.992816  -0.001
H  H77  1  0.91114057  0.01973605  0.39923552  1  0.03319  -0.001336  0.094941  0.147493  -0.000675  0.99286  -0.001
H  H78  1  0.58887727  0.98024845  0.89922545  1  0.033341  0.001336  0.094928  0.147444  0.000675  0.992906  0.001
H  H79  1  0.58888769  0.51975246  0.60077019  1  0.033578  0.001336  0.094953  0.147398  0.000675  0.992929  0.001
H  H80  1  0.08035435  0.64067770  0.92879821  1  0.083393  0.000724  0.09697  0.147548  0.000334  1.031327  0.0
H  H81  1  0.08037501  0.85934995  0.57123987  1  0.084017  0.000724  0.096881  0.147427  0.000333  1.031228  0.0
H  H82  1  0.41965001  0.14065953  0.07123023  1  0.084085  -0.000724  0.096922  0.147505  -0.000333  1.031237  0.0
H  H83  1  0.41965013  0.35932266  0.42877349  1  0.083757  -0.000724  0.096967  0.147528  -0.000333  1.031288  0.0
H  H84  1  0.91963118  0.35934758  0.07123646  1  0.084003  -0.000723  0.096889  0.147507  -0.000333  1.031243  0.0
H  H85  1  0.91965987  0.14065509  0.42877183  1  0.08407  -0.000723  0.096928  0.147471  -0.000333  1.031223  0.0
H  H86  1  0.58035847  0.85932838  0.92876310  1  0.083775  0.000723  0.096938  0.147563  0.000333  1.031245  0.0
H  H87  1  0.58037786  0.64066369  0.57123397  1  0.08383  0.000723  0.096909  0.147489  0.000333  1.031264  0.0
H  H88  1  0.56299294  0.20137793  0.91178461  1  0.079927  0.002511  0.093573  0.14464  0.001221  0.991336  0.001
H  H89  1  0.56299872  0.29864899  0.58821876  1  0.07968  0.002511  0.093523  0.144606  0.001221  0.991083  0.001
H  H90  1  0.93700305  0.70135948  0.08821719  1  0.079728  -0.00251  0.093557  0.144573  -0.001221  0.991184  -0.001
H  H91  1  0.93699478  0.79864496  0.41178269  1  0.079614  -0.002511  0.093526  0.14461  -0.001221  0.991157  -0.001
H  H92  1  0.43698455  0.79862867  0.08821155  1  0.079676  -0.00251  0.093563  0.144639  -0.001221  0.991185  -0.001
H  H93  1  0.43696615  0.70137863  0.41177810  1  0.079382  -0.002512  0.093469  0.144506  -0.001222  0.991184  -0.001
H  H94  1  0.06299740  0.29864089  0.91178286  1  0.079719  0.002512  0.093545  0.144572  0.001222  0.991194  0.001
H  H95  1  0.06299419  0.20134918  0.58821842  1  0.079645  0.002512  0.093498  0.144588  0.001222  0.991182  0.001
H  H96  1  0.39517720  0.17092125  0.94627024  1  0.066836  -0.001224  0.102793  0.16737  -0.000599  0.988041  -0.001
H  H97  1  0.39516173  0.32908557  0.55372925  1  0.066917  -0.001227  0.102751  0.167279  -0.0006  0.987954  -0.001
H  H98  1  0.10482236  0.67092826  0.05372969  1  0.06702  0.001227  0.102759  0.167313  0.0006  0.987885  0.001
H  H99  1  0.10482690  0.82908021  0.44627163  1  0.067104  0.001227  0.102764  0.167397  0.0006  0.987864  0.001
H  H100  1  0.60480948  0.82907912  0.05373298  1  0.066991  0.001226  0.102792  0.167328  0.0006  0.987972  0.001
H  H101  1  0.60480543  0.67094829  0.44626337  1  0.066613  0.001227  0.102739  0.167234  0.0006  0.987933  0.001
H  H102  1  0.89516891  0.32906276  0.94627176  1  0.066409  -0.001227  0.102785  0.16733  -0.0006  0.98788  -0.001
H  H103  1  0.89516322  0.17090847  0.55372100  1  0.066937  -0.001227  0.102779  0.167397  -0.0006  0.987801  -0.001
H  H104  1  0.57976689  0.15624432  0.97140177  1  0.089924  -0.000864  0.104773  0.171417  -0.000401  0.995246  0.0
H  H105  1  0.57976102  0.34378079  0.52859592  1  0.089774  -0.000863  0.104697  0.171323  -0.000401  0.995326  0.0
H  H106  1  0.92022601  0.65622971  0.02859456  1  0.08982  0.000863  0.1047  0.171297  0.000401  0.995358  0.0
H  H107  1  0.92022985  0.84375784  0.47140359  1  0.089759  0.000863  0.104733  0.171379  0.000401  0.995283  0.0
H  H108  1  0.42020487  0.84374826  0.02859474  1  0.089515  0.000864  0.104702  0.171348  0.000401  0.995253  0.0
H  H109  1  0.42021533  0.65624372  0.47139742  1  0.089804  0.000863  0.104719  0.171378  0.000401  0.995288  0.0
H  H110  1  0.07975837  0.34376754  0.97140690  1  0.089904  -0.000863  0.104713  0.171303  -0.0004  0.995306  0.0
H  H111  1  0.07975568  0.15624486  0.52859752  1  0.089844  -0.000862  0.104732  0.171391  -0.0004  0.995414  0.0
C  C112  1  0.23518795  0.31136934  0.09509574  1  0.518668  -0.00054  0.052052  0.108775  -0.000357  3.936574  0.0
C  C113  1  0.23519751  0.18861635  0.40490237  1  0.517996  -0.000539  0.052043  0.108825  -0.000357  3.936342  0.0
C  C114  1  0.26480750  0.81136956  0.90490507  1  0.517924  0.000539  0.052016  0.108731  0.000357  3.93653  0.0
C  C115  1  0.26483195  0.68861720  0.59509092  1  0.518687  0.000538  0.052089  0.108977  0.000356  3.936535  0.0
C  C116  1  0.76480676  0.68862323  0.90491172  1  0.518654  0.000539  0.052128  0.108939  0.000357  3.936576  0.0
C  C117  1  0.76479605  0.81139180  0.59509626  1  0.518222  0.000538  0.052249  0.109042  0.000356  3.936414  0.0
C  C118  1  0.73520213  0.18861211  0.09508967  1  0.518016  -0.000539  0.052266  0.109255  -0.000357  3.93604  0.0
C  C119  1  0.73518685  0.31136915  0.40490701  1  0.518499  -0.000538  0.05201  0.108864  -0.000356  3.936812  0.0
C  C120  1  0.27003733  0.46508115  0.13573974  1  0.529144  -0.000576  0.043795  0.09213  -0.000387  3.981851  0.0
C  C121  1  0.27007394  0.03491188  0.36425971  1  0.528976  -0.000575  0.043799  0.092066  -0.000386  3.982402  0.0
C  C122  1  0.22995262  0.96507408  0.86426271  1  0.529159  0.000575  0.043881  0.092296  0.000386  3.981877  0.0
C  C123  1  0.22996446  0.53491936  0.63573760  1  0.529312  0.000574  0.043686  0.092075  0.000386  3.98205  0.0
C  C124  1  0.72993328  0.53492311  0.86425536  1  0.529112  0.000575  0.04387  0.092091  0.000387  3.981896  0.0
C  C125  1  0.72992306  0.96509161  0.63574069  1  0.528745  0.000574  0.043829  0.092058  0.000386  3.982504  0.0
C  C126  1  0.77006389  0.03491772  0.13573628  1  0.52934  -0.000575  0.04379  0.092159  -0.000387  3.982346  0.0
C  C127  1  0.77003139  0.46507633  0.36426033  1  0.529241  -0.000574  0.043792  0.092199  -0.000386  3.981994  0.0
C  C128  1  0.14138983  0.27108403  0.13044639  1  -0.048544  0.000175  -0.084697  -0.186098  0.000126  3.920814  0.0
C  C129  1  0.14141098  0.22889247  0.36955051  1  -0.048225  0.000175  -0.084603  -0.185885  0.000125  3.920628  0.0
C  C130  1  0.35859596  0.77109047  0.86955074  1  -0.048128  -0.000175  -0.084659  -0.185988  -0.000125  3.920839  0.0
C  C131  1  0.35862126  0.72890471  0.63043940  1  -0.048534  -0.000174  -0.084733  -0.186261  -0.000125  3.921036  0.0
C  C132  1  0.85859226  0.72891166  0.86955931  1  -0.048452  -0.000175  -0.084687  -0.186177  -0.000125  3.920891  0.0
C  C133  1  0.85857684  0.77111569  0.63044706  1  -0.047857  -0.000174  -0.084653  -0.185834  -0.000125  3.920698  0.0
C  C134  1  0.64140793  0.22888497  0.13044506  1  -0.047891  0.000175  -0.084768  -0.186228  0.000125  3.921054  0.0
C  C135  1  0.64138493  0.27108943  0.36955853  1  -0.048628  0.000175  -0.084649  -0.186065  0.000125  3.920975  0.0
C  C136  1  0.10812380  0.33234767  0.16998850  1  0.004212  -0.000707  0.00794  0.157946  -0.000475  3.973181  0.0
C  C137  1  0.10813244  0.16761843  0.33001095  1  0.004255  -0.000706  0.007981  0.157749  -0.000474  3.973394  0.0
C  C138  1  0.39186390  0.83235756  0.83001169  1  0.004119  0.000706  0.007994  0.157936  0.000474  3.973241  0.0
C  C139  1  0.39187837  0.66764802  0.66998403  1  0.004816  0.000705  0.008004  0.158129  0.000474  3.972989  0.0
C  C140  1  0.89185254  0.66765893  0.83001225  1  0.004699  0.000706  0.007982  0.157913  0.000474  3.973159  0.0
C  C141  1  0.89185998  0.83238427  0.66998874  1  0.004269  0.000705  0.008032  0.157785  0.000474  3.973067  0.0
C  C142  1  0.60813999  0.16763190  0.16998730  1  0.003992  -0.000706  0.008021  0.158064  -0.000474  3.973248  0.0
C  C143  1  0.60811863  0.33234612  0.33001531  1  0.004396  -0.000706  0.007996  0.158066  -0.000474  3.973091  0.0
C  C144  1  0.17565183  0.43137111  0.17234233  1  -0.130188  0.000106  -0.094841  -0.210845  6e-05  3.993633  0.0
C  C145  1  0.17568928  0.06860491  0.32765874  1  -0.13029  0.000106  -0.09487  -0.210694  6e-05  3.994042  0.0
C  C146  1  0.32433006  0.93137415  0.82765893  1  -0.130166  -0.000106  -0.094815  -0.21086  -6e-05  3.993706  0.0
C  C147  1  0.32435374  0.56862383  0.67233834  1  -0.13034  -0.000105  -0.094826  -0.210869  -6e-05  3.993707  0.0
C  C148  1  0.82430960  0.56864794  0.82765312  1  -0.129947  -0.000106  -0.094698  -0.210652  -6e-05  3.993765  0.0
C  C149  1  0.82431117  0.93140402  0.67234201  1  -0.130247  -0.000105  -0.094968  -0.210691  -6e-05  3.993702  0.0
C  C150  1  0.67568301  0.06861687  0.17234146  1  -0.130163  0.000106  -0.094868  -0.210859  6e-05  3.993624  0.0
C  C151  1  0.67565245  0.43136719  0.32765888  1  -0.130459  0.000106  -0.094847  -0.210871  6e-05  3.993742  0.0
C  C152  1  0.00741459  0.29262612  0.20907585  1  0.004606  -8e-06  -0.15787  -0.201726  -1.3e-05  3.9575  0.0
C  C153  1  0.00743027  0.20733913  0.29091992  1  0.004603  -7e-06  -0.157825  -0.201456  -1.3e-05  3.957159  0.0
C  C154  1  0.49257497  0.79263382  0.79092171  1  0.00473  8e-06  -0.157868  -0.201475  1.3e-05  3.957412  0.0
C  C155  1  0.49258098  0.70737884  0.70907273  1  0.0043  8e-06  -0.157984  -0.201952  1.3e-05  3.95791  0.0
C  C156  1  0.99256978  0.70739605  0.79092984  1  0.004509  8e-06  -0.157912  -0.201714  1.3e-05  3.957885  0.0
C  C157  1  0.99256215  0.79267292  0.70907906  1  0.004441  8e-06  -0.157738  -0.201241  1.3e-05  3.956809  0.0
C  C158  1  0.50743466  0.20735643  0.20907657  1  0.004875  -8e-06  -0.157914  -0.201629  -1.3e-05  3.957275  0.0
C  C159  1  0.50742521  0.29261296  0.29092449  1  0.004874  -8e-06  -0.157919  -0.201785  -1.3e-05  3.957836  0.0
C  C160  1  0.10400237  0.24998727  0.24999460  1  -0.019131  -9.1e-05  -0.157414  -0.126017  -6e-05  3.928424  0.0
C  C161  1  0.39600033  0.75000363  0.74999609  1  -0.019221  9.1e-05  -0.157581  -0.126205  5.9e-05  3.928663  0.0
C  C162  1  0.89598890  0.75003179  0.75000721  1  -0.019529  9.1e-05  -0.157328  -0.126185  5.9e-05  3.928596  0.0
C  C163  1  0.60400929  0.24998194  0.25000254  1  -0.019299  -9.1e-05  -0.157467  -0.126187  -5.9e-05  3.928688  0.0
C  C164  1  0.24237257  0.53462420  0.95804285  1  1.541832  -7.1e-05  0.213077  0.679107  2.6e-05  4.107789  0.0
C  C165  1  0.24238166  0.96540936  0.54196485  1  1.544003  -7.5e-05  0.213237  0.679147  2.2e-05  4.107649  0.0
C  C166  1  0.25764286  0.03459803  0.04195375  1  1.542607  7.6e-05  0.213191  0.679252  -2.1e-05  4.107757  0.0
C  C167  1  0.25762093  0.46539149  0.45804396  1  1.543242  7.9e-05  0.213049  0.679115  -1.9e-05  4.107475  0.0
C  C168  1  0.75763132  0.46539174  0.04196037  1  1.542523  7.8e-05  0.213156  0.679289  -1.9e-05  4.107789  0.0
C  C169  1  0.75762796  0.03459724  0.45804438  1  1.542551  7.8e-05  0.213118  0.679198  -2.1e-05  4.107597  0.0
C  C170  1  0.74239431  0.96539066  0.95803358  1  1.543026  -7.5e-05  0.213091  0.679215  2e-05  4.107539  0.0
C  C171  1  0.74240591  0.53460109  0.54195926  1  1.543656  -7.4e-05  0.213141  0.679043  2.3e-05  4.107576  0.0
C  C172  1  0.50660481  0.31418825  0.96559963  1  1.515663  0.000468  0.213644  0.683631  0.000318  4.107173  0.0
C  C173  1  0.50660287  0.18580885  0.53438903  1  1.515257  0.000461  0.213609  0.683471  0.000315  4.106491  0.0
C  C174  1  0.99338288  0.81419708  0.03438987  1  1.515354  -0.000462  0.213536  0.683396  -0.000315  4.106762  0.0
C  C175  1  0.99339779  0.68579122  0.46560493  1  1.516002  -0.000461  0.213544  0.683403  -0.000313  4.106699  0.0
C  C176  1  0.49340712  0.68580901  0.03439547  1  1.515999  -0.000459  0.213635  0.683545  -0.000311  4.10727  0.0
C  C177  1  0.49337692  0.81422111  0.46560783  1  1.51619  -0.000461  0.213448  0.683284  -0.000312  4.107036  0.0
C  C178  1  0.00661297  0.18578927  0.96560522  1  1.515983  0.000462  0.213504  0.683289  0.000314  4.107039  0.0
C  C179  1  0.00661413  0.31420214  0.53439617  1  1.515661  0.000463  0.213669  0.683772  0.000315  4.106646  0.0
C  C180  1  0.09084883  0.55645635  0.93423035  1  -0.089711  0.000202  -0.247052  -0.515847  3.8e-05  3.871063  0.0
C  C181  1  0.09086162  0.94356930  0.56578686  1  -0.091672  0.000201  -0.24708  -0.515838  3.8e-05  3.871059  0.0
C  C182  1  0.40915089  0.05643930  0.06577905  1  -0.090644  -0.000199  -0.247101  -0.516034  -3.7e-05  3.871003  0.0
C  C183  1  0.40913488  0.44354256  0.43422221  1  -0.0912  -0.000196  -0.247145  -0.516047  -3.3e-05  3.871191  0.0
C  C184  1  0.90914703  0.44356115  0.06578206  1  -0.090426  -0.000194  -0.247117  -0.515985  -3.2e-05  3.871019  0.0
C  C185  1  0.90914571  0.05643263  0.43422166  1  -0.090326  -0.000192  -0.2471  -0.515902  -3.2e-05  3.871045  0.0
C  C186  1  0.59087480  0.94355017  0.93421004  1  -0.091393  0.000188  -0.247045  -0.515913  2.8e-05  3.870898  0.0
C  C187  1  0.59088622  0.55644379  0.56578348  1  -0.091239  0.000197  -0.247013  -0.515655  3.3e-05  3.871061  0.0
C  C188  1  0.51140064  0.20399103  0.94702296  1  -0.079292  -0.00067  -0.241048  -0.508585  -0.000417  3.852418  -0.001
C  C189  1  0.51140128  0.29600700  0.55297523  1  -0.079184  -0.000674  -0.240924  -0.508402  -0.000421  3.852132  -0.001
C  C190  1  0.98858865  0.70400005  0.05297284  1  -0.07929  0.000671  -0.24092  -0.508364  0.000418  3.852308  0.001
C  C191  1  0.98859549  0.79599200  0.44702516  1  -0.079238  0.000676  -0.240928  -0.508588  0.000422  3.852281  0.001
C  C192  1  0.48858259  0.79600467  0.05297355  1  -0.079043  0.000679  -0.241056  -0.508507  0.000424  3.852232  0.001
C  C193  1  0.48857048  0.70401985  0.44702199  1  -0.078845  0.000679  -0.240873  -0.508299  0.000424  3.851992  0.001
C  C194  1  0.01140835  0.29599175  0.94702649  1  -0.078796  -0.000682  -0.24095  -0.508346  -0.000426  3.852259  -0.001
C  C195  1  0.01139807  0.20400448  0.55297630  1  -0.079046  -0.000675  -0.240916  -0.508615  -0.000421  3.852343  -0.001
N  N196  1  0.29916734  0.40639913  0.09745557  1  -1.239306  -0.00142  -0.336247  -0.246097  -0.000625  3.507307  0.0
N  N197  1  0.29918534  0.09358703  0.40254382  1  -1.239563  -0.001418  -0.336284  -0.246236  -0.000623  3.50697  0.0
N  N198  1  0.20083349  0.90640351  0.90254948  1  -1.239711  0.00142  -0.336355  -0.246215  0.000624  3.506899  0.0
N  N199  1  0.20084792  0.59358667  0.59745018  1  -1.239883  0.001419  -0.336273  -0.246211  0.000624  3.5067  0.0
N  N200  1  0.70082278  0.59359033  0.90255048  1  -1.239635  0.001418  -0.336311  -0.246277  0.000623  3.506754  0.0
N  N201  1  0.70080822  0.90641801  0.59745517  1  -1.239818  0.001418  -0.336439  -0.246533  0.000624  3.507211  0.0
N  N202  1  0.79918417  0.09357583  0.09744950  1  -1.240055  -0.00142  -0.336392  -0.246462  -0.000623  3.507034  0.0
N  N203  1  0.79916056  0.40640435  0.40254775  1  -1.239607  -0.001419  -0.336277  -0.246218  -0.000623  3.506906  0.0
O  O204  1  0.23773668  0.49763150  0.99983143  1  -1.124151  0.083512  -0.312946  -0.536088  0.054667  2.356382  0.076
O  O205  1  0.23771600  0.00238202  0.50016982  1  -1.124545  0.083536  -0.313008  -0.535967  0.054684  2.355818  0.076
O  O206  1  0.26229682  0.99762150  0.00016337  1  -1.124417  -0.0835  -0.312917  -0.536046  -0.054658  2.3565  -0.076
O  O207  1  0.26229262  0.50237171  0.49983902  1  -1.124249  -0.083543  -0.312985  -0.536128  -0.054685  2.356059  -0.076
O  O208  1  0.76228213  0.50235797  0.00016862  1  -1.124563  -0.083514  -0.312942  -0.536134  -0.054669  2.356293  -0.076
O  O209  1  0.76228330  0.99763470  0.49984259  1  -1.124381  -0.083536  -0.313006  -0.536057  -0.05468  2.356079  -0.076
O  O210  1  0.73773002  0.00235317  0.99983208  1  -1.124211  0.08351  -0.313042  -0.536213  0.054668  2.35578  0.076
O  O211  1  0.73774111  0.49763177  0.50016279  1  -1.124791  0.083513  -0.312995  -0.536021  0.05467  2.356045  0.076
O  O212  1  0.36344808  0.55579480  0.93462993  1  -1.119166  -0.083074  -0.323988  -0.544967  -0.054248  2.327587  -0.075
O  O213  1  0.36346552  0.94422623  0.56536903  1  -1.119652  -0.083045  -0.323959  -0.544985  -0.05423  2.328053  -0.075
O  O214  1  0.13654012  0.05575978  0.06536534  1  -1.119128  0.083078  -0.324067  -0.545097  0.054251  2.327576  0.075
O  O215  1  0.13652758  0.44423682  0.43463334  1  -1.11925  0.08306  -0.323874  -0.54488  0.054239  2.327731  0.075
O  O216  1  0.63654892  0.44422971  0.06537047  1  -1.119233  0.083061  -0.323978  -0.545012  0.05424  2.327743  0.075
O  O217  1  0.63654869  0.05575778  0.43463137  1  -1.119308  0.083049  -0.323859  -0.54495  0.054235  2.327716  0.075
O  O218  1  0.86347640  0.94423825  0.93462164  1  -1.119546  -0.083084  -0.323822  -0.544896  -0.054255  2.328147  -0.075
O  O219  1  0.86348664  0.55577990  0.56537341  1  -1.119557  -0.083092  -0.323941  -0.54491  -0.054259  2.327938  -0.075
O  O220  1  0.44165619  0.32689685  0.00558823  1  -1.12226  0.084693  -0.319551  -0.536881  0.055394  2.323667  0.077
O  O221  1  0.44163402  0.17310705  0.49440061  1  -1.121929  0.084679  -0.319353  -0.53653  0.055387  2.323539  0.077
O  O222  1  0.05835524  0.82690073  0.99440346  1  -1.121758  -0.084676  -0.319415  -0.536612  -0.055383  2.323713  -0.077
O  O223  1  0.05837946  0.67309118  0.50559192  1  -1.122154  -0.084698  -0.31948  -0.536679  -0.055397  2.323542  -0.077
O  O224  1  0.55840508  0.67309806  0.99441429  1  -1.122478  -0.084697  -0.319434  -0.536703  -0.055397  2.323392  -0.077
O  O225  1  0.55838594  0.82691122  0.50559272  1  -1.122126  -0.084704  -0.319403  -0.536568  -0.055402  2.323498  -0.077
O  O226  1  0.94162340  0.17308952  0.00559376  1  -1.122088  0.084701  -0.31946  -0.53662  0.0554  2.323483  0.077
O  O227  1  0.94163361  0.32690685  0.49440459  1  -1.122025  0.084714  -0.319604  -0.536912  0.055409  2.323246  0.077
O  O228  1  0.56858679  0.38531610  0.94056614  1  -1.115477  -0.087334  -0.321088  -0.542857  -0.057228  2.31789  -0.079
O  O229  1  0.56862532  0.11468919  0.55942733  1  -1.115189  -0.087357  -0.32112  -0.542921  -0.057244  2.317383  -0.079
O  O230  1  0.93136676  0.88532343  0.05942751  1  -1.115528  0.087363  -0.321079  -0.542812  0.057248  2.317301  0.079
O  O231  1  0.93136013  0.61466758  0.44057203  1  -1.115767  0.087353  -0.321046  -0.542779  0.057242  2.317519  0.079
O  O232  1  0.43138037  0.61468271  0.05942436  1  -1.115354  0.087337  -0.321104  -0.542958  0.05723  2.318109  0.079
O  O233  1  0.43133496  0.88534155  0.44057766  1  -1.115694  0.087353  -0.320956  -0.542746  0.057242  2.318087  0.079
O  O234  1  0.06864745  0.11467849  0.94057289  1  -1.115833  -0.087332  -0.320978  -0.542702  -0.057228  2.317788  -0.079
O  O235  1  0.06864147  0.38532188  0.55942519  1  -1.115743  -0.087314  -0.321055  -0.542921  -0.057216  2.317955  -0.079
