# generated using pymatgen
data_CoBH15C14(N4O)2
_symmetry_space_group_name_H-M   'P 1'
_cell_length_a   13.14453115
_cell_length_b   14.87165625
_cell_length_c   14.87166487
_cell_angle_alpha   68.44105973
_cell_angle_beta   63.77276628
_cell_angle_gamma   63.77304050
_symmetry_Int_Tables_number   1
_chemical_formula_structural   CoBH15C14(N4O)2
_chemical_formula_sum   'Co4 B4 H60 C56 N32 O8'
_cell_volume   2285.19577843
_cell_formula_units_Z   4
loop_
 _symmetry_equiv_pos_site_id
 _symmetry_equiv_pos_as_xyz
  1  'x, y, z'
loop_
 _atom_site_type_symbol
 _atom_site_label
 _atom_site_symmetry_multiplicity
 _atom_site_fract_x
 _atom_site_fract_y
 _atom_site_fract_z
 _atom_site_occupancy
 _atom_site_pbe_bader_charge
 _atom_site_pbe_bader_spin_density
 _atom_site_pbe_cm5_charge
 _atom_site_pbe_ddec_charge
 _atom_site_pbe_ddec_spin_density
 _atom_site_pbe_ddec_sum_bond_order
 _atom_site_pbe_magmom
Co  Co0  1  0.36556421  0.53960096  0.17675279  1  1.221264  2.591229  0.664459  0.712834  2.804761  2.592567  2.566
Co  Co1  1  0.63443835  0.82324412  0.46039739  1  1.221239  2.591226  0.664495  0.712863  2.804753  2.59245  2.566
Co  Co2  1  0.08183325  0.46042166  0.82322439  1  1.221001  2.591187  0.665224  0.714031  2.804489  2.591987  2.566
Co  Co3  1  0.91816686  0.17677432  0.53958162  1  1.221101  2.591183  0.665254  0.714057  2.804484  2.592027  2.566
B  B4  1  0.92314804  0.52688779  0.21464179  1  2.213361  0.001388  0.110474  0.526867  0.001728  3.33034  0.003
B  B5  1  0.07685001  0.78536097  0.47311100  1  2.213356  0.001388  0.110487  0.526688  0.001728  3.330771  0.003
B  B6  1  0.66462893  0.47308776  0.78536567  1  2.210396  0.001392  0.108607  0.525511  0.001726  3.333358  0.003
B  B7  1  0.33537240  0.21463318  0.52691100  1  2.210023  0.001393  0.108603  0.525512  0.001726  3.333438  0.003
H  H8  1  0.14172807  0.44523151  0.26809317  1  0.118663  0.000378  0.130836  0.091186  -0.000124  1.015177  0.0
H  H9  1  0.85826935  0.73190681  0.55476783  1  0.118713  0.000378  0.130843  0.091243  -0.000124  1.015174  0.0
H  H10  1  0.85494364  0.55475413  0.73198552  1  0.136642  0.000384  0.130933  0.091925  -0.000122  1.014566  0.0
H  H11  1  0.14506086  0.26801052  0.44524351  1  0.136729  0.000384  0.130959  0.092003  -0.000122  1.014562  0.0
H  H12  1  0.17588320  0.72853817  0.07941782  1  0.126466  0.000537  0.125027  0.130974  4.5e-05  0.994671  0.001
H  H13  1  0.82411794  0.92058263  0.27146086  1  0.126465  0.000537  0.125026  0.130969  4.5e-05  0.994701  0.001
H  H14  1  0.98381282  0.27147319  0.92064821  1  0.133913  0.000545  0.125456  0.131432  4.5e-05  0.993264  0.001
H  H15  1  0.01618747  0.07935117  0.72852830  1  0.13388  0.000545  0.125442  0.131415  4.5e-05  0.993285  0.001
H  H16  1  0.96733477  0.71368294  0.08729642  1  0.102774  0.000961  0.12922  0.125768  0.000381  0.983475  0.0
H  H17  1  0.03266551  0.91270531  0.28631592  1  0.102737  0.000961  0.129219  0.125761  0.000381  0.983461  0.0
H  H18  1  0.76827438  0.28627691  0.91281657  1  0.090965  0.000975  0.129614  0.126473  0.000382  0.984729  0.0
H  H19  1  0.23172547  0.08718642  0.71372175  1  0.090936  0.000975  0.129624  0.126505  0.000382  0.984706  0.0
H  H20  1  0.49290275  0.81526115  0.00663651  1  0.063122  0.002077  0.094361  0.148995  0.000845  0.991488  0.001
H  H21  1  0.50709904  0.99336728  0.18473544  1  0.063095  0.002077  0.094312  0.148939  0.000845  0.991469  0.001
H  H22  1  0.31483866  0.18466564  0.99329709  1  0.037702  0.002113  0.094533  0.149427  0.000846  0.991472  0.001
H  H23  1  0.68516000  0.00670095  0.81533791  1  0.037755  0.002112  0.09454  0.149428  0.000846  0.991544  0.001
H  H24  1  0.63422466  0.71263745  0.98180637  1  0.052529  0.000121  0.092202  0.136695  -2.4e-05  1.024147  0.0
H  H25  1  0.36577653  0.01819742  0.28736005  1  0.052505  0.000121  0.092216  0.136727  -2.4e-05  1.024157  0.0
H  H26  1  0.32857234  0.28738715  0.01805614  1  0.046309  0.000122  0.092012  0.137474  -2.5e-05  1.024923  0.0
H  H27  1  0.67142746  0.98194176  0.71261581  1  0.046251  0.000122  0.092049  0.137487  -2.5e-05  1.024873  0.0
H  H28  1  0.56866404  0.75079586  0.09975111  1  0.048957  0.000227  0.097765  0.150407  7e-06  0.992202  0.0
H  H29  1  0.43133696  0.90025269  0.24920217  1  0.04908  0.000227  0.097777  0.150425  7e-06  0.992211  0.0
H  H30  1  0.41918085  0.24917971  0.90016605  1  0.058394  0.000221  0.09852  0.150938  6e-06  0.99143  0.0
H  H31  1  0.58081781  0.09983119  0.75082319  1  0.05836  0.000221  0.09853  0.150935  6e-06  0.991451  0.0
H  H32  1  0.87505888  0.68888530  0.30584878  1  0.120214  0.000407  0.130256  0.08932  -8.4e-05  1.038339  0.0
H  H33  1  0.12494036  0.69415320  0.31111528  1  0.120273  0.000407  0.130258  0.089303  -8.4e-05  1.03834  0.0
H  H34  1  0.86979136  0.31114591  0.69418111  1  0.140334  0.000415  0.130585  0.090196  -8.4e-05  1.037562  0.0
H  H35  1  0.13020846  0.30582059  0.68885260  1  0.14015  0.000415  0.130603  0.090248  -8.4e-05  1.037514  0.0
H  H36  1  0.67917048  0.51751241  0.32365235  1  0.089373  0.001089  0.123927  0.117298  0.000445  1.005606  0.0
H  H37  1  0.32082738  0.67635123  0.48248725  1  0.089368  0.001089  0.123939  0.117309  0.000445  1.005632  0.0
H  H38  1  0.52039781  0.48243758  0.67621472  1  0.104593  0.001083  0.12369  0.117324  0.000445  1.007357  0.0
H  H39  1  0.47960475  0.32378433  0.51756283  1  0.104571  0.001083  0.123686  0.117348  0.000445  1.007359  0.0
H  H40  1  0.53413479  0.65538049  0.45281380  1  0.099891  0.000756  0.116649  0.110477  0.000123  1.009398  0.0
H  H41  1  0.46586197  0.54718832  0.34462166  1  0.099944  0.000756  0.116647  0.110473  0.000123  1.009447  0.0
H  H42  1  0.64256359  0.34464539  0.54699656  1  0.085017  0.000756  0.11609  0.110185  0.000123  1.011037  0.0
H  H43  1  0.35743809  0.45300559  0.65535243  1  0.085035  0.000756  0.11608  0.110192  0.000123  1.010996  0.0
H  H44  1  0.09144532  0.51116214  0.01239230  1  0.115285  0.000269  0.132349  0.091275  -0.000129  1.025274  0.0
H  H45  1  0.90855163  0.98761034  0.48883896  1  0.115218  0.000269  0.132375  0.091315  -0.000129  1.025311  0.0
H  H46  1  0.61489140  0.48886571  0.98757519  1  0.109794  0.000268  0.132804  0.091431  -0.000128  1.024744  0.0
H  H47  1  0.38511156  0.01242280  0.51113137  1  0.109756  0.000268  0.132816  0.091492  -0.000128  1.024706  0.0
H  H48  1  0.86128206  0.42046627  0.42774787  1  0.139299  0.000395  0.129996  0.088427  -0.000155  1.032046  0.0
H  H49  1  0.13871610  0.57225328  0.57953384  1  0.139263  0.000395  0.130017  0.088407  -0.000155  1.032079  0.0
H  H50  1  0.70915336  0.57950850  0.57232295  1  0.12387  0.000386  0.129682  0.08752  -0.000156  1.032326  0.0
H  H51  1  0.29085180  0.42767568  0.42048656  1  0.123934  0.000385  0.129698  0.087569  -0.000157  1.032352  0.0
H  H52  1  0.71644582  0.56046457  0.15689093  1  0.151333  0.001083  0.115952  0.112196  0.000532  1.053338  0.0
H  H53  1  0.28354960  0.84311101  0.43954080  1  0.151347  0.001083  0.115962  0.11223  0.000532  1.053185  0.0
H  H54  1  0.43369330  0.43949455  0.84310115  1  0.136237  0.001092  0.115611  0.112166  0.000534  1.054316  0.0
H  H55  1  0.56630903  0.15689727  0.56050009  1  0.136217  0.001092  0.11562  0.112195  0.000534  1.054328  0.0
H  H56  1  0.06577222  0.33589612  0.13988450  1  0.12419  0.000871  0.122025  0.121707  0.000282  1.021788  0.0
H  H57  1  0.93422555  0.86011697  0.66410484  1  0.124142  0.000871  0.122013  0.12174  0.000282  1.021692  0.0
H  H58  1  0.54175039  0.66404096  0.86014607  1  0.109733  0.000865  0.122369  0.120872  0.000282  1.021829  0.0
H  H59  1  0.45825341  0.13985199  0.33596168  1  0.109697  0.000865  0.122397  0.120922  0.000282  1.021792  0.0
H  H60  1  0.78968539  0.53207456  0.96347235  1  0.078205  0.000727  0.112027  0.100882  0.000129  1.033273  0.0
H  H61  1  0.21031458  0.03652561  0.46792909  1  0.078336  0.000727  0.112076  0.100941  0.000129  1.03321  0.0
H  H62  1  0.28516251  0.46793042  0.03651942  1  0.109609  0.000724  0.111902  0.101709  0.000129  1.031738  0.0
H  H63  1  0.71483943  0.96347363  0.53207205  1  0.110058  0.000724  0.111913  0.101694  0.000129  1.031852  0.0
H  H64  1  0.07373690  0.16146831  0.29580206  1  0.112685  0.000725  0.115591  0.112123  0.000166  1.010889  0.0
H  H65  1  0.92626402  0.70419930  0.83853155  1  0.112669  0.000725  0.11559  0.112111  0.000166  1.010875  0.0
H  H66  1  0.53094633  0.83852709  0.70423361  1  0.118292  0.000722  0.116493  0.112799  0.000165  1.011478  0.0
H  H67  1  0.46905976  0.29576427  0.16146927  1  0.118226  0.000722  0.116469  0.112755  0.000165  1.011507  0.0
C  C68  1  0.12249410  0.52108817  0.21899628  1  0.943266  -0.001021  0.141724  0.124414  -0.001925  3.940451  0.0
C  C69  1  0.87750416  0.78100404  0.47891184  1  0.943209  -0.001022  0.141676  0.124262  -0.001927  3.940475  0.0
C  C70  1  0.86250880  0.47888592  0.78107072  1  0.943807  -0.00102  0.140461  0.122291  -0.001916  3.940556  0.0
C  C71  1  0.13749221  0.21892944  0.52111322  1  0.943691  -0.001021  0.140416  0.122151  -0.001916  3.940634  0.0
C  C72  1  0.13612656  0.66842111  0.12067326  1  0.428528  0.000703  -0.001857  -0.039977  -0.000484  3.988169  0.001
C  C73  1  0.86387402  0.87932833  0.33157735  1  0.428712  0.000701  -0.001889  -0.040024  -0.000484  3.988124  0.001
C  C74  1  0.92516840  0.33156469  0.87940727  1  0.417702  0.000683  -0.00233  -0.039665  -0.000483  3.987564  0.001
C  C75  1  0.07483083  0.12059421  0.66843569  1  0.417692  0.000682  -0.002301  -0.039659  -0.000483  3.987509  0.001
C  C76  1  0.03405225  0.66120674  0.12362357  1  0.272279  0.003813  0.00347  -0.074284  0.001981  3.967405  0.003
C  C77  1  0.96594817  0.87637848  0.33879341  1  0.272517  0.003813  0.003471  -0.074266  0.001981  3.967288  0.003
C  C78  1  0.81882663  0.33876474  0.87646863  1  0.28824  0.003812  0.003157  -0.076148  0.001987  3.97037  0.003
C  C79  1  0.18117395  0.12353384  0.66123469  1  0.288286  0.003812  0.003149  -0.076158  0.001987  3.97032  0.003
C  C80  1  0.54771218  0.74128091  0.04068488  1  -0.099689  0.002938  -0.247626  -0.513835  0.001734  3.921741  0.002
C  C81  1  0.45228838  0.95931916  0.25871673  1  -0.099334  0.002938  -0.247594  -0.51381  0.001734  3.921729  0.002
C  C82  1  0.32961967  0.25868824  0.95920435  1  -0.078843  0.002897  -0.248344  -0.515889  0.001732  3.922374  0.002
C  C83  1  0.67037885  0.04079417  0.74131486  1  -0.078881  0.002897  -0.248363  -0.515883  0.001732  3.922422  0.002
C  C84  1  0.80166913  0.66121048  0.32890301  1  0.976266  -0.00423  0.140133  0.131176  -0.005108  3.924548  -0.002
C  C85  1  0.19832976  0.67110053  0.33878899  1  0.976413  -0.004228  0.140135  0.131296  -0.005107  3.924517  -0.002
C  C86  1  0.79181914  0.33880115  0.67108177  1  0.934732  -0.004273  0.139207  0.130501  -0.005142  3.925786  -0.002
C  C87  1  0.20818119  0.32892045  0.66119561  1  0.935541  -0.004275  0.13921  0.130449  -0.005143  3.925774  -0.002
C  C88  1  0.69761166  0.57410596  0.33815476  1  0.295669  0.002983  -0.004045  -0.08569  0.00154  3.974206  0.002
C  C89  1  0.30238626  0.66184597  0.42589560  1  0.295631  0.002982  -0.004054  -0.085675  0.00154  3.974264  0.002
C  C90  1  0.60995116  0.42586963  0.66175646  1  0.285564  0.002991  -0.002034  -0.083144  0.001536  3.975501  0.002
C  C91  1  0.39004841  0.33824557  0.57412901  1  0.285561  0.002991  -0.002042  -0.083233  0.001536  3.975679  0.002
C  C92  1  0.62710322  0.64124285  0.40310483  1  0.411129  -0.000891  -0.006765  -0.03915  -0.001761  4.02303  0.0
C  C93  1  0.37289422  0.59689612  0.35875873  1  0.410821  -0.00089  -0.006783  -0.03913  -0.00176  4.023091  0.0
C  C94  1  0.67163076  0.35877798  0.59675171  1  0.417717  -0.000888  -0.007016  -0.040634  -0.001765  4.023752  0.0
C  C95  1  0.32836987  0.40324991  0.64121974  1  0.417586  -0.000888  -0.006977  -0.04058  -0.001765  4.023683  0.0
C  C96  1  0.99975537  0.52076475  0.02524344  1  0.971394  0.002512  0.140933  0.127683  0.001012  3.93366  0.002
C  C97  1  0.00024120  0.97475902  0.47923623  1  0.971421  0.002513  0.140964  0.127765  0.001013  3.933645  0.002
C  C98  1  0.54568900  0.47924368  0.97470100  1  0.980237  0.002555  0.140002  0.127174  0.00102  3.937596  0.002
C  C99  1  0.45430840  0.02529354  0.52076083  1  0.980136  0.002557  0.139958  0.127086  0.00102  3.937623  0.002
C  C100  1  0.91913529  0.37310941  0.37142900  1  0.976453  -0.002337  0.136893  0.125735  -0.003474  3.946206  -0.001
C  C101  1  0.08086403  0.62857230  0.62689034  1  0.976339  -0.002336  0.136922  0.125849  -0.003472  3.946138  -0.001
C  C102  1  0.66339709  0.62689071  0.62861122  1  0.99857  -0.002312  0.138053  0.128212  -0.003462  3.94368  -0.001
C  C103  1  0.33660176  0.37138962  0.37310825  1  0.998372  -0.002313  0.137959  0.12807  -0.003463  3.943527  -0.001
C  C104  1  0.80553791  0.54588033  0.09978998  1  0.280722  0.003645  0.000198  -0.061109  0.002013  3.935508  0.002
C  C105  1  0.19445911  0.90021467  0.45411951  1  0.280657  0.003646  0.000242  -0.060955  0.002013  3.935385  0.002
C  C106  1  0.45112139  0.45409210  0.90019202  1  0.345956  0.003599  0.001023  -0.060297  0.002017  3.936808  0.002
C  C107  1  0.54888324  0.09980486  0.54590139  1  0.346189  0.003598  0.000904  -0.060562  0.002016  3.937267  0.002
C  C108  1  0.02675760  0.32778054  0.22252924  1  0.27613  0.002692  -0.001745  -0.070898  0.001388  3.943944  0.002
C  C109  1  0.97323890  0.77747338  0.67222002  1  0.276046  0.002692  -0.001724  -0.070882  0.001388  3.943649  0.002
C  C110  1  0.57711552  0.67219030  0.77751329  1  0.29349  0.002698  -0.001145  -0.066507  0.001389  3.941361  0.002
C  C111  1  0.42289065  0.22248483  0.32780749  1  0.293494  0.002698  -0.001207  -0.066632  0.001389  3.941297  0.002
C  C112  1  0.84258582  0.53175916  0.00251881  1  0.399355  0.000393  -0.007605  -0.036588  -0.000543  4.007877  0.0
C  C113  1  0.15741098  0.99748603  0.46823641  1  0.399485  0.000393  -0.007723  -0.03686  -0.000543  4.008135  0.0
C  C114  1  0.37680941  0.46819706  0.99747227  1  0.333503  0.0004  -0.008638  -0.038483  -0.000541  4.012129  0.0
C  C115  1  0.62319438  0.00252439  0.53180062  1  0.332907  0.0004  -0.008585  -0.038298  -0.000541  4.01235  0.0
C  C116  1  0.02913524  0.24161753  0.30024973  1  0.391828  0.000902  -0.008202  -0.040427  4.4e-05  4.015099  0.001
C  C117  1  0.97086501  0.69975240  0.75838272  1  0.391931  0.000903  -0.008185  -0.040396  4.4e-05  4.014928  0.001
C  C118  1  0.57089005  0.75837787  0.69979908  1  0.387332  0.000905  -0.010359  -0.044025  3.1e-05  4.01735  0.001
C  C119  1  0.42911186  0.30020197  0.24162033  1  0.387378  0.000904  -0.010317  -0.043898  3e-05  4.017368  0.001
C  C120  1  0.48254064  0.66417989  0.08750468  1  1.541284  -0.004656  0.187556  0.651667  -0.006854  4.151717  -0.006
C  C121  1  0.51746299  0.91249652  0.33581674  1  1.540998  -0.004654  0.187445  0.651494  -0.006853  4.151864  -0.006
C  C122  1  0.23418394  0.33573897  0.91235141  1  1.532787  -0.004642  0.188853  0.65312  -0.006875  4.147632  -0.006
C  C123  1  0.76581342  0.08764715  0.66426266  1  1.532958  -0.004642  0.188809  0.653157  -0.006875  4.147519  -0.006
N  N124  1  0.02612963  0.56690116  0.18593786  1  -1.447143  0.00226  -0.234619  -0.223797  0.000668  3.757427  0.001
N  N125  1  0.97386978  0.81406307  0.43309899  1  -1.447167  0.00226  -0.234591  -0.223679  0.000667  3.757413  0.001
N  N126  1  0.77890297  0.43306098  0.81412897  1  -1.465489  0.002264  -0.233588  -0.222072  0.000672  3.76008  0.001
N  N127  1  0.22109658  0.18587239  0.56693878  1  -1.465333  0.002264  -0.233612  -0.222114  0.000672  3.760245  0.001
N  N128  1  0.19084102  0.58002084  0.18067528  1  -1.210406  0.060199  -0.355492  -0.292982  0.031972  3.613074  0.047
N  N129  1  0.80915901  0.81932643  0.41997679  1  -1.210696  0.060204  -0.355448  -0.2929  0.031972  3.612972  0.047
N  N130  1  0.95146149  0.41997053  0.81939613  1  -1.212453  0.060178  -0.355134  -0.292268  0.032002  3.611556  0.047
N  N131  1  0.04853964  0.18060435  0.58002901  1  -1.212439  0.060178  -0.355134  -0.292219  0.032001  3.611622  0.047
N  N132  1  0.80908069  0.58761782  0.29011739  1  -1.458348  0.001625  -0.232376  -0.206799  0.000167  3.711904  0.001
N  N133  1  0.19091776  0.70988478  0.41238251  1  -1.458522  0.001625  -0.232366  -0.2068  0.000167  3.712017  0.001
N  N134  1  0.68681570  0.41236058  0.70987583  1  -1.439095  0.001609  -0.232729  -0.208473  0.000163  3.711243  0.001
N  N135  1  0.31318448  0.29012572  0.58763688  1  -1.439049  0.001608  -0.232714  -0.208392  0.000163  3.711299  0.001
N  N136  1  0.69345498  0.69526482  0.39683307  1  -1.22063  0.054348  -0.351669  -0.291117  0.028872  3.598298  0.046
N  N137  1  0.30654279  0.60316981  0.30473493  1  -1.220406  0.054345  -0.351626  -0.291187  0.028871  3.598309  0.046
N  N138  1  0.78569740  0.30477029  0.60308738  1  -1.212196  0.054337  -0.351262  -0.290715  0.028855  3.599031  0.046
N  N139  1  0.21430184  0.39691514  0.69522754  1  -1.212758  0.054337  -0.3513  -0.290766  0.028854  3.598971  0.046
N  N140  1  0.90619586  0.53926505  0.11399623  1  -1.463859  0.004159  -0.233272  -0.213975  0.001612  3.709638  0.002
N  N141  1  0.09380232  0.88600673  0.46073353  1  -1.463846  0.00416  -0.233351  -0.214111  0.001613  3.709861  0.002
N  N142  1  0.55938282  0.46070636  0.88597834  1  -1.474712  0.004161  -0.232884  -0.213762  0.001615  3.711434  0.002
N  N143  1  0.44062024  0.11401919  0.53929232  1  -1.474452  0.004161  -0.232829  -0.213615  0.001615  3.711516  0.002
N  N144  1  0.95632618  0.41163813  0.26845273  1  -1.461081  0.003165  -0.23339  -0.210454  0.001308  3.719871  0.002
N  N145  1  0.04367059  0.73154941  0.58836123  1  -1.460848  0.003165  -0.23344  -0.210533  0.001309  3.71984  0.002
N  N146  1  0.63635410  0.58834589  0.73157688  1  -1.465383  0.003144  -0.233694  -0.212568  0.001299  3.718958  0.002
N  N147  1  0.36364602  0.26842324  0.41165248  1  -1.465307  0.003143  -0.233702  -0.212541  0.001299  3.718805  0.002
N  N148  1  0.96052140  0.27082470  0.39350757  1  -1.243591  0.058001  -0.354797  -0.303765  0.031125  3.608674  0.045
N  N149  1  0.03947910  0.60649456  0.72917629  1  -1.243533  0.058003  -0.354822  -0.303812  0.031126  3.608707  0.045
N  N150  1  0.62459098  0.72917696  0.60654455  1  -1.24766  0.057989  -0.355023  -0.304012  0.031113  3.608832  0.045
N  N151  1  0.37540892  0.39345585  0.27081993  1  -1.247547  0.057985  -0.354913  -0.303943  0.031111  3.608731  0.045
N  N152  1  0.96462400  0.51547969  0.95659874  1  -1.202882  0.054866  -0.356182  -0.2935  0.029232  3.603297  0.043
N  N153  1  0.03537185  0.04340349  0.48452289  1  -1.2031  0.054866  -0.356164  -0.293435  0.029232  3.603221  0.043
N  N154  1  0.43663801  0.48451687  0.04336902  1  -1.213532  0.054903  -0.354695  -0.292406  0.029215  3.607467  0.043
N  N155  1  0.56336099  0.95662642  0.51548676  1  -1.213571  0.0549  -0.354673  -0.292455  0.029214  3.607415  0.043
O  O156  1  0.53023004  0.57436119  0.13573372  1  -1.175865  0.074574  -0.330773  -0.566478  0.037995  2.14439  0.064
O  O157  1  0.46977322  0.86426675  0.42563468  1  -1.175846  0.074573  -0.330779  -0.566484  0.037994  2.144544  0.064
O  O158  1  0.24029425  0.42555472  0.86409111  1  -1.168572  0.074692  -0.331126  -0.567208  0.038066  2.144425  0.064
O  O159  1  0.75970364  0.13590749  0.57444692  1  -1.168457  0.074691  -0.331132  -0.567276  0.038065  2.144407  0.064
O  O160  1  0.38071778  0.68887415  0.07894072  1  -1.158004  0.076095  -0.333802  -0.563568  0.038697  2.152945  0.066
O  O161  1  0.61928476  0.92106187  0.31112129  1  -1.158121  0.076092  -0.333689  -0.56341  0.038696  2.152847  0.066
O  O162  1  0.14844437  0.31107112  0.92095839  1  -1.154925  0.076096  -0.33473  -0.56418  0.038688  2.151048  0.066
O  O163  1  0.85155268  0.07904388  0.68892726  1  -1.155176  0.076101  -0.334722  -0.564182  0.03869  2.151056  0.066
