# generated using pymatgen
data_AlH10C12NO5
_symmetry_space_group_name_H-M   'P 1'
_cell_length_a   6.65355685
_cell_length_b   11.09640362
_cell_length_c   15.49630488
_cell_angle_alpha   65.62450794
_cell_angle_beta   73.93303299
_cell_angle_gamma   72.53589408
_symmetry_Int_Tables_number   1
_chemical_formula_structural   AlH10C12NO5
_chemical_formula_sum   'Al2 H20 C24 N2 O10'
_cell_volume   978.56648696
_cell_formula_units_Z   2
loop_
 _symmetry_equiv_pos_site_id
 _symmetry_equiv_pos_as_xyz
  1  'x, y, z'
loop_
 _atom_site_type_symbol
 _atom_site_label
 _atom_site_symmetry_multiplicity
 _atom_site_fract_x
 _atom_site_fract_y
 _atom_site_fract_z
 _atom_site_occupancy
 _atom_site_pbe_bader_charge
 _atom_site_pbe_bader_spin_density
 _atom_site_pbe_cm5_charge
 _atom_site_pbe_ddec_charge
 _atom_site_pbe_ddec_spin_density
 _atom_site_pbe_ddec_sum_bond_order
 _atom_site_pbe_magmom
Al  Al0  1  0.50235921  0.50174499  0.50038565  1  2.505615  0  0.394542  1.634589  0  2.588297  0
Al  Al1  1  0.00266433  0.50223209  0.49985346  1  2.503335  0  0.394281  1.627455  0  2.602199  0
H  H2  1  0.28043572  0.60633716  0.37946702  1  0.606997  0  0.351406  0.423531  0  0.86202  0
H  H3  1  0.72627187  0.39689908  0.62068002  1  0.599538  0  0.349851  0.42099  0  0.867233  0
H  H4  1  0.75472916  0.15226568  0.45260567  1  0.098019  0  0.104681  0.119158  0  1.031383  0
H  H5  1  0.25070194  0.85538932  0.54006250  1  0.089297  0  0.105002  0.117146  0  1.02482  0
H  H6  1  0.69285426  0.58481756  0.92903069  1  0.057189  0  0.098511  0.098681  0  1.031529  0
H  H7  1  0.28104994  0.37329283  0.08571764  1  0.038882  0  0.099476  0.099805  0  1.027959  0
H  H8  1  0.59918086  0.63379388  0.20608939  1  0.095913  0  0.106546  0.106446  0  0.999698  0
H  H9  1  0.66003671  0.63347331  0.04245381  1  0.084171  0  0.10199  0.102519  0  1.012335  0
H  H10  1  0.41873961  0.40179068  0.78584088  1  0.08531  0  0.105001  0.102291  0  1.015022  0
H  H11  1  0.36056165  0.41088734  0.94653490  1  0.068245  0  0.101558  0.102171  0  1.015258  0
H  H12  1  0.00237079  0.82080113  0.43966930  1  0.476791  0  0.301253  0.313843  0  0.985711  0
H  H13  1  0.03895354  0.97812498  0.42323977  1  0.442395  0  0.29979  0.297657  0  0.96909  0
H  H14  1  0.00525562  0.18753701  0.55667805  1  0.525215  0  0.302696  0.315465  0  0.987801  0
H  H15  1  0.96670713  0.02721117  0.58117469  1  0.429291  0  0.306662  0.301532  0  0.948971  0
H  H16  1  0.55646351  0.64439756  0.79916420  1  0.047971  0  0.088043  0.12136  0  1.006661  0
H  H17  1  0.73136943  0.69091234  0.68615137  1  0.062055  0  0.097207  0.141629  0  0.992258  0
H  H18  1  0.65809175  0.53425933  0.73272920  1  0.049253  0  0.094667  0.133322  0  1.01983  0
H  H19  1  0.35659962  0.42718164  0.26991118  1  0.0533  0  0.09624  0.139817  0  1.001527  0
H  H20  1  0.22365250  0.29211028  0.33111479  1  0.060315  0  0.096117  0.141807  0  1.005378  0
H  H21  1  0.40641750  0.29875408  0.22150308  1  0.000747  0  0.091002  0.126175  0  0.997026  0
C  C22  1  0.85418924  0.51939287  0.33414363  1  1.534868  0  0.271775  0.65658  0  4.068833  0
C  C23  1  0.63810686  0.73647997  0.48689214  1  1.524704  0  0.259558  0.643675  0  4.089733  0
C  C24  1  0.15032849  0.48376945  0.66658411  1  1.550181  0  0.270072  0.655133  0  4.070825  0
C  C25  1  0.36742477  0.26874915  0.51049048  1  1.522551  0  0.259529  0.643378  0  4.087779  0
C  C26  1  0.57610581  0.87429454  0.49024830  1  0.004197  0  -0.02821  -0.142849  0  3.967962  0
C  C27  1  0.42858445  0.13402931  0.50185647  1  0.023538  0  -0.029291  -0.146753  0  3.975082  0
C  C28  1  0.72667927  0.95782826  0.46335402  1  0.418961  0  0.090133  0.270216  0  4.104614  0
C  C29  1  0.27689396  0.05255489  0.52502807  1  0.463136  0  0.090514  0.267901  0  4.117574  0
C  C30  1  0.64529351  0.08589043  0.47101882  1  -0.041876  0  -0.104174  -0.212345  0  3.970868  0
C  C31  1  0.35898375  0.92305728  0.52023360  1  -0.083997  0  -0.108461  -0.22331  0  3.989996  0
C  C32  1  0.09412331  0.49008168  0.76475248  1  0.035396  0  -0.019061  -0.120309  0  3.926912  0
C  C33  1  0.90730918  0.51151006  0.23653157  1  0.013593  0  -0.016843  -0.114909  0  3.926657  0
C  C34  1  0.88559371  0.54434777  0.80529466  1  -0.001993  0  0.004488  0.174819  0  3.93405  0
C  C35  1  0.85470157  0.54470084  0.89828721  1  -0.093555  0  -0.093628  -0.201146  0  3.931197  0
C  C36  1  0.10457172  0.43801406  0.20188558  1  -0.009278  0  0.005861  0.177716  0  3.93679  0
C  C37  1  0.13200609  0.43456129  0.11004213  1  -0.002801  0  -0.091955  -0.199121  0  3.929733  0
C  C38  1  0.75017832  0.57826079  0.17794885  1  -0.055543  0  -0.083079  -0.08185  0  4.026255  0
C  C39  1  0.78464268  0.57656755  0.08600237  1  -0.035921  0  -0.094415  -0.141518  0  3.998356  0
C  C40  1  0.25933991  0.44205872  0.81834129  1  -0.097504  0  -0.081513  -0.075681  0  4.021914  0
C  C41  1  0.22497675  0.44616668  0.90950720  1  -0.018827  0  -0.095042  -0.144304  0  3.995233  0
C  C42  1  0.01920619  0.49752999  0.95238992  1  -0.003618  0  -0.002345  0.082835  0  4.005068  0
C  C43  1  0.97803946  0.50316253  0.04977027  1  -0.0671  0  -0.003302  0.080891  0  4.005423  0
C  C44  1  0.69781041  0.60636983  0.75347551  1  -0.06041  0  -0.238961  -0.407982  0  3.961263  0
C  C45  1  0.28207103  0.35976063  0.25907434  1  -0.017766  0  -0.240274  -0.417102  0  3.962064  0
N  N46  1  0.94040149  0.92052141  0.42847259  1  -1.24733  0  -0.602851  -0.626656  0  3.3412  0
N  N47  1  0.05932140  0.09678403  0.54778869  1  -1.276417  0  -0.598743  -0.62788  0  3.37246  0
O  O48  1  0.65594910  0.54262043  0.37097779  1  -1.261022  0  -0.23895  -0.60709  0  2.351167  0
O  O49  1  0.83869007  0.68405467  0.47072294  1  -1.274009  0  -0.241779  -0.609129  0  2.38616  0
O  O50  1  0.99920186  0.49997112  0.62450984  1  -1.265248  0  -0.232458  -0.589802  0  2.372759  0
O  O51  1  0.51635720  0.32639975  0.50035021  1  -1.261668  0  -0.241399  -0.592479  0  2.352781  0
O  O52  1  0.34897435  0.46141543  0.62992141  1  -1.274716  0  -0.240184  -0.608591  0  2.351615  0
O  O53  1  0.16691749  0.32023385  0.52898569  1  -1.266297  0  -0.243028  -0.61329  0  2.389454  0
O  O54  1  0.00674273  0.50398232  0.37510900  1  -1.25912  0  -0.230419  -0.586816  0  2.358412  0
O  O55  1  0.48919880  0.67711825  0.49978089  1  -1.270349  0  -0.242607  -0.596688  0  2.358236  0
O  O56  1  0.24913341  0.57359805  0.44921773  1  -1.413709  0  -0.447641  -0.9767  0  2.181225  0
O  O57  1  0.75652676  0.42996722  0.55094680  1  -1.410895  0  -0.447836  -0.976228  0  2.180685  0
