# generated using pymatgen
data_AlH11C15NO5
_symmetry_space_group_name_H-M   'P 1'
_cell_length_a   6.93414225
_cell_length_b   17.20118473
_cell_length_c   19.20831823
_cell_angle_alpha   71.11218348
_cell_angle_beta   89.99968294
_cell_angle_gamma   89.99974148
_symmetry_Int_Tables_number   1
_chemical_formula_structural   AlH11C15NO5
_chemical_formula_sum   'Al4 H44 C60 N4 O20'
_cell_volume   2167.71597296
_cell_formula_units_Z   4
loop_
 _symmetry_equiv_pos_site_id
 _symmetry_equiv_pos_as_xyz
  1  'x, y, z'
loop_
 _atom_site_type_symbol
 _atom_site_label
 _atom_site_symmetry_multiplicity
 _atom_site_fract_x
 _atom_site_fract_y
 _atom_site_fract_z
 _atom_site_occupancy
 _atom_site_pbe_bader_charge
 _atom_site_pbe_bader_spin_density
 _atom_site_pbe_cm5_charge
 _atom_site_pbe_ddec_charge
 _atom_site_pbe_ddec_spin_density
 _atom_site_pbe_ddec_sum_bond_order
 _atom_site_pbe_magmom
Al  Al0  1  0.08378815  0.49817106  0.50082136  1  2.502997  0  0.406142  1.621604  0  2.571218  0
Al  Al1  1  0.58378942  0.50182035  0.49918325  1  2.503028  0  0.406116  1.621606  0  2.571205  0
Al  Al2  1  0.63198559  0.99978516  0.99779984  1  2.504307  0  0.40585  1.630223  0  2.565402  0
Al  Al3  1  0.13199900  0.00021555  0.00219808  1  2.504158  0  0.405811  1.630179  0  2.565476  0
H  H4  1  0.54419322  0.69182773  0.29721967  1  0.137066  0  0.103915  0.095934  0  1.119758  0
H  H5  1  0.04418925  0.30816027  0.70277346  1  0.137103  0  0.103955  0.096028  0  1.119693  0
H  H6  1  0.32328836  0.76870633  0.18055430  1  0.048255  0  0.09573  0.106206  0  1.005823  0
H  H7  1  0.82329582  0.23129730  0.81945108  1  0.048108  0  0.095787  0.106272  0  1.005957  0
H  H8  1  0.12190438  0.57955751  0.67719994  1  0.080987  0  0.105071  0.112674  0  1.004224  0
H  H9  1  0.62189746  0.42042819  0.32281563  1  0.081178  0  0.105017  0.112475  0  1.00439  0
H  H10  1  0.43756578  0.87254609  0.72993557  1  0.057956  0  0.106723  0.111232  0  0.982173  0
H  H11  1  0.93756721  0.12744620  0.27006699  1  0.058408  0  0.106732  0.111237  0  0.982149  0
H  H12  1  0.61197397  0.91421867  0.82501826  1  0.090172  0  0.109968  0.119142  0  0.99582  0
H  H13  1  0.11197394  0.08577642  0.17498410  1  0.090184  0  0.110011  0.119246  0  0.99566  0
H  H14  1  0.20887946  0.85533038  0.93482980  1  0.462317  0  0.30014  0.25485  0  1.006562  0
H  H15  1  0.13815706  0.72309568  0.02556828  1  0.019459  0  0.088814  0.086235  0  0.993418  0
H  H16  1  0.38567163  0.72946856  0.99793316  1  0.058561  0  0.101865  0.109929  0  0.97994  0
H  H17  1  0.21685124  0.67489563  0.96158439  1  0.055068  0  0.101147  0.106195  0  1.014368  0
H  H18  1  0.70883719  0.14469054  0.06514542  1  0.462388  0  0.300132  0.254902  0  1.006523  0
H  H19  1  0.63812465  0.27694096  0.97442343  1  0.02024  0  0.08888  0.086302  0  0.993454  0
H  H20  1  0.88563597  0.27056513  0.00206598  1  0.058858  0  0.101784  0.109867  0  0.980115  0
H  H21  1  0.71679961  0.32512361  0.03842325  1  0.054607  0  0.10122  0.106303  0  1.014119  0
H  H22  1  0.31583334  0.70862116  0.85191268  1  0.083392  0  0.106444  0.108295  0  1.013023  0
H  H23  1  0.81581171  0.29138135  0.14808613  1  0.083425  0  0.106478  0.108321  0  1.013005  0
H  H24  1  0.29819022  0.62343729  0.77136039  1  0.062245  0  0.102004  0.107095  0  0.994199  0
H  H25  1  0.79817578  0.37655880  0.22864176  1  0.062414  0  0.101976  0.107078  0  0.994365  0
H  H26  1  0.56943677  0.80768654  0.17893504  1  0.090903  0  0.098449  0.089575  0  1.084262  0
H  H27  1  0.06944366  0.19230762  0.82106517  1  0.090903  0  0.09844  0.089541  0  1.084387  0
H  H28  1  0.31263135  0.84187758  0.22907516  1  0.067057  0  0.104669  0.126391  0  0.972022  0
H  H29  1  0.81263224  0.15812781  0.77093022  1  0.067214  0  0.10467  0.126411  0  0.97203  0
H  H30  1  0.32477798  0.66851806  0.40653397  1  0.4408  0  0.286616  0.239672  0  1.006736  0
H  H31  1  0.28583465  0.78937176  0.43959839  1  0.026625  0  0.096604  0.101616  0  0.988534  0
H  H32  1  0.05866791  0.76745730  0.40600556  1  0.036249  0  0.079539  0.072594  0  1.017338  0
H  H33  1  0.21362869  0.84422226  0.34851792  1  0.029183  0  0.095788  0.099987  0  0.992294  0
H  H34  1  0.82475104  0.33148462  0.59346758  1  0.440968  0  0.286586  0.239622  0  1.006859  0
H  H35  1  0.78586932  0.21061829  0.56041588  1  0.027268  0  0.096552  0.101562  0  0.988538  0
H  H36  1  0.55868282  0.23252305  0.59400407  1  0.036529  0  0.079564  0.072571  0  1.017473  0
H  H37  1  0.71367819  0.15577171  0.65150027  1  0.029499  0  0.095803  0.100043  0  0.992163  0
H  H38  1  0.29717811  0.65302225  0.29673629  1  0.044974  0  0.115928  0.074526  0  0.95582  0
H  H39  1  0.79718332  0.34698199  0.70326747  1  0.044947  0  0.11592  0.074491  0  0.955826  0
H  H40  1  0.56276785  0.68066535  0.60201240  1  0.077069  0  0.103444  0.107839  0  1.008714  0
H  H41  1  0.06275260  0.31932688  0.39798508  1  0.07698  0  0.103464  0.107851  0  1.008735  0
H  H42  1  0.41923766  0.78708094  0.64827756  1  0.059747  0  0.102474  0.107271  0  0.994018  0
H  H43  1  0.91924480  0.21291390  0.35172281  1  0.059726  0  0.102469  0.107214  0  0.994161  0
H  H44  1  0.33042192  0.58455237  0.52747732  1  0.577771  0  0.341869  0.408015  0  0.882043  0
H  H45  1  0.83042790  0.41544936  0.47251708  1  0.577498  0  0.341911  0.408177  0  0.882001  0
H  H46  1  0.38407204  0.89632280  0.04787332  1  0.601045  0  0.337221  0.406572  0  0.891547  0
H  H47  1  0.88406863  0.10367711  0.95212927  1  0.601009  0  0.337177  0.406533  0  0.891633  0
C  C48  1  0.33580920  0.42302453  0.41636972  1  1.534612  0  0.273799  0.661385  0  4.0605  0
C  C49  1  0.83581773  0.57696124  0.58363518  1  1.534579  0  0.273731  0.661528  0  4.060611  0
C  C50  1  0.33627040  0.38757733  0.61275392  1  1.570897  0  0.269615  0.64717  0  4.087461  0
C  C51  1  0.83627806  0.61241758  0.38724490  1  1.571162  0  0.269514  0.647177  0  4.087148  0
C  C52  1  0.02086527  0.71499427  0.28682810  1  -0.004752  0  -0.0083  -0.005976  0  3.905214  0
C  C53  1  0.52086544  0.28500592  0.71317819  1  -0.006053  0  -0.008357  -0.006161  0  3.905347  0
C  C54  1  0.84654342  0.68030458  0.31615090  1  -0.027479  0  -0.009731  -0.068281  0  3.989484  0
C  C55  1  0.34655408  0.31969711  0.68385172  1  -0.02804  0  -0.00972  -0.068036  0  3.989454  0
C  C56  1  0.68293286  0.71516947  0.27475250  1  -0.08  0  -0.084763  -0.097251  0  3.983067  0
C  C57  1  0.18293743  0.28482461  0.72524430  1  -0.079632  0  -0.08471  -0.097345  0  3.983184  0
C  C58  1  0.69725925  0.78029149  0.20920389  1  0.020746  0  -0.08878  -0.098814  0  3.991281  0
C  C59  1  0.19725626  0.21970859  0.79079231  1  0.020859  0  -0.088859  -0.098932  0  3.991715  0
C  C60  1  0.87473185  0.81530179  0.18003514  1  -0.071663  0  -0.016588  -0.096431  0  4.008353  0
C  C61  1  0.37473167  0.18470121  0.81997184  1  -0.086088  0  -0.016516  -0.096248  0  4.007868  0
C  C62  1  0.03562574  0.78045130  0.22143074  1  -0.018785  0  -0.005803  0.071752  0  3.939344  0
C  C63  1  0.53563277  0.21954831  0.77857389  1  -0.017474  0  -0.005896  0.071728  0  3.939143  0
C  C64  1  0.25124427  0.78466347  0.22501365  1  -0.072337  0  -0.15445  -0.269508  0  3.869913  0
C  C65  1  0.75126153  0.21534432  0.77498686  1  -0.072439  0  -0.154476  -0.269613  0  3.870251  0
C  C66  1  0.23635252  0.71053838  0.30070590  1  0.395268  0  0.016749  0.103149  0  3.86905  0
C  C67  1  0.73636877  0.28946630  0.69929848  1  0.395207  0  0.01676  0.103196  0  3.869168  0
C  C68  1  0.00281361  0.61977588  0.68018788  1  -0.035141  0  -0.088098  -0.158303  0  3.949457  0
C  C69  1  0.50280159  0.38021014  0.31982234  1  -0.034446  0  -0.088042  -0.157991  0  3.9499  0
C  C70  1  0.84092346  0.62516784  0.63538553  1  -0.027704  0  -0.024037  -0.051647  0  4.048641  0
C  C71  1  0.34091238  0.37482414  0.36461823  1  -0.027928  0  -0.024033  -0.051694  0  4.04899  0
C  C72  1  0.68690688  0.67690892  0.63781555  1  -0.020968  0  -0.086936  -0.155967  0  3.951391  0
C  C73  1  0.18688941  0.32307969  0.36219005  1  -0.021141  0  -0.087042  -0.155982  0  3.951487  0
C  C74  1  0.69378938  0.72583967  0.68370815  1  -0.037646  0  -0.009384  0.077446  0  4.046016  0
C  C75  1  0.19377502  0.27415788  0.31629356  1  -0.038148  0  -0.00941  0.077292  0  4.046089  0
C  C76  1  0.85708528  0.71920707  0.73105896  1  0.014406  0  0.004036  0.003901  0  3.89255  0
C  C77  1  0.35705880  0.28078782  0.26894313  1  0.014891  0  0.004085  0.004194  0  3.892346  0
C  C78  1  0.01212611  0.66502660  0.72921271  1  -0.002234  0  -0.009747  0.077974  0  4.052469  0
C  C79  1  0.51211432  0.33496700  0.27079252  1  -0.003193  0  -0.00965  0.077835  0  4.052687  0
C  C80  1  0.54318489  0.78275069  0.68430738  1  -0.054742  0  -0.096252  -0.146398  0  4.028309  0
C  C81  1  0.04317283  0.21724329  0.31569341  1  -0.05474  0  -0.096333  -0.146399  0  4.028452  0
C  C82  1  0.55336991  0.82981230  0.72934902  1  -0.019995  0  -0.086811  -0.118548  0  4.015047  0
C  C83  1  0.05336668  0.17018206  0.27065231  1  -0.020418  0  -0.086801  -0.118548  0  4.01545  0
C  C84  1  0.71399062  0.82396790  0.77761654  1  0.006124  0  -0.01853  0.053144  0  4.074072  0
C  C85  1  0.21397531  0.17603333  0.22238128  1  0.006211  0  -0.018464  0.053134  0  4.074184  0
C  C86  1  0.86657660  0.76748072  0.77886130  1  -0.012358  0  0.002575  0.011411  0  3.937133  0
C  C87  1  0.36656479  0.23251746  0.22113802  1  -0.012151  0  0.002527  0.011495  0  3.936778  0
C  C88  1  0.02958151  0.76131813  0.82572715  1  -0.003158  0  -0.0147  -0.023958  0  3.995762  0
C  C89  1  0.52956880  0.23868792  0.17426591  1  -0.00354  0  -0.014638  -0.02416  0  3.996081  0
C  C90  1  0.18468838  0.70835963  0.82087762  1  -0.031445  0  -0.089833  -0.116172  0  4.03056  0
C  C91  1  0.68467189  0.29164046  0.17912189  1  -0.031513  0  -0.089879  -0.116116  0  4.030647  0
C  C92  1  0.17592243  0.66172989  0.77532097  1  -0.074046  0  -0.094739  -0.143244  0  4.022176  0
C  C93  1  0.67590720  0.33826902  0.22468186  1  -0.073977  0  -0.094711  -0.14323  0  4.022401  0
C  C94  1  0.72833764  0.87211816  0.82362410  1  -0.034919  0  -0.079484  -0.124739  0  3.97188  0
C  C95  1  0.22832398  0.12788150  0.17637482  1  -0.034924  0  -0.079586  -0.124918  0  3.971822  0
C  C96  1  0.88768064  0.86757816  0.86956864  1  -0.024037  0  -0.02707  -0.156541  0  3.981996  0
C  C97  1  0.38766351  0.13242429  0.13042843  1  -0.024394  0  -0.027041  -0.156524  0  3.981604  0
C  C98  1  0.04099664  0.81123853  0.87233504  1  0.451831  0  0.109405  0.178206  0  3.973029  0
C  C99  1  0.54096975  0.18877101  0.12765635  1  0.452132  0  0.109417  0.178399  0  3.972972  0
C  C100  1  0.38117498  0.11423578  0.88906710  1  1.550458  0  0.272928  0.659707  0  4.074019  0
C  C101  1  0.88116685  0.88574764  0.11093447  1  1.535598  0  0.272922  0.659753  0  4.073782  0
C  C102  1  0.38360333  0.07993197  0.08235301  1  1.510497  0  0.264388  0.655585  0  4.06969  0
C  C103  1  0.88361581  0.92007051  0.91763748  1  1.510274  0  0.264424  0.655488  0  4.070025  0
C  C104  1  0.23656903  0.72919415  0.97873585  1  0.246352  0  -0.137612  -0.209467  0  3.975838  0
C  C105  1  0.73653010  0.27083308  0.02125909  1  0.245532  0  -0.137838  -0.209723  0  3.975949  0
C  C106  1  0.21136167  0.78343565  0.39113123  1  0.261778  0  -0.148223  -0.207786  0  4.025373  0
C  C107  1  0.71139093  0.21655892  0.60888201  1  0.258525  0  -0.148183  -0.207763  0  4.025466  0
N  N108  1  0.20037859  0.80495392  0.91780660  1  -1.137354  0  -0.45737  -0.314887  0  3.501316  0
N  N109  1  0.70034244  0.19506348  0.08217854  1  -1.137133  0  -0.457218  -0.314884  0  3.501444  0
N  N110  1  0.31387829  0.72390467  0.36566456  1  -1.085825  0  -0.489455  -0.345256  0  3.451805  0
N  N111  1  0.81387154  0.27610072  0.63434083  1  -1.084015  0  -0.489468  -0.345197  0  3.45216  0
O  O112  1  0.49907794  0.41483827  0.58362378  1  -1.259689  0  -0.234815  -0.599695  0  2.368418  0
O  O113  1  0.99907243  0.58515474  0.41638145  1  -1.259487  0  -0.234754  -0.599712  0  2.368452  0
O  O114  1  0.17118720  0.43850859  0.43875174  1  -1.267928  0  -0.236765  -0.60061  0  2.333645  0
O  O115  1  0.67120795  0.56148178  0.56125222  1  -1.267797  0  -0.236653  -0.60069  0  2.334085  0
O  O116  1  0.16984182  0.41217523  0.58644462  1  -1.26075  0  -0.234377  -0.589687  0  2.353877  0
O  O117  1  0.66983922  0.58782215  0.41355437  1  -1.261169  0  -0.234354  -0.58962  0  2.353442  0
O  O118  1  0.99825490  0.55492563  0.56493535  1  -1.258317  0  -0.236352  -0.601376  0  2.360508  0
O  O119  1  0.49823124  0.44506582  0.43507264  1  -1.258038  0  -0.236283  -0.601255  0  2.360707  0
O  O120  1  0.33263762  0.55206070  0.49439747  1  -1.383958  0  -0.444991  -0.951297  0  2.106285  0
O  O121  1  0.83263812  0.44793363  0.50560301  1  -1.383689  0  -0.444997  -0.951502  0  2.106396  0
O  O122  1  0.21813979  0.05857488  0.06583189  1  -1.255646  0  -0.238319  -0.596485  0  2.345579  0
O  O123  1  0.71815306  0.94141254  0.93417203  1  -1.255444  0  -0.238378  -0.596462  0  2.345583  0
O  O124  1  0.54755312  0.08673565  0.91374936  1  -1.258738  0  -0.233047  -0.591188  0  2.326183  0
O  O125  1  0.04753531  0.91325410  0.08624211  1  -1.25834  0  -0.232987  -0.591191  0  2.326159  0
O  O126  1  0.54614868  0.06034661  0.06063240  1  -1.257551  0  -0.237804  -0.602285  0  2.378048  0
O  O127  1  0.04616651  0.93966490  0.93935183  1  -1.257646  0  -0.237825  -0.60218  0  2.377844  0
O  O128  1  0.71950888  0.91343937  0.08130104  1  -1.2706  0  -0.234342  -0.59705  0  2.352044  0
O  O129  1  0.21952836  0.08657193  0.91870113  1  -1.270506  0  -0.23428  -0.59703  0  2.352501  0
O  O130  1  0.38150793  0.94855198  0.00827259  1  -1.412744  0  -0.452422  -0.965812  0  2.096703  0
O  O131  1  0.88150161  0.05144621  0.99172341  1  -1.412775  0  -0.45243  -0.965786  0  2.096552  0
