# generated using pymatgen
data_CdH22C32(N2O)4
_symmetry_space_group_name_H-M   'P 1'
_cell_length_a   8.80300972
_cell_length_b   14.01167399
_cell_length_c   14.37000000
_cell_angle_alpha   90.00000000
_cell_angle_beta   90.00000000
_cell_angle_gamma   107.73585772
_symmetry_Int_Tables_number   1
_chemical_formula_structural   CdH22C32(N2O)4
_chemical_formula_sum   'Cd2 H44 C64 N16 O8'
_cell_volume   1688.22273409
_cell_formula_units_Z   2
loop_
 _symmetry_equiv_pos_site_id
 _symmetry_equiv_pos_as_xyz
  1  'x, y, z'
loop_
 _atom_site_type_symbol
 _atom_site_label
 _atom_site_symmetry_multiplicity
 _atom_site_fract_x
 _atom_site_fract_y
 _atom_site_fract_z
 _atom_site_occupancy
 _atom_site_hle17_bader_spin_density
 _atom_site_hle17_ddec_charge
 _atom_site_hle17_ddec_spin_density
 _atom_site_hle17_ddec_sum_bond_order
 _atom_site_hle17_magmom
 _atom_site_hse06_10hf_bader_spin_density
 _atom_site_hse06_10hf_ddec_charge
 _atom_site_hse06_10hf_ddec_spin_density
 _atom_site_hse06_10hf_ddec_sum_bond_order
 _atom_site_hse06_10hf_magmom
 _atom_site_hse06_bader_spin_density
 _atom_site_hse06_ddec_charge
 _atom_site_hse06_ddec_spin_density
 _atom_site_hse06_ddec_sum_bond_order
 _atom_site_hse06_magmom
 _atom_site_pbe_bader_charge
 _atom_site_pbe_bader_spin_density
 _atom_site_pbe_cm5_charge
 _atom_site_pbe_ddec_charge
 _atom_site_pbe_ddec_spin_density
 _atom_site_pbe_ddec_sum_bond_order
 _atom_site_pbe_magmom
Cd  Cd0  1  0.50000095  0.50000249  0.99999652  1  0  0.990713  0  1.857449  0  0  0.779827  0  2.316796  0  0  0.834314  0  2.273573  0  1.221752  0  0.762324  0.741524  0  2.345894  0
Cd  Cd1  1  0.00000296  0.50000549  0.50000070  1  0  0.990767  0  1.857414  0  0  0.779889  0  2.316747  0  0  0.83438  0  2.273517  0  1.221637  0  0.76232  0.741582  0  2.345853  0
H  H2  1  0.88477391  0.59504125  0.31218093  1  0  0.073459  0  0.933897  0  0  0.084263  0  0.994065  0  0  0.086993  0  0.991498  0  0.099687  0  0.114104  0.082307  0  0.995892  0
H  H3  1  0.61521235  0.40496074  0.81218163  1  0  0.073491  0  0.933993  0  0  0.08431  0  0.994143  0  0  0.087041  0  0.991574  0  0.099632  0  0.11411  0.082354  0  0.99597  0
H  H4  1  0.11523040  0.40495699  0.68781698  1  0  0.073462  0  0.933951  0  0  0.084263  0  0.994118  0  0  0.086995  0  0.991548  0  0.099661  0  0.114111  0.082308  0  0.995946  0
H  H5  1  0.38477415  0.59503825  0.18780724  1  0  0.073501  0  0.933833  0  0  0.084337  0  0.993965  0  0  0.087068  0  0.991397  0  0.099962  0  0.114138  0.082381  0  0.995793  0
H  H6  1  0.97901893  0.75225128  0.21556159  1  0  0.093177  0  1.005434  0  0  0.100131  0  1.070367  0  0  0.102038  0  1.072546  0  0.091554  0  0.097852  0.09876  0  1.068976  0
H  H7  1  0.52095856  0.24775371  0.71555950  1  0  0.0932  0  1.005332  0  0  0.100133  0  1.070285  0  0  0.102041  0  1.072465  0  0.091781  0  0.097826  0.098757  0  1.068903  0
H  H8  1  0.02098511  0.24774172  0.78442519  1  0  0.093315  0  1.005404  0  0  0.100263  0  1.07032  0  0  0.102172  0  1.072497  0  0.091796  0  0.097879  0.098886  0  1.06894  0
H  H9  1  0.47902385  0.75224154  0.28443633  1  0  0.093271  0  1.005355  0  0  0.100196  0  1.070313  0  0  0.102102  0  1.072488  0  0.09171  0  0.09787  0.098825  0  1.068922  0
H  H10  1  0.22990300  0.88429368  0.26118580  1  0  0.108867  0  0.9799  0  0  0.110371  0  1.052109  0  0  0.114794  0  1.048077  0  0.137421  0  0.108619  0.107217  0  1.054949  0
H  H11  1  0.27008360  0.11570906  0.76118859  1  0  0.108785  0  0.979978  0  0  0.110275  0  1.052208  0  0  0.114699  0  1.048175  0  0.137516  0  0.108585  0.107121  0  1.055048  0
H  H12  1  0.77010709  0.11570007  0.73879819  1  0  0.108742  0  0.980082  0  0  0.110227  0  1.05233  0  0  0.114653  0  1.048292  0  0.13742  0  0.108571  0.107073  0  1.05517  0
H  H13  1  0.72990609  0.88428244  0.23881350  1  0  0.108857  0  0.979955  0  0  0.110344  0  1.052176  0  0  0.114768  0  1.048141  0  0.137081  0  0.108619  0.10719  0  1.055017  0
H  H14  1  0.62213071  0.89349963  0.50135769  1  0  0.094322  0  0.931235  0  0  0.107973  0  0.985295  0  0  0.110872  0  0.983152  0  0.04558  0  0.104268  0.105877  0  0.98682  0
H  H15  1  0.87787064  0.10650536  0.00136813  1  0  0.094378  0  0.931275  0  0  0.108025  0  0.985326  0  0  0.110921  0  0.983189  0  0.045655  0  0.104236  0.10593  0  0.986849  0
H  H16  1  0.37786060  0.10650461  0.49864092  1  0  0.094304  0  0.931331  0  0  0.107987  0  0.985338  0  0  0.110885  0  0.983198  0  0.045533  0  0.104243  0.105891  0  0.986862  0
H  H17  1  0.12214167  0.89349064  0.99864231  1  0  0.094286  0  0.931347  0  0  0.108043  0  0.985273  0  0  0.110942  0  0.983131  0  0.045536  0  0.104265  0.105947  0  0.986798  0
H  H18  1  0.51833670  0.73305186  0.58540084  1  0  0.107484  0  0.954393  0  0  0.117916  0  1.015595  0  0  0.120801  0  1.01643  0  0.074315  0  0.094649  0.115958  0  1.015008  0
H  H19  1  0.98167160  0.26694639  0.08541406  1  0  0.107559  0  0.954327  0  0  0.117952  0  1.015584  0  0  0.120832  0  1.01641  0  0.074118  0  0.094616  0.115982  0  1.01502  0
H  H20  1  0.48166252  0.26695463  0.41459847  1  0  0.107525  0  0.954322  0  0  0.117919  0  1.015574  0  0  0.1208  0  1.016408  0  0.07422  0  0.094656  0.115958  0  1.014993  0
H  H21  1  0.01833694  0.73304886  0.91459151  1  0  0.107483  0  0.954298  0  0  0.117904  0  1.015533  0  0  0.120782  0  1.016364  0  0.074129  0  0.094607  0.115941  0  1.014954  0
H  H22  1  0.62234001  0.00444787  0.39131872  1  0  0.081547  0  0.943833  0  0  0.090776  0  1.010308  0  0  0.094568  0  1.005596  0  0.10797  0  0.115127  0.08799  0  1.013734  0
H  H23  1  0.87764349  0.99556012  0.89132498  1  0  0.081579  0  0.943749  0  0  0.090742  0  1.010301  0  0  0.094558  0  1.005558  0  0.107537  0  0.115129  0.087956  0  1.013728  0
H  H24  1  0.37765885  0.99555787  0.60867571  1  0  0.081608  0  0.943862  0  0  0.090796  0  1.010388  0  0  0.094608  0  1.00565  0  0.10766  0  0.115151  0.088013  0  1.013815  0
H  H25  1  0.12235665  0.00443888  0.10868058  1  0  0.081613  0  0.943806  0  0  0.090807  0  1.010329  0  0  0.094608  0  1.0056  0  0.10764  0  0.115133  0.088016  0  1.013754  0
H  H26  1  0.77472122  0.26738773  0.29581072  1  0  0.09853  0  0.98311  0  0  0.105883  0  1.052116  0  0  0.108798  0  1.049769  0  0.133281  0  0.109802  0.10375  0  1.053726  0
H  H27  1  0.72527990  0.73260977  0.79581768  1  0  0.098738  0  0.983038  0  0  0.106094  0  1.051985  0  0  0.109009  0  1.049641  0  0.133267  0  0.109916  0.10396  0  1.053602  0
H  H28  1  0.22526264  0.73261052  0.70418650  1  0  0.09873  0  0.983189  0  0  0.106079  0  1.052119  0  0  0.108985  0  1.049805  0  0.133161  0  0.109941  0.10394  0  1.053749  0
H  H29  1  0.27474164  0.26737949  0.20420598  1  0  0.098608  0  0.98323  0  0  0.105954  0  1.052117  0  0  0.108854  0  1.04981  0  0.133414  0  0.109872  0.103822  0  1.053724  0
H  H30  1  0.93551426  0.43943548  0.24848017  1  0  0.104507  0  0.947735  0  0  0.113849  0  1.007151  0  0  0.116582  0  1.007549  0  0.066764  0  0.108363  0.111879  0  1.007092  0
H  H31  1  0.56450532  0.56056726  0.74847878  1  0  0.104488  0  0.947731  0  0  0.11383  0  1.007161  0  0  0.116562  0  1.007561  0  0.066466  0  0.108357  0.111862  0  1.007108  0
H  H32  1  0.06447897  0.56056801  0.75152331  1  0  0.104567  0  0.947727  0  0  0.113915  0  1.007136  0  0  0.116648  0  1.007534  0  0.066757  0  0.108409  0.111945  0  1.007075  0
H  H33  1  0.43552067  0.43942649  0.25154280  1  0  0.104457  0  0.947872  0  0  0.113852  0  1.007226  0  0  0.116585  0  1.007623  0  0.066958  0  0.108376  0.111882  0  1.007165  0
H  H34  1  0.83561564  0.52451523  0.11825191  1  0  0.081954  0  0.932461  0  0  0.090914  0  0.99319  0  0  0.093704  0  0.990876  0  0.059876  0  0.117344  0.088813  0  0.994913  0
H  H35  1  0.66438467  0.47548526  0.61823869  1  0  0.081941  0  0.932555  0  0  0.090915  0  0.993245  0  0  0.093709  0  0.990939  0  0.059965  0  0.117359  0.088825  0  0.994953  0
H  H36  1  0.16438254  0.47548676  0.88174739  1  0  0.081934  0  0.932522  0  0  0.0909  0  0.993236  0  0  0.093688  0  0.990926  0  0.05995  0  0.117363  0.088805  0  0.994951  0
H  H37  1  0.33562087  0.52450849  0.38177035  1  0  0.081921  0  0.932601  0  0  0.090888  0  0.993297  0  0  0.093675  0  0.990997  0  0.060274  0  0.117372  0.088798  0  0.995003  0
H  H38  1  0.44653665  0.27287413  0.07502505  1  0  0.082373  0  0.964722  0  0  0.086134  0  1.035544  0  0  0.089351  0  1.032789  0  0.129245  0  0.11517  0.083684  0  1.037689  0
H  H39  1  0.05345876  0.72714209  0.57502088  1  0  0.082444  0  0.964675  0  0  0.086165  0  1.035554  0  0  0.089381  0  1.032802  0  0.129113  0  0.115199  0.083714  0  1.037701  0
H  H40  1  0.55345803  0.72713235  0.92497286  1  0  0.082385  0  0.964818  0  0  0.086196  0  1.035616  0  0  0.089415  0  1.032857  0  0.129319  0  0.115162  0.083745  0  1.037762  0
H  H41  1  0.94653637  0.27286065  0.42497843  1  0  0.082409  0  0.964618  0  0  0.08613  0  1.035493  0  0  0.089347  0  1.032738  0  0.129133  0  0.115178  0.083678  0  1.037641  0
H  H42  1  0.65845919  0.11796147  0.29034099  1  0  0.288611  0  0.948896  0  0  0.266891  0  1.020813  0  0  0.274996  0  1.015033  0  0.534919  0  0.310609  0.261165  0  1.024929  0
H  H43  1  0.84153871  0.88204576  0.79033473  1  0  0.288495  0  0.948898  0  0  0.266793  0  1.0208  0  0  0.274893  0  1.015027  0  0.53491  0  0.310625  0.261068  0  1.024914  0
H  H44  1  0.34153290  0.88204202  0.70965344  1  0  0.288519  0  0.948899  0  0  0.266798  0  1.020828  0  0  0.274904  0  1.01505  0  0.534832  0  0.310576  0.261072  0  1.024942  0
H  H45  1  0.15847124  0.11795473  0.20966736  1  0  0.288492  0  0.948853  0  0  0.266768  0  1.020787  0  0  0.274867  0  1.015014  0  0.534953  0  0.310583  0.261043  0  1.0249  0
C  C46  1  0.99604551  0.65348399  0.32807516  1  0  0.121552  0  3.748245  0  0  0.089895  0  3.99948  0  0  0.097817  0  4.015646  0  0.457735  0  0.042808  0.084848  0  3.988154  0
C  C47  1  0.50394498  0.34651501  0.82807655  1  0  0.121398  0  3.748575  0  0  0.08973  0  3.999798  0  0  0.09765  0  4.015967  0  0.457947  0  0.04278  0.084684  0  3.988468  0
C  C48  1  0.00396762  0.34650901  0.67191788  1  0  0.121584  0  3.748189  0  0  0.089921  0  3.99942  0  0  0.097842  0  4.015586  0  0.457907  0  0.042707  0.084873  0  3.988092  0
C  C49  1  0.49604379  0.65348399  0.17192206  1  0  0.121506  0  3.748265  0  0  0.089827  0  3.999488  0  0  0.097748  0  4.015654  0  0.457342  0  0.042809  0.084779  0  3.988161  0
C  C50  1  0.04806561  0.74160292  0.27523591  1  0  -0.121859  0  3.76527  0  0  -0.130769  0  4.01166  0  0  -0.136724  0  4.032798  0  -0.056808  0  -0.09164  -0.126862  0  3.997227  0
C  C51  1  0.45192103  0.25839758  0.77523869  1  0  -0.12191  0  3.765393  0  0  -0.130798  0  4.011751  0  0  -0.136753  0  4.032887  0  -0.056985  0  -0.091729  -0.126889  0  3.997317  0
C  C52  1  0.95194306  0.25838559  0.72475296  1  0  -0.122116  0  3.765079  0  0  -0.131026  0  4.011478  0  0  -0.136983  0  4.032607  0  -0.057007  0  -0.091605  -0.127115  0  3.997049  0
C  C53  1  0.54806738  0.74160067  0.22476131  1  0  -0.121995  0  3.765424  0  0  -0.130888  0  4.011829  0  0  -0.136835  0  4.032952  0  -0.056839  0  -0.091705  -0.126981  0  3.997397  0
C  C54  1  0.18708417  0.81454694  0.30014335  1  0  -0.040814  0  3.667893  0  0  -0.06422  0  3.912923  0  0  -0.062292  0  3.928903  0  0.008881  0  -0.065034  -0.065288  0  3.901937  0
C  C55  1  0.31290661  0.18545505  0.80014892  1  0  -0.040669  0  3.667916  0  0  -0.064058  0  3.912888  0  0  -0.062128  0  3.928869  0  0.008963  0  -0.06495  -0.065124  0  3.901898  0
C  C56  1  0.81291714  0.18544981  0.69984621  1  0  -0.040515  0  3.667842  0  0  -0.063904  0  3.912847  0  0  -0.061974  0  3.928826  0  0.008872  0  -0.064969  -0.064972  0  3.901858  0
C  C57  1  0.68708412  0.81454094  0.19985038  1  0  -0.040673  0  3.668006  0  0  -0.064042  0  3.912947  0  0  -0.062113  0  3.928927  0  0.009223  0  -0.064969  -0.065111  0  3.901961  0
C  C58  1  0.27741676  0.79940500  0.37742658  1  0  0.011563  0  3.753893  0  0  0.023749  0  3.981156  0  0  0.024314  0  4.005454  0  0.013184  0  -0.001633  0.023384  0  3.964741  0
C  C59  1  0.22257483  0.20059400  0.87743563  1  0  0.011598  0  3.753925  0  0  0.023769  0  3.981174  0  0  0.024334  0  4.005476  0  0.013163  0  -0.001501  0.023405  0  3.964758  0
C  C60  1  0.72258564  0.20059400  0.62256576  1  0  0.011474  0  3.754091  0  0  0.023633  0  3.981336  0  0  0.024196  0  4.005635  0  0.013259  0  -0.001599  0.023269  0  3.964922  0
C  C61  1  0.77741476  0.79940200  0.12256646  1  0  0.011538  0  3.753866  0  0  0.023703  0  3.981122  0  0  0.024265  0  4.005422  0  0.013206  0  -0.001547  0.023339  0  3.964707  0
C  C62  1  0.21760903  0.70609339  0.42580306  1  0  0.066557  0  3.734034  0  0  0.064513  0  3.969921  0  0  0.063628  0  3.993973  0  0.413526  0  0.093865  0.064944  0  3.953822  0
C  C63  1  0.28239011  0.29390711  0.92581072  1  0  0.066455  0  3.734112  0  0  0.064396  0  3.970028  0  0  0.063509  0  3.994083  0  0.413447  0  0.093719  0.064825  0  3.953928  0
C  C64  1  0.78238987  0.29391010  0.57419555  1  0  0.066501  0  3.734087  0  0  0.064534  0  3.96997  0  0  0.063648  0  3.994011  0  0.413261  0  0.093821  0.064964  0  3.953871  0
C  C65  1  0.71760058  0.70609114  0.07418511  1  0  0.066397  0  3.733962  0  0  0.064375  0  3.969825  0  0  0.063495  0  3.993868  0  0.413607  0  0.093721  0.064805  0  3.953729  0
C  C66  1  0.42607281  0.86948817  0.40622547  1  0  -0.052661  0  3.846324  0  0  -0.041591  0  4.094565  0  0  -0.052953  0  4.125291  0  0.005847  0  -0.036037  -0.033969  0  4.07352  0
C  C67  1  0.07391761  0.13051307  0.90623104  1  0  -0.052674  0  3.846401  0  0  -0.041543  0  4.094522  0  0  -0.052911  0  4.125258  0  0.00603  0  -0.036019  -0.03392  0  4.07348  0
C  C68  1  0.57392537  0.13051382  0.59377244  1  0  -0.052642  0  3.846199  0  0  -0.041519  0  4.09437  0  0  -0.052884  0  4.125104  0  0.005999  0  -0.036036  -0.033898  0  4.073329  0
C  C69  1  0.92607993  0.86948293  0.09377314  1  0  -0.052544  0  3.846199  0  0  -0.041449  0  4.094409  0  0  -0.052815  0  4.125142  0  0.006041  0  -0.036031  -0.033828  0  4.073361  0
C  C70  1  0.50778557  0.84110453  0.48024913  1  0  -0.057592  0  3.786255  0  0  -0.083389  0  4.046637  0  0  -0.078402  0  4.068198  0  -0.105737  0  -0.081867  -0.086285  0  4.031502  0
C  C71  1  0.99220897  0.15890046  0.98025748  1  0  -0.057705  0  3.786491  0  0  -0.083504  0  4.046825  0  0  -0.078517  0  4.068388  0  -0.105897  0  -0.081862  -0.086399  0  4.031687  0
C  C72  1  0.49220875  0.15890121  0.51974809  1  0  -0.057576  0  3.786262  0  0  -0.083395  0  4.046584  0  0  -0.078409  0  4.068149  0  -0.105605  0  -0.081783  -0.086289  0  4.031448  0
C  C73  1  0.00779344  0.84109853  0.01974878  1  0  -0.057646  0  3.786594  0  0  -0.083535  0  4.046977  0  0  -0.07855  0  4.068543  0  -0.105891  0  -0.08184  -0.086428  0  4.031838  0
C  C74  1  0.45037008  0.75109136  0.52821434  1  0  -0.217028  0  3.764716  0  0  -0.240964  0  4.02952  0  0  -0.253949  0  4.053003  0  -0.020124  0  -0.125295  -0.232267  0  4.013358  0
C  C75  1  0.04963401  0.24890764  0.02822686  1  0  -0.217159  0  3.76491  0  0  -0.241089  0  4.029744  0  0  -0.254065  0  4.053214  0  -0.020247  0  -0.12528  -0.232389  0  4.013572  0
C  C76  1  0.54963787  0.24891438  0.47178149  1  0  -0.21717  0  3.76463  0  0  -0.241036  0  4.029524  0  0  -0.254021  0  4.052995  0  -0.020224  0  -0.12537  -0.232338  0  4.013357  0
C  C77  1  0.95037789  0.75108986  0.97178149  1  0  -0.217043  0  3.764755  0  0  -0.240988  0  4.029603  0  0  -0.253964  0  4.053078  0  -0.020138  0  -0.125269  -0.232289  0  4.013438  0
C  C78  1  0.30243973  0.68035179  0.50545303  1  0  0.297368  0  3.919163  0  0  0.283945  0  4.183934  0  0  0.302148  0  4.199025  0  0.763382  0  0.083496  0.271663  0  4.173272  0
C  C79  1  0.19756091  0.31964945  0.00546625  1  0  0.297648  0  3.919135  0  0  0.284231  0  4.183885  0  0  0.302437  0  4.198968  0  0.763603  0  0.08368  0.271954  0  4.173217  0
C  C80  1  0.69756553  0.31965545  0.49454628  1  0  0.297469  0  3.919084  0  0  0.283862  0  4.184066  0  0  0.302079  0  4.199141  0  0.763343  0  0.083475  0.271581  0  4.173402  0
C  C81  1  0.80243804  0.68035179  0.99453723  1  0  0.297541  0  3.919045  0  0  0.284111  0  4.183793  0  0  0.302315  0  4.198878  0  0.763529  0  0.083613  0.271828  0  4.173131  0
C  C82  1  0.50281492  0.96529572  0.36408003  1  0  0.060835  0  3.717788  0  0  0.024981  0  3.993762  0  0  0.034892  0  4.007215  0  0.537351  0  0.052966  0.018538  0  3.984447  0
C  C83  1  0.99716835  0.03470478  0.86408699  1  0  0.060754  0  3.717854  0  0  0.024932  0  3.993786  0  0  0.034829  0  4.007233  0  0.537295  0  0.052853  0.018489  0  3.984473  0
C  C84  1  0.49717458  0.03470478  0.63591441  1  0  0.060701  0  3.717884  0  0  0.024838  0  3.993877  0  0  0.034735  0  4.007322  0  0.537735  0  0.052849  0.018394  0  3.984568  0
C  C85  1  0.00283792  0.96529047  0.13592206  1  0  0.060655  0  3.718  0  0  0.024816  0  3.993943  0  0  0.034724  0  4.007396  0  0.537446  0  0.052883  0.018382  0  3.984622  0
C  C86  1  0.48730303  0.15317652  0.20790745  1  0  0.505346  0  3.863361  0  0  0.455269  0  4.151197  0  0  0.48574  0  4.150688  0  1.370345  0  0.233855  0.434974  0  4.1509  0
C  C87  1  0.01270078  0.84683596  0.70790675  1  0  0.505505  0  3.862885  0  0  0.455251  0  4.151001  0  0  0.485719  0  4.150489  0  1.370327  0  0.233842  0.434957  0  4.150705  0
C  C88  1  0.51269133  0.84682697  0.79209047  1  0  0.505365  0  3.863421  0  0  0.45524  0  4.151327  0  0  0.485714  0  4.150813  0  1.370455  0  0.233793  0.434943  0  4.151033  0
C  C89  1  0.98730835  0.15316753  0.29209951  1  0  0.505359  0  3.86299  0  0  0.455271  0  4.15089  0  0  0.485741  0  4.150382  0  1.36978  0  0.233827  0.434974  0  4.150593  0
C  C90  1  0.59926487  0.25466529  0.18647321  1  0  -0.106159  0  3.753339  0  0  -0.078617  0  3.9856  0  0  -0.090586  0  4.009024  0  -0.018014  0  -0.010177  -0.071351  0  3.970169  0
C  C91  1  0.90073039  0.74534120  0.68647321  1  0  -0.106  0  3.753202  0  0  -0.07843  0  3.985458  0  0  -0.090395  0  4.008885  0  -0.018248  0  -0.010107  -0.071163  0  3.970022  0
C  C92  1  0.40072831  0.74534045  0.81352540  1  0  -0.105906  0  3.753265  0  0  -0.078333  0  3.98549  0  0  -0.090296  0  4.008917  0  -0.018069  0  -0.010106  -0.071066  0  3.970057  0
C  C93  1  0.09927728  0.25465930  0.31354001  1  0  -0.10605  0  3.753568  0  0  -0.078509  0  3.985772  0  0  -0.090474  0  4.009198  0  -0.018044  0  -0.01006  -0.071243  0  3.970339  0
C  C94  1  0.73747891  0.30346373  0.23670981  1  0  -0.01163  0  3.680316  0  0  -0.044451  0  3.931158  0  0  -0.037512  0  3.946982  0  -0.032072  0  -0.06014  -0.048624  0  3.920522  0
C  C95  1  0.76252094  0.69654051  0.73671051  1  0  -0.01197  0  3.680489  0  0  -0.044717  0  3.931221  0  0  -0.037776  0  3.947035  0  -0.032113  0  -0.060212  -0.048894  0  3.920586  0
C  C96  1  0.26251386  0.69654350  0.76328740  1  0  -0.011966  0  3.680562  0  0  -0.044738  0  3.931351  0  0  -0.0378  0  3.947154  0  -0.031991  0  -0.060217  -0.048915  0  3.920711  0
C  C97  1  0.23749255  0.30345324  0.26330271  1  0  -0.011845  0  3.680661  0  0  -0.044552  0  3.931466  0  0  -0.037607  0  3.947263  0  -0.032155  0  -0.060228  -0.048728  0  3.920836  0
C  C98  1  0.82649446  0.40034503  0.21128740  1  0  -0.110562  0  3.730141  0  0  -0.120635  0  3.984464  0  0  -0.127727  0  4.003265  0  -0.016181  0  -0.080069  -0.116426  0  3.972154  0
C  C99  1  0.67351830  0.59965771  0.71128601  1  0  -0.11047  0  3.729926  0  0  -0.120589  0  3.98424  0  0  -0.127677  0  4.003041  0  -0.015294  0  -0.080133  -0.116393  0  3.971953  0
C  C100  1  0.17350713  0.59965696  0.78870912  1  0  -0.110614  0  3.730089  0  0  -0.120725  0  3.984405  0  0  -0.127813  0  4.003203  0  -0.016363  0  -0.080154  -0.116514  0  3.972097  0
C  C101  1  0.32649820  0.40033753  0.28872443  1  0  -0.110488  0  3.730171  0  0  -0.120665  0  3.984459  0  0  -0.127751  0  4.003254  0  -0.015784  0  -0.080136  -0.116461  0  3.972165  0
C  C102  1  0.77178172  0.44790262  0.13936117  1  0  0.126899  0  3.706975  0  0  0.094967  0  3.959177  0  0  0.104098  0  3.974135  0  0.514535  0  0.049491  0.089065  0  3.949105  0
C  C103  1  0.72822800  0.55210087  0.63935351  1  0  0.126933  0  3.70681  0  0  0.095014  0  3.959031  0  0  0.104134  0  3.974  0  0.513922  0  0.049552  0.089105  0  3.948956  0
C  C104  1  0.22821569  0.55210012  0.86063674  1  0  0.12698  0  3.707017  0  0  0.095052  0  3.95921  0  0  0.104182  0  3.974167  0  0.514805  0  0.049455  0.089145  0  3.949142  0
C  C105  1  0.27179009  0.44789063  0.36066180  1  0  0.126914  0  3.707003  0  0  0.094989  0  3.959197  0  0  0.104116  0  3.974161  0  0.513732  0  0.049447  0.089076  0  3.949122  0
C  C106  1  0.55474613  0.30826452  0.11456298  1  0  0.121631  0  3.680621  0  0  0.084709  0  3.925956  0  0  0.093294  0  3.942616  0  0.510214  0  0.0528  0.079267  0  3.914705  0
C  C107  1  0.94526036  0.69174871  0.61455950  1  0  0.121582  0  3.680656  0  0  0.084673  0  3.926042  0  0  0.093256  0  3.942699  0  0.51039  0  0.052772  0.079232  0  3.914789  0
C  C108  1  0.44525387  0.69174121  0.88543215  1  0  0.121521  0  3.680848  0  0  0.084499  0  3.92622  0  0  0.093078  0  3.942886  0  0.510368  0  0.05271  0.079058  0  3.914969  0
C  C109  1  0.05473787  0.30825104  0.38544050  1  0  0.12171  0  3.680653  0  0  0.084782  0  3.926023  0  0  0.093363  0  3.942686  0  0.510226  0  0.05278  0.079342  0  3.914772  0
N  N110  1  0.07906989  0.63671755  0.40015936  1  0  -0.350803  0  3.326129  0  0  -0.276984  0  3.589133  0  0  -0.295056  0  3.60908  0  -1.261727  0  -0.337114  -0.264517  0  3.575191  0
N  N111  1  0.42092697  0.36328294  0.90016284  1  0  -0.350711  0  3.32617  0  0  -0.276889  0  3.589183  0  0  -0.294962  0  3.609133  0  -1.261805  0  -0.337066  -0.264423  0  3.575241  0
N  N112  1  0.92093469  0.36328594  0.59983855  1  0  -0.350788  0  3.325979  0  0  -0.276951  0  3.588939  0  0  -0.295026  0  3.608887  0  -1.261584  0  -0.337057  -0.264484  0  3.574998  0
N  N113  1  0.57905616  0.63671381  0.09983159  1  0  -0.35078  0  3.325928  0  0  -0.276989  0  3.588975  0  0  -0.295064  0  3.608919  0  -1.261738  0  -0.337169  -0.264522  0  3.575034  0
N  N114  1  0.63636466  0.40284845  0.09262352  1  0  -0.326738  0  3.228544  0  0  -0.256127  0  3.497341  0  0  -0.273822  0  3.512993  0  -1.249383  0  -0.325875  -0.24423  0  3.48649  0
N  N115  1  0.86364487  0.59716403  0.59261308  1  0  -0.32692  0  3.228558  0  0  -0.256346  0  3.497443  0  0  -0.274038  0  3.513093  0  -1.249276  0  -0.32599  -0.24445  0  3.486597  0
N  N116  1  0.36363338  0.59716028  0.90737509  1  0  -0.326814  0  3.22859  0  0  -0.256183  0  3.497414  0  0  -0.273876  0  3.513067  0  -1.249632  0  -0.32584  -0.244288  0  3.486567  0
N  N117  1  0.13635336  0.40283571  0.40739179  1  0  -0.326875  0  3.228426  0  0  -0.256223  0  3.497199  0  0  -0.273918  0  3.512851  0  -1.249106  0  -0.325852  -0.244328  0  3.486354  0
N  N118  1  0.44160591  0.00641255  0.29826514  1  0  -0.166684  0  3.023576  0  0  -0.151105  0  3.304909  0  0  -0.157827  0  3.319622  0  -0.730474  0  -0.224347  -0.146532  0  3.294806  0
N  N119  1  0.05838060  0.99359469  0.79826792  1  0  -0.166774  0  3.024028  0  0  -0.151172  0  3.305337  0  0  -0.157897  0  3.320063  0  -0.730184  0  -0.224294  -0.146598  0  3.29523  0
N  N120  1  0.55838918  0.99359244  0.70172930  1  0  -0.166681  0  3.023795  0  0  -0.151068  0  3.305118  0  0  -0.157788  0  3.319838  0  -0.730729  0  -0.224333  -0.146498  0  3.295015  0
N  N121  1  0.94162330  0.00640505  0.20173417  1  0  -0.166677  0  3.024033  0  0  -0.151074  0  3.305347  0  0  -0.157798  0  3.320068  0  -0.730255  0  -0.224288  -0.146503  0  3.29524  0
N  N122  1  0.54005347  0.09705963  0.26893180  1  0  -0.293477  0  3.446163  0  0  -0.235492  0  3.6934  0  0  -0.256963  0  3.708385  0  -0.88126  0  -0.288305  -0.221015  0  3.682877  0
N  N123  1  0.95994170  0.90295135  0.76893180  1  0  -0.293165  0  3.446088  0  0  -0.235187  0  3.6934  0  0  -0.256654  0  3.708394  0  -0.881067  0  -0.288254  -0.22071  0  3.68287  0
N  N124  1  0.45994089  0.90294386  0.73106054  1  0  -0.293261  0  3.446121  0  0  -0.235309  0  3.693396  0  0  -0.256787  0  3.708386  0  -0.881194  0  -0.288177  -0.220826  0  3.682866  0
N  N125  1  0.04006557  0.09705064  0.23107029  1  0  -0.293294  0  3.446024  0  0  -0.235343  0  3.69333  0  0  -0.256807  0  3.70832  0  -0.881085  0  -0.288278  -0.220864  0  3.682801  0
O  O126  1  0.24454976  0.59796054  0.55137161  1  0  -0.590826  0  1.996379  0  0  -0.528327  0  2.238512  0  0  -0.558322  0  2.235551  0  -1.144718  0  -0.349464  -0.50697  0  2.239546  0
O  O127  1  0.25545465  0.40204145  0.05137857  1  0  -0.590883  0  1.996257  0  0  -0.528396  0  2.238405  0  0  -0.558389  0  2.235439  0  -1.144945  0  -0.349557  -0.507043  0  2.239439  0
O  O128  1  0.75546014  0.40204220  0.44862770  1  0  -0.590797  0  1.996352  0  0  -0.528239  0  2.238569  0  0  -0.558239  0  2.235605  0  -1.144774  0  -0.349453  -0.506881  0  2.2396  0
O  O129  1  0.74453667  0.59796279  0.94861587  1  0  -0.590867  0  1.996269  0  0  -0.528368  0  2.23843  0  0  -0.558366  0  2.23547  0  -1.144817  0  -0.349506  -0.507009  0  2.239463  0
O  O130  1  0.35110524  0.12582167  0.17171190  1  0  -0.57508  0  1.996621  0  0  -0.534341  0  2.22891  0  0  -0.55442  0  2.219109  0  -1.170009  0  -0.309336  -0.520469  0  2.235187  0
O  O131  1  0.14890389  0.87419006  0.67172303  1  0  -0.575309  0  1.996739  0  0  -0.534444  0  2.229076  0  0  -0.554523  0  2.219275  0  -1.169845  0  -0.309388  -0.520575  0  2.235361  0
O  O132  1  0.64889557  0.87418107  0.82827766  1  0  -0.57523  0  1.996848  0  0  -0.534451  0  2.229146  0  0  -0.554534  0  2.219344  0  -1.169978  0  -0.309362  -0.520581  0  2.23543  0
O  O133  1  0.85108738  0.12581643  0.32827488  1  0  -0.575145  0  1.996468  0  0  -0.534417  0  2.228795  0  0  -0.554501  0  2.218996  0  -1.169866  0  -0.309344  -0.520546  0  2.235075  0
