# generated using pymatgen
data_CuH8C13(NO3)2
_symmetry_space_group_name_H-M   'P 1'
_cell_length_a   6.82105661
_cell_length_b   17.25453283
_cell_length_c   17.25456078
_cell_angle_alpha   120.00006051
_cell_angle_beta   89.99992141
_cell_angle_gamma   90.00005385
_symmetry_Int_Tables_number   1
_chemical_formula_structural   CuH8C13(NO3)2
_chemical_formula_sum   'Cu6 H48 C78 N12 O36'
_cell_volume   1758.68935298
_cell_formula_units_Z   6
loop_
 _symmetry_equiv_pos_site_id
 _symmetry_equiv_pos_as_xyz
  1  'x, y, z'
loop_
 _atom_site_type_symbol
 _atom_site_label
 _atom_site_symmetry_multiplicity
 _atom_site_fract_x
 _atom_site_fract_y
 _atom_site_fract_z
 _atom_site_occupancy
 _atom_site_pbe_bader_charge
 _atom_site_pbe_bader_spin_density
 _atom_site_pbe_cm5_charge
 _atom_site_pbe_ddec_charge
 _atom_site_pbe_ddec_spin_density
 _atom_site_pbe_ddec_sum_bond_order
 _atom_site_pbe_magmom
Cu  Cu0  1  0.75000041  0.70418787  0.03113762  1  1.057008  0.564243  0.738983  0.75554  0.72326  2.251294  0.563
Cu  Cu1  1  0.25000033  0.03113904  0.32695188  1  1.059237  0.564246  0.738988  0.7556  0.723249  2.251237  0.563
Cu  Cu2  1  0.74999952  0.32694977  0.29581063  1  1.089732  0.56465  0.738965  0.755518  0.723254  2.251318  0.563
Cu  Cu3  1  0.24999955  0.29581234  0.96886187  1  1.057014  0.564241  0.738977  0.75555  0.723257  2.251274  0.563
Cu  Cu4  1  0.74999962  0.96886050  0.67304828  1  1.059254  0.564247  0.738986  0.75564  0.723249  2.251192  0.563
Cu  Cu5  1  0.25000044  0.67304861  0.70418838  1  1.089929  0.564647  0.738952  0.755495  0.723245  2.251382  0.563
H  H6  1  0.75000087  0.02651261  0.15523178  1  0.092186  0.000558  0.104171  0.109802  0.000434  1.023339  0.0
H  H7  1  0.24999935  0.15523578  0.12872326  1  0.094288  0.00054  0.104143  0.109749  0.000434  1.02336  0.0
H  H8  1  0.74999959  0.12872109  0.97348645  1  0.087569  0.000561  0.104149  0.109811  0.000434  1.023333  0.0
H  H9  1  0.25000055  0.97348693  0.84476839  1  0.092196  0.000559  0.104178  0.109814  0.000434  1.023321  0.0
H  H10  1  0.75000060  0.84476410  0.87127657  1  0.094287  0.00054  0.10414  0.109756  0.000434  1.023364  0.0
H  H11  1  0.25000036  0.87127928  0.02651521  1  0.087562  0.000561  0.104142  0.109798  0.000434  1.023344  0.0
H  H12  1  0.75000280  0.50845293  0.21116826  1  0.122632  0.000409  0.105616  0.106769  0.000357  1.041557  0.0
H  H13  1  0.24999844  0.21116831  0.70271487  1  0.094135  0.000412  0.105615  0.106744  0.000357  1.041563  0.0
H  H14  1  0.75000109  0.70271563  0.49154596  1  0.079332  0.000415  0.105626  0.106764  0.000357  1.041496  0.0
H  H15  1  0.24999862  0.49154729  0.78883124  1  0.122681  0.00041  0.105623  0.106754  0.000357  1.041573  0.0
H  H16  1  0.75000005  0.78883133  0.29728405  1  0.093915  0.000412  0.105612  0.106738  0.000357  1.041574  0.0
H  H17  1  0.24999887  0.29728367  0.50845329  1  0.079287  0.000415  0.10561  0.106748  0.000357  1.041531  0.0
H  H18  1  0.06532047  0.81056708  0.15641823  1  0.173544  0.003094  0.130294  0.11515  0.001552  1.001038  0.002
H  H19  1  0.56532256  0.15641887  0.34585111  1  0.173672  0.003111  0.130292  0.115171  0.001551  1.001006  0.002
H  H20  1  0.06532134  0.34585068  0.18943273  1  0.177562  0.003105  0.130263  0.115108  0.001551  1.001103  0.002
H  H21  1  0.56532322  0.18943244  0.84358202  1  0.17355  0.003094  0.130269  0.115149  0.001551  1.00107  0.002
H  H22  1  0.06531966  0.84358098  0.65414881  1  0.173668  0.003111  0.130282  0.115119  0.001552  1.001012  0.002
H  H23  1  0.56532235  0.65414976  0.81056776  1  0.177502  0.003105  0.13027  0.115143  0.001551  1.001063  0.002
H  H24  1  0.93467948  0.18943246  0.84358193  1  0.173575  0.003094  0.130288  0.115162  0.001551  1.001014  0.002
H  H25  1  0.43467739  0.84358125  0.65414963  1  0.173669  0.003111  0.130286  0.115141  0.001551  1.000989  0.002
H  H26  1  0.93467862  0.65414920  0.81056710  1  0.177564  0.003105  0.130283  0.115171  0.001551  1.001125  0.002
H  H27  1  0.43467820  0.81056802  0.15641839  1  0.173544  0.003094  0.130269  0.115152  0.001551  1.001047  0.002
H  H28  1  0.93468030  0.15641890  0.34585102  1  0.173678  0.003111  0.130292  0.115153  0.001552  1.000992  0.002
H  H29  1  0.43467760  0.34585012  0.18943206  1  0.177497  0.003105  0.130266  0.115131  0.001551  1.001083  0.002
H  H30  1  0.06464457  0.59527776  0.89674491  1  0.151778  0.003441  0.126552  0.103402  0.00172  1.019679  0.002
H  H31  1  0.56464179  0.89674540  0.30146711  1  0.143012  0.003466  0.126553  0.103386  0.001719  1.019676  0.002
H  H32  1  0.06464507  0.30146735  0.40472147  1  0.143183  0.003464  0.126564  0.1034  0.001719  1.019718  0.002
H  H33  1  0.56464302  0.40472152  0.10325443  1  0.151452  0.003441  0.126562  0.103394  0.001719  1.0197  0.002
H  H34  1  0.06464434  0.10325445  0.69853281  1  0.143021  0.003466  0.126554  0.103387  0.001719  1.019704  0.002
H  H35  1  0.56464399  0.69853217  0.59527878  1  0.142928  0.003465  0.126565  0.103403  0.001719  1.019713  0.002
H  H36  1  0.93535538  0.40472179  0.10325525  1  0.151783  0.003441  0.126556  0.103397  0.001719  1.019679  0.002
H  H37  1  0.43535816  0.10325415  0.69853305  1  0.143032  0.003466  0.126562  0.103411  0.001719  1.019678  0.002
H  H38  1  0.93535635  0.69853253  0.59527836  1  0.143169  0.003465  0.126561  0.103408  0.001719  1.019667  0.002
H  H39  1  0.43535693  0.59527836  0.89674540  1  0.151455  0.003441  0.126555  0.103402  0.001719  1.019677  0.002
H  H40  1  0.93535562  0.89674509  0.30146736  1  0.143015  0.003466  0.12655  0.103402  0.00172  1.019658  0.002
H  H41  1  0.43535743  0.30146771  0.40472105  1  0.142928  0.003465  0.126563  0.103404  0.001719  1.019707  0.002
H  H42  1  0.75000148  0.49293400  0.97782543  1  0.644346  3.5e-05  0.302471  0.36747  -5.6e-05  0.961743  0.0
H  H43  1  0.24999970  0.97782539  0.48489145  1  0.676468  4.1e-05  0.302468  0.367456  -5.6e-05  0.961733  0.0
H  H44  1  0.74999934  0.48489079  0.50706647  1  0.661955  4e-05  0.302454  0.367431  -5.6e-05  0.96168  0.0
H  H45  1  0.25000141  0.50706646  0.02217498  1  0.644363  3.5e-05  0.302466  0.367454  -5.6e-05  0.961745  0.0
H  H46  1  0.74999879  0.02217449  0.51510838  1  0.67648  4.1e-05  0.302465  0.367465  -5.6e-05  0.96173  0.0
H  H47  1  0.25000062  0.51510909  0.49293336  1  0.661958  4e-05  0.302484  0.367471  -5.6e-05  0.961626  0.0
H  H48  1  0.75000047  0.49449909  0.71202989  1  0.125733  -5.5e-05  0.107684  0.104786  -7.2e-05  1.045304  0.0
H  H49  1  0.25000278  0.71202889  0.21753061  1  0.128741  -5.4e-05  0.107695  0.104783  -7.2e-05  1.045297  0.0
H  H50  1  0.74999903  0.21753069  0.50550199  1  0.079689  -5.6e-05  0.107697  0.104784  -7.2e-05  1.045314  0.0
H  H51  1  0.25000096  0.50550137  0.28797052  1  0.125866  -5.5e-05  0.107698  0.104789  -7.2e-05  1.045294  0.0
H  H52  1  0.75000010  0.28797066  0.78246956  1  0.128737  -5.4e-05  0.107691  0.104783  -7.2e-05  1.045255  0.0
H  H53  1  0.25000239  0.78246977  0.49449842  1  0.079678  -5.6e-05  0.107701  0.104798  -7.2e-05  1.045342  0.0
C  C54  1  0.75000097  0.01534520  0.08739394  1  0.009671  0.000161  -0.065543  -0.076632  -0.000307  3.900488  0.0
C  C55  1  0.24999937  0.08739594  0.07205201  1  0.013342  0.000202  -0.065454  -0.07645  -0.000306  3.900303  0.0
C  C56  1  0.75000097  0.07205074  0.98465444  1  -0.062851  0.000207  -0.06552  -0.076647  -0.000306  3.900327  0.0
C  C57  1  0.25000045  0.98465526  0.91260647  1  0.009703  0.000161  -0.06554  -0.076605  -0.000306  3.900426  0.0
C  C58  1  0.75000059  0.91260394  0.92794781  1  0.01331  0.000202  -0.065477  -0.076504  -0.000306  3.900349  0.0
C  C59  1  0.25000045  0.92794939  0.01534630  1  -0.062839  0.000207  -0.06552  -0.07664  -0.000306  3.900277  0.0
C  C60  1  0.75000070  0.92782526  0.01528025  1  -0.063299  0.008335  -0.018197  -0.037175  0.005807  3.990677  0.007
C  C61  1  0.24999926  0.01528458  0.08745929  1  0.008233  0.008341  -0.018282  -0.037306  0.005808  3.990382  0.007
C  C62  1  0.74999962  0.08745368  0.07217385  1  0.008934  0.008332  -0.018238  -0.037204  0.005808  3.990578  0.007
C  C63  1  0.24999926  0.07217544  0.98472108  1  -0.063217  0.008335  -0.018235  -0.037268  0.005807  3.990721  0.007
C  C64  1  0.75000070  0.98471612  0.91254204  1  0.008287  0.008342  -0.018267  -0.037281  0.005808  3.990477  0.007
C  C65  1  0.25000034  0.91254528  0.92782574  1  0.008966  0.00833  -0.018218  -0.037227  0.005808  3.990441  0.007
C  C66  1  0.75000058  0.85240892  0.03368185  1  1.543005  -0.00158  0.193699  0.561582  -0.00257  4.191287  -0.004
C  C67  1  0.24999912  0.03369067  0.18127983  1  1.549089  -0.001578  0.193768  0.561779  -0.002569  4.191025  -0.004
C  C68  1  0.74999960  0.18127514  0.14758913  1  1.527813  -0.001612  0.193653  0.56161  -0.002569  4.190973  -0.004
C  C69  1  0.24999645  0.14759063  0.96631831  1  1.542896  -0.00158  0.193737  0.561696  -0.00257  4.191235  -0.004
C  C70  1  0.75000083  0.96631037  0.81872116  1  1.549093  -0.001578  0.193791  0.561733  -0.002569  4.190997  -0.004
C  C71  1  0.25000036  0.81872206  0.85241338  1  1.527004  -0.001612  0.193783  0.561786  -0.00257  4.190766  -0.004
C  C72  1  0.75000279  0.57785439  0.26456471  1  -0.097467  -0.000209  -0.074056  -0.09374  -0.000708  3.920562  0.0
C  C73  1  0.24999853  0.26456563  0.68671189  1  -0.110686  -0.00019  -0.074075  -0.093722  -0.000708  3.920589  0.0
C  C74  1  0.75000265  0.68671191  0.42214495  1  -0.053255  -0.000219  -0.074097  -0.093722  -0.000708  3.920442  0.0
C  C75  1  0.24999863  0.42214558  0.73543387  1  -0.09746  -0.000209  -0.074049  -0.093691  -0.000708  3.920565  0.0
C  C76  1  0.75000143  0.73543425  0.31328794  1  -0.110454  -0.00019  -0.074079  -0.093762  -0.000708  3.920584  0.0
C  C77  1  0.24999877  0.31328772  0.57785396  1  -0.05327  -0.000219  -0.074043  -0.093709  -0.000708  3.920525  0.0
C  C78  1  0.75000144  0.64622799  0.24369646  1  0.07107  0.009841  -0.022021  -0.042798  0.006864  3.967003  0.008
C  C79  1  0.24999865  0.24369773  0.59746969  1  0.016916  0.009873  -0.022025  -0.042816  0.006863  3.966991  0.008
C  C80  1  0.75000120  0.59746892  0.35377018  1  0.016111  0.009897  -0.022047  -0.04289  0.006864  3.966999  0.008
C  C81  1  0.24999851  0.35377106  0.75630188  1  0.071072  0.009841  -0.022042  -0.042853  0.006864  3.967032  0.008
C  C82  1  0.75000130  0.75630340  0.40253005  1  0.016742  0.009873  -0.021993  -0.04281  0.006863  3.96691  0.008
C  C83  1  0.24999876  0.40253071  0.64622873  1  0.016107  0.009896  -0.022051  -0.042851  0.006863  3.967023  0.008
C  C84  1  0.75000012  0.62514422  0.14770617  1  1.570168  -0.000811  0.209679  0.586108  -0.001361  4.193417  -0.003
C  C85  1  0.25000014  0.14770633  0.52256334  1  1.55328  -0.000816  0.209641  0.586039  -0.001361  4.193358  -0.003
C  C86  1  0.75000108  0.52256336  0.37485552  1  1.586656  -0.000902  0.209643  0.586086  -0.001361  4.193402  -0.003
C  C87  1  0.24999837  0.37485566  0.85229366  1  1.570188  -0.000811  0.209677  0.586073  -0.001361  4.193386  -0.003
C  C88  1  0.74999835  0.85229355  0.47743649  1  1.55357  -0.000819  0.209744  0.58634  -0.001361  4.193366  -0.003
C  C89  1  0.25000035  0.47743627  0.62514340  1  1.586663  -0.000902  0.209665  0.586106  -0.001361  4.193418  -0.003
C  C90  1  0.14810827  0.76141493  0.09903141  1  0.580895  0.002894  0.066067  0.067335  0.001995  3.860412  0.002
C  C91  1  0.64811174  0.09903321  0.33761797  1  0.403821  0.003376  0.066078  0.067252  0.001995  3.8604  0.002
C  C92  1  0.14810754  0.33761645  0.23858364  1  0.565827  0.002909  0.066117  0.067382  0.001995  3.860471  0.002
C  C93  1  0.64811094  0.23858469  0.90096755  1  0.415738  0.003351  0.066086  0.067303  0.001995  3.86046  0.002
C  C94  1  0.14810894  0.90096781  0.66238307  1  0.56812  0.002918  0.066088  0.067387  0.001995  3.860429  0.002
C  C95  1  0.64811167  0.66238226  0.76141508  1  0.401675  0.003366  0.066095  0.067381  0.001995  3.860311  0.002
C  C96  1  0.85189022  0.23858471  0.90096750  1  0.580846  0.002894  0.066038  0.067278  0.001995  3.860473  0.002
C  C97  1  0.35188822  0.90096691  0.66238277  1  0.40374  0.003376  0.066143  0.067406  0.001995  3.860268  0.002
C  C98  1  0.85189242  0.66238285  0.76141561  1  0.56582  0.002909  0.066083  0.067256  0.001995  3.860505  0.002
C  C99  1  0.35188902  0.76141519  0.09903228  1  0.415763  0.003351  0.066089  0.067284  0.001995  3.860317  0.002
C  C100  1  0.85188955  0.09903173  0.33761710  1  0.568224  0.002918  0.066062  0.067339  0.001995  3.86043  0.002
C  C101  1  0.35188975  0.33761762  0.23858475  1  0.401676  0.003366  0.06614  0.067393  0.001995  3.860319  0.002
C  C102  1  0.14801724  0.64313055  0.95472284  1  0.461958  0.00504  0.072008  0.087978  0.003601  3.857161  0.004
C  C103  1  0.64801456  0.95472200  0.31159210  1  0.630003  0.004512  0.072019  0.087991  0.003601  3.857156  0.004
C  C104  1  0.14801641  0.31159233  0.35686967  1  0.629908  0.004513  0.072005  0.087977  0.003601  3.857185  0.004
C  C105  1  0.64801578  0.35686957  0.04527795  1  0.462076  0.005041  0.071999  0.087965  0.003601  3.857142  0.004
C  C106  1  0.14801553  0.04527695  0.68840753  1  0.62996  0.004512  0.07202  0.088006  0.003601  3.857213  0.004
C  C107  1  0.64801661  0.68840754  0.64313021  1  0.467768  0.005042  0.071998  0.087981  0.003601  3.857136  0.004
C  C108  1  0.85198418  0.35686958  0.04527790  1  0.624345  0.00451  0.072002  0.087994  0.003601  3.857125  0.004
C  C109  1  0.35198247  0.04527754  0.68840806  1  0.467583  0.005042  0.071988  0.087937  0.003601  3.857201  0.004
C  C110  1  0.85198501  0.68840755  0.64313016  1  0.629919  0.004513  0.072025  0.088002  0.003601  3.857141  0.004
C  C111  1  0.35198418  0.64313031  0.95472188  1  0.624469  0.004511  0.071999  0.08796  0.003601  3.857184  0.004
C  C112  1  0.85198442  0.95472293  0.31159230  1  0.46758  0.005042  0.072018  0.087978  0.003601  3.857137  0.004
C  C113  1  0.35198334  0.31159234  0.35686962  1  0.467761  0.005043  0.072012  0.087994  0.003601  3.857158  0.004
C  C114  1  0.75000020  0.47114966  0.85424754  1  1.523044  3.1e-05  0.237951  0.594054  9.8e-05  4.095898  0.0
C  C115  1  0.25000267  0.85424749  0.38309662  1  1.522289  3.1e-05  0.237989  0.594083  9.8e-05  4.095871  0.0
C  C116  1  0.74999918  0.38309714  0.52885078  1  1.537316  3.2e-05  0.237942  0.594016  9.8e-05  4.095975  0.0
C  C117  1  0.25000269  0.52885047  0.14575320  1  1.523048  3.1e-05  0.237992  0.594126  9.8e-05  4.0958  0.0
C  C118  1  0.75000022  0.14575239  0.61690321  1  1.522261  3.1e-05  0.237967  0.594085  9.8e-05  4.095871  0.0
C  C119  1  0.24999931  0.61690240  0.47114938  1  1.53732  3.2e-05  0.237959  0.594068  9.8e-05  4.095875  0.0
C  C120  1  0.75000042  0.42386978  0.69189224  1  -0.009342  -5.3e-05  -0.057698  -0.062623  -7.3e-05  3.878828  0.0
C  C121  1  0.25000414  0.69189158  0.26802157  1  -0.038358  -5.3e-05  -0.057687  -0.062523  -7.3e-05  3.87882  0.0
C  C122  1  0.74999897  0.26802177  0.57613036  1  0.089962  -5.1e-05  -0.057687  -0.062559  -7.3e-05  3.87877  0.0
C  C123  1  0.25000100  0.57613010  0.30810759  1  -0.009456  -5.3e-05  -0.057697  -0.062583  -7.3e-05  3.878853  0.0
C  C124  1  0.75000021  0.30810772  0.73197768  1  -0.038364  -5.3e-05  -0.057687  -0.062574  -7.3e-05  3.878791  0.0
C  C125  1  0.25000099  0.73197777  0.42386981  1  0.089923  -5.1e-05  -0.057695  -0.062615  -7.3e-05  3.878946  0.0
C  C126  1  0.75000028  0.39893828  0.75777051  1  -0.005359  -9.5e-05  -0.015042  -0.05313  -0.000105  3.953494  0.0
C  C127  1  0.25000259  0.75777010  0.35883228  1  0.023932  -9.5e-05  -0.015043  -0.053133  -0.000106  3.953518  0.0
C  C128  1  0.74999903  0.35883271  0.60106304  1  -0.03891  -9.5e-05  -0.015012  -0.053069  -0.000106  3.953501  0.0
C  C129  1  0.25000261  0.60106185  0.24223023  1  -0.005384  -9.5e-05  -0.015075  -0.053235  -0.000106  3.953559  0.0
C  C130  1  0.74999883  0.24223002  0.64116846  1  0.02391  -9.5e-05  -0.015071  -0.0532  -0.000106  3.953559  0.0
C  C131  1  0.25000092  0.64116833  0.39893795  1  -0.038893  -9.5e-05  -0.015049  -0.053124  -0.000106  3.953498  0.0
N  N132  1  0.04673547  0.70107849  0.02707684  1  -1.209958  0.076099  -0.319591  -0.177598  0.050867  3.572783  0.066
N  N133  1  0.54673295  0.02707672  0.32599865  1  -1.193816  0.076037  -0.319654  -0.177606  0.050869  3.572746  0.066
N  N134  1  0.04673456  0.32599870  0.29892124  1  -1.19534  0.076049  -0.319639  -0.177632  0.050868  3.572837  0.066
N  N135  1  0.54673510  0.29892161  0.97292400  1  -1.208879  0.076098  -0.319609  -0.177584  0.050866  3.572695  0.066
N  N136  1  0.04673614  0.97292221  0.67400103  1  -1.193757  0.076036  -0.319644  -0.177694  0.050868  3.572807  0.066
N  N137  1  0.54673453  0.67400148  0.70107835  1  -1.195328  0.076048  -0.319627  -0.177671  0.050867  3.572618  0.066
N  N138  1  0.95326449  0.29892197  0.97292357  1  -1.209923  0.0761  -0.319576  -0.177578  0.050867  3.572716  0.066
N  N139  1  0.45326554  0.97292249  0.67400185  1  -1.193708  0.076036  -0.319661  -0.177699  0.050868  3.572708  0.066
N  N140  1  0.95326539  0.67400151  0.70107825  1  -1.195359  0.07605  -0.319643  -0.177613  0.050868  3.572783  0.066
N  N141  1  0.45326633  0.70107852  0.02707674  1  -1.20888  0.076099  -0.31964  -0.177605  0.050867  3.572724  0.066
N  N142  1  0.95326528  0.02707675  0.32599855  1  -1.193859  0.076034  -0.319617  -0.177647  0.050867  3.572746  0.066
N  N143  1  0.45326542  0.32599873  0.29892115  1  -1.195336  0.076047  -0.319677  -0.17771  0.050866  3.572711  0.066
O  O144  1  0.75000182  0.77169716  0.96491175  1  -1.078208  0.138896  -0.322184  -0.528491  0.08805  2.259626  0.124
O  O145  1  0.25000019  0.96491695  0.19321831  1  -1.067259  0.13886  -0.322177  -0.528534  0.08806  2.259305  0.124
O  O146  1  0.75000094  0.19321448  0.22829896  1  -1.092624  0.138453  -0.322121  -0.528434  0.088048  2.259488  0.124
O  O147  1  0.24999960  0.22830272  0.03508808  1  -1.078192  0.138902  -0.322159  -0.528504  0.088053  2.259639  0.124
O  O148  1  0.74999977  0.03508351  0.80678210  1  -1.06727  0.138861  -0.322184  -0.528494  0.08806  2.259364  0.124
O  O149  1  0.25000048  0.80678299  0.77169980  1  -1.092744  0.138472  -0.322148  -0.528453  0.088062  2.259212  0.124
O  O150  1  0.75000046  0.86718297  0.11294676  1  -1.176705  0.003088  -0.329379  -0.566693  0.001118  2.175513  0.003
O  O151  1  0.24999910  0.11294791  0.24576340  1  -1.192433  0.003077  -0.329438  -0.566782  0.001115  2.175747  0.003
O  O152  1  0.74999970  0.24576438  0.13281450  1  -1.17744  0.003086  -0.329396  -0.566734  0.001118  2.175364  0.003
O  O153  1  0.24999070  0.13281749  0.88705364  1  -1.17669  0.003088  -0.329419  -0.566759  0.001118  2.175429  0.003
O  O154  1  0.74999939  0.88705197  0.75423643  1  -1.192402  0.003078  -0.329444  -0.566771  0.001116  2.175609  0.003
O  O155  1  0.25000026  0.75423733  0.86718582  1  -1.176718  0.003082  -0.329456  -0.566815  0.001115  2.175634  0.003
O  O156  1  0.75000021  0.69470601  0.13892159  1  -1.115235  0.096303  -0.327332  -0.549473  0.061642  2.433901  0.088
O  O157  1  0.25000026  0.13892186  0.44421602  1  -1.108324  0.096285  -0.327335  -0.549496  0.061639  2.433913  0.088
O  O158  1  0.75000110  0.44421586  0.30529287  1  -1.1354  0.096363  -0.327345  -0.549506  0.061646  2.433878  0.088
O  O159  1  0.24999974  0.30529420  0.86107791  1  -1.115231  0.096298  -0.327331  -0.549477  0.061639  2.433944  0.088
O  O160  1  0.74999970  0.86107777  0.55578289  1  -1.108455  0.096284  -0.327427  -0.549694  0.061637  2.434063  0.088
O  O161  1  0.25000032  0.55578436  0.69470662  1  -1.135388  0.096352  -0.327323  -0.549503  0.061639  2.433875  0.088
O  O162  1  0.75000160  0.54478470  0.08519536  1  -1.193264  0.000623  -0.311325  -0.559943  -0.000514  2.23412  0.001
O  O163  1  0.25000003  0.08519597  0.54041167  1  -1.179332  0.000627  -0.311339  -0.559916  -0.000515  2.234129  0.001
O  O164  1  0.74999949  0.54041195  0.45521408  1  -1.177152  0.000629  -0.311297  -0.559879  -0.000514  2.23418  0.001
O  O165  1  0.24999982  0.45521576  0.91480504  1  -1.193279  0.000623  -0.311349  -0.559941  -0.000514  2.234108  0.001
O  O166  1  0.74999846  0.91480449  0.45958873  1  -1.179353  0.000627  -0.311327  -0.560002  -0.000514  2.234178  0.001
O  O167  1  0.25000046  0.45958769  0.54478483  1  -1.177201  0.000628  -0.311338  -0.559927  -0.000515  2.234199  0.001
O  O168  1  0.75000025  0.55158749  0.87620262  1  -1.15899  -0.000941  -0.289702  -0.544204  -0.001383  2.24384  0.0
O  O169  1  0.24999986  0.87620234  0.32461585  1  -1.170267  -0.000937  -0.289724  -0.544235  -0.001383  2.243911  0.0
O  O170  1  0.75000072  0.32461515  0.44841393  1  -1.18206  -0.000939  -0.289692  -0.544185  -0.001383  2.243906  0.0
O  O171  1  0.24999970  0.44841239  0.12379721  1  -1.158989  -0.000941  -0.28971  -0.544225  -0.001383  2.243812  0.0
O  O172  1  0.75000010  0.12379812  0.67538456  1  -1.170241  -0.000937  -0.289702  -0.544195  -0.001383  2.243852  0.0
O  O173  1  0.25000070  0.67538531  0.55158648  1  -1.182069  -0.000939  -0.289707  -0.544225  -0.001383  2.243887  0.0
O  O174  1  0.75000006  0.44191815  0.91201865  1  -1.158365  0.000141  -0.318336  -0.463649  5.6e-05  2.331897  0.0
O  O175  1  0.25000112  0.91201855  0.47010025  1  -1.191702  0.000136  -0.31835  -0.463656  5.6e-05  2.331896  0.0
O  O176  1  0.74999923  0.47010037  0.55808262  1  -1.175174  0.000137  -0.31833  -0.463642  5.6e-05  2.331856  0.0
O  O177  1  0.25000136  0.55808231  0.08798175  1  -1.158357  0.000141  -0.31836  -0.463674  5.6e-05  2.3319  0.0
O  O178  1  0.74999884  0.08798133  0.52989958  1  -1.191718  0.000136  -0.318356  -0.463687  5.6e-05  2.331895  0.0
O  O179  1  0.25000072  0.52990009  0.44191779  1  -1.175182  0.000137  -0.318326  -0.463628  5.6e-05  2.331791  0.0
