# generated using pymatgen
data_SmH54C57(N2O5)3
_symmetry_space_group_name_H-M   'P 1'
_cell_length_a   10.93458604
_cell_length_b   19.78187767
_cell_length_c   19.78190898
_cell_angle_alpha   119.99977155
_cell_angle_beta   89.99981721
_cell_angle_gamma   89.99995540
_symmetry_Int_Tables_number   1
_chemical_formula_structural   SmH54C57(N2O5)3
_chemical_formula_sum   'Sm2 H108 C114 N12 O30'
_cell_volume   3705.69514661
_cell_formula_units_Z   2
loop_
 _symmetry_equiv_pos_site_id
 _symmetry_equiv_pos_as_xyz
  1  'x, y, z'
loop_
 _atom_site_type_symbol
 _atom_site_label
 _atom_site_symmetry_multiplicity
 _atom_site_fract_x
 _atom_site_fract_y
 _atom_site_fract_z
 _atom_site_occupancy
 _atom_site_pbe_bader_charge
 _atom_site_pbe_bader_spin_density
 _atom_site_pbe_cm5_charge
 _atom_site_pbe_ddec_charge
 _atom_site_pbe_ddec_spin_density
 _atom_site_pbe_ddec_sum_bond_order
 _atom_site_pbe_magmom
Sm  Sm0  1  0.14397129  0.33333321  0.66666688  1  2.204184  0  1.531205  1.987399  0  2.267808  0
Sm  Sm1  1  0.85602915  0.66666650  0.33333308  1  2.204103  0  1.531232  1.98741  0  2.267833  0
H  H2  1  0.79827425  0.43505368  0.89177990  1  0.53563  0  0.317837  0.270464  0  0.999007  0
H  H3  1  0.79827518  0.45672745  0.56494585  1  0.506661  0  0.317848  0.270455  0  0.998949  0
H  H4  1  0.79827549  0.10821874  0.54327133  1  0.502258  0  0.317833  0.270427  0  0.999086  0
H  H5  1  0.20172526  0.56494732  0.10822078  1  0.535632  0  0.317836  0.270453  0  0.999046  0
H  H6  1  0.20172434  0.54327306  0.43505432  1  0.506659  0  0.317837  0.270405  0  0.999011  0
H  H7  1  0.20172494  0.89177974  0.45672681  1  0.502285  0  0.317803  0.270398  0  0.999008  0
H  H8  1  0.16669855  0.49081258  0.84355872  1  0.088038  0  0.106484  0.090072  0  1.074407  0
H  H9  1  0.16669778  0.35274711  0.50918904  1  0.092815  0  0.1065  0.090101  0  1.074339  0
H  H10  1  0.16669752  0.15644118  0.64725350  1  0.094393  0  0.106481  0.090071  0  1.074332  0
H  H11  1  0.83329914  0.50918843  0.15644196  1  0.088042  0  0.106502  0.090099  0  1.074327  0
H  H12  1  0.83330174  0.64725339  0.49081113  1  0.09285  0  0.106491  0.09009  0  1.074339  0
H  H13  1  0.83330200  0.84355679  0.35274414  1  0.094393  0  0.106495  0.0901  0  1.074316  0
H  H14  1  0.91843463  0.66918804  0.07499997  1  0.068227  0  0.108055  0.126583  0  1.013482  0
H  H15  1  0.91844139  0.40581487  0.33081291  1  0.092071  0  0.108072  0.12663  0  1.013361  0
H  H16  1  0.91843661  0.92499772  0.59418683  1  0.094596  0  0.108038  0.126576  0  1.013421  0
H  H17  1  0.08156580  0.33081289  0.92500179  1  0.068237  0  0.108086  0.126641  0  1.0134  0
H  H18  1  0.08155812  0.59418585  0.66918805  1  0.092055  0  0.108082  0.126658  0  1.013384  0
H  H19  1  0.08156291  0.07500249  0.40581363  1  0.09458  0  0.108069  0.126629  0  1.013428  0
H  H20  1  0.25620590  0.61633118  0.94582423  1  0.073244  0  0.101616  0.107471  0  1.000604  0
H  H21  1  0.25620681  0.32949012  0.38366904  1  0.074331  0  0.101586  0.107437  0  1.000632  0
H  H22  1  0.25620617  0.05417649  0.67050946  1  0.075985  0  0.101563  0.107397  0  1.000554  0
H  H23  1  0.74379362  0.38366802  0.05417522  1  0.073327  0  0.101597  0.107456  0  1.000596  0
H  H24  1  0.74379180  0.67050908  0.61633041  1  0.074357  0  0.101598  0.107449  0  1.000671  0
H  H25  1  0.74379335  0.94582373  0.32949100  1  0.075984  0  0.101567  0.107416  0  1.000544  0
H  H26  1  0.12799320  0.70669016  0.06020318  1  0.100655  0  0.093981  0.086746  0  1.066569  0
H  H27  1  0.12800009  0.35351330  0.29331013  1  0.097567  0  0.09399  0.086726  0  1.066549  0
H  H28  1  0.12799409  0.93979663  0.64648809  1  0.098492  0  0.093992  0.08674  0  1.066622  0
H  H29  1  0.87200815  0.29331135  0.93979800  1  0.100679  0  0.093979  0.086752  0  1.066616  0
H  H30  1  0.87199942  0.64648640  0.70668983  1  0.097554  0  0.094015  0.086761  0  1.066612  0
H  H31  1  0.87200543  0.06020379  0.35351317  1  0.098503  0  0.094002  0.086759  0  1.066544  0
H  H32  1  0.62514229  0.53474903  0.11698947  1  0.080735  0  0.100341  0.11392  0  1.029518  0
H  H33  1  0.62514308  0.58224083  0.46525269  1  0.078025  0  0.100326  0.113914  0  1.029548  0
H  H34  1  0.62514392  0.88301256  0.41775973  1  0.082241  0  0.100329  0.113885  0  1.029593  0
H  H35  1  0.37485631  0.46525501  0.88301424  1  0.080761  0  0.100325  0.113898  0  1.029523  0
H  H36  1  0.37485735  0.41775939  0.53474777  1  0.078021  0  0.100341  0.113933  0  1.029506  0
H  H37  1  0.37485651  0.11698765  0.58224074  1  0.082232  0  0.100332  0.113899  0  1.029572  0
H  H38  1  0.71491452  0.64092356  0.02265615  1  0.06051  0  0.105252  0.076182  0  0.979963  0
H  H39  1  0.71491465  0.38173245  0.35907829  1  0.074457  0  0.10526  0.076236  0  0.979992  0
H  H40  1  0.71491440  0.97734616  0.61826709  1  0.057712  0  0.105207  0.07614  0  0.980073  0
H  H41  1  0.28508774  0.35907846  0.97734554  1  0.060519  0  0.105245  0.076159  0  0.98005  0
H  H42  1  0.28508578  0.61826754  0.64092138  1  0.074439  0  0.105246  0.07619  0  0.980068  0
H  H43  1  0.28508695  0.02265383  0.38173257  1  0.057702  0  0.105233  0.076168  0  0.980108  0
H  H44  1  0.75854472  0.60746012  0.08816065  1  0.104478  0  0.104814  0.083305  0  1.031263  0
H  H45  1  0.75854394  0.48070037  0.39253911  1  0.105728  0  0.104806  0.08332  0  1.031252  0
H  H46  1  0.75854327  0.91183926  0.51929987  1  0.119217  0  0.104813  0.083348  0  1.031243  0
H  H47  1  0.24145754  0.39254342  0.91184255  1  0.104517  0  0.1048  0.083301  0  1.031302  0
H  H48  1  0.24145650  0.51929984  0.60746135  1  0.105728  0  0.104816  0.083344  0  1.03123  0
H  H49  1  0.24145625  0.08816095  0.48070059  1  0.119265  0  0.104818  0.083334  0  1.031246  0
H  H50  1  0.49855104  0.53652100  0.84578826  1  0.071071  0  0.088023  0.131956  0  1.031478  0
H  H51  1  0.49855047  0.30926724  0.46347986  1  0.079252  0  0.08801  0.13194  0  1.031456  0
H  H52  1  0.49855175  0.15421285  0.69073175  1  0.088482  0  0.088031  0.131972  0  1.031458  0
H  H53  1  0.50144940  0.46347964  0.15421380  1  0.071021  0  0.088026  0.131994  0  1.031499  0
H  H54  1  0.50144905  0.69073275  0.53651981  1  0.079235  0  0.088041  0.132018  0  1.031479  0
H  H55  1  0.50144868  0.84578715  0.30926792  1  0.088481  0  0.088024  0.131946  0  1.031453  0
H  H56  1  0.65634298  0.52833037  0.86170271  1  0.06821  0  0.084203  0.119655  0  1.036538  0
H  H57  1  0.65634241  0.33337160  0.47167026  1  0.060701  0  0.084191  0.119642  0  1.036528  0
H  H58  1  0.65634198  0.13829733  0.66662664  1  0.054058  0  0.084198  0.119643  0  1.036507  0
H  H59  1  0.34365837  0.47166897  0.13829863  1  0.068201  0  0.084224  0.11971  0  1.036483  0
H  H60  1  0.34365711  0.66662840  0.52832940  1  0.0607  0  0.084223  0.119694  0  1.036491  0
H  H61  1  0.34365845  0.86170267  0.33337303  1  0.054075  0  0.084212  0.119677  0  1.036491  0
H  H62  1  0.57974542  0.61682954  0.92054203  1  -0.006163  0  0.086005  0.118616  0  1.010851  0
H  H63  1  0.57974537  0.30371279  0.38317118  1  0.048985  0  0.086024  0.118639  0  1.010805  0
H  H64  1  0.57974553  0.07945775  0.69628613  1  -0.004733  0  0.086017  0.118629  0  1.010798  0
H  H65  1  0.42025592  0.38317155  0.07945756  1  -0.006117  0  0.086013  0.11864  0  1.01084  0
H  H66  1  0.42025507  0.69628691  0.61682878  1  0.049004  0  0.086018  0.118644  0  1.010809  0
H  H67  1  0.42025490  0.92054225  0.30371354  1  -0.005048  0  0.086006  0.118606  0  1.01083  0
H  H68  1  0.84698722  0.30952949  0.72738032  1  0.107113  0  0.118707  0.098859  0  1.029777  0
H  H69  1  0.84698360  0.41785068  0.69046987  1  0.100769  0  0.118723  0.098876  0  1.029809  0
H  H70  1  0.84698584  0.27262021  0.58214909  1  0.104316  0  0.118697  0.098843  0  1.029836  0
H  H71  1  0.15301321  0.69047151  0.27262036  1  0.107113  0  0.118711  0.098882  0  1.029742  0
H  H72  1  0.15301592  0.58214931  0.30952979  1  0.100771  0  0.118706  0.098849  0  1.029792  0
H  H73  1  0.15301276  0.72737891  0.41785145  1  0.104271  0  0.118722  0.098846  0  1.029741  0
H  H74  1  0.69849863  0.35131782  0.75850826  1  0.055885  0  0.111289  0.090568  0  0.955386  0
H  H75  1  0.69849708  0.40719203  0.64868112  1  0.049749  0  0.111309  0.09063  0  0.95529  0
H  H76  1  0.69849827  0.24149058  0.59280781  1  0.075959  0  0.111293  0.090598  0  0.955341  0
H  H77  1  0.30150089  0.64868196  0.24149061  1  0.055894  0  0.111294  0.090586  0  0.955365  0
H  H78  1  0.30150335  0.59280797  0.35131854  1  0.049755  0  0.111307  0.090609  0  0.955312  0
H  H79  1  0.30150033  0.75850623  0.40719100  1  0.07614  0  0.111314  0.090601  0  0.955352  0
H  H80  1  0.92199690  0.21218988  0.75813264  1  0.089792  0  0.102792  0.1084  0  1.022187  0
H  H81  1  0.92199475  0.54594105  0.78780698  1  0.085804  0  0.102783  0.108402  0  1.022146  0
H  H82  1  0.92199684  0.24186630  0.45405525  1  0.078696  0  0.102779  0.108403  0  1.022192  0
H  H83  1  0.07800353  0.78781070  0.24186644  1  0.089798  0  0.102778  0.108381  0  1.022195  0
H  H84  1  0.07800659  0.45405974  0.21219290  1  0.085799  0  0.102775  0.108397  0  1.022144  0
H  H85  1  0.07800176  0.75813311  0.54594500  1  0.078667  0  0.102776  0.108379  0  1.022202  0
H  H86  1  0.58245464  0.33176332  0.85725618  1  0.08992  0  0.100722  0.101259  0  1.017636  0
H  H87  1  0.58245231  0.52549450  0.66823799  1  0.075614  0  0.100735  0.101296  0  1.01766  0
H  H88  1  0.58245497  0.14274486  0.47450658  1  0.084467  0  0.100721  0.101284  0  1.017635  0
H  H89  1  0.41754396  0.66823718  0.14274399  1  0.089921  0  0.100729  0.101289  0  1.017675  0
H  H90  1  0.41754629  0.47450463  0.33176255  1  0.075597  0  0.100739  0.101322  0  1.017652  0
H  H91  1  0.41754181  0.85725413  0.52549207  1  0.084537  0  0.100725  0.101289  0  1.017649  0
H  H92  1  0.68576910  0.13354567  0.87935422  1  0.043326  0  0.099926  0.093642  0  0.997212  0
H  H93  1  0.68576779  0.74580676  0.86645632  1  0.041672  0  0.099934  0.093618  0  0.997231  0
H  H94  1  0.68576908  0.12064742  0.25419134  1  0.072265  0  0.099918  0.093632  0  0.997203  0
H  H95  1  0.31423133  0.86645483  0.12064595  1  0.043315  0  0.099956  0.093686  0  0.997198  0
H  H96  1  0.31422990  0.25419236  0.13354422  1  0.041665  0  0.099934  0.093618  0  0.997201  0
H  H97  1  0.31423043  0.87935287  0.74580803  1  0.072291  0  0.099932  0.093641  0  0.997221  0
H  H98  1  0.53927781  0.24088088  0.90594450  1  0.075472  0  0.103798  0.10097  0  0.987208  0
H  H99  1  0.53927610  0.66506427  0.75912278  1  0.07582  0  0.103823  0.101026  0  0.987238  0
H  H100  1  0.53927773  0.09405740  0.33493691  1  0.07103  0  0.103827  0.101043  0  0.987225  0
H  H101  1  0.46072263  0.75911962  0.09405567  1  0.075467  0  0.103819  0.101023  0  0.987196  0
H  H102  1  0.46072342  0.33493427  0.24087834  1  0.075816  0  0.103839  0.101038  0  0.987239  0
H  H103  1  0.46072179  0.90594188  0.66506145  1  0.071081  0  0.103823  0.101022  0  0.987194  0
H  H104  1  0.87642035  0.11843808  0.80340582  1  0.06138  0  0.101117  0.09872  0  0.994529  0
H  H105  1  0.87642064  0.68496389  0.88155900  1  0.062519  0  0.101115  0.098753  0  0.994557  0
H  H106  1  0.87642079  0.19659443  0.31503219  1  0.063004  0  0.101116  0.098734  0  0.994567  0
H  H107  1  0.12358008  0.88156171  0.19659305  1  0.061373  0  0.101134  0.098731  0  0.99451  0
H  H108  1  0.12357888  0.31503581  0.11844096  1  0.0627  0  0.1011  0.098724  0  0.994553  0
H  H109  1  0.12357873  0.80340607  0.68496798  1  0.063006  0  0.101106  0.098703  0  0.99454  0
C  C110  1  0.99277263  0.50885486  0.89923222  1  0.013233  0  -0.028192  -0.163219  0  3.977966  0
C  C111  1  0.99277663  0.39037808  0.49114591  1  0.005791  0  -0.028193  -0.163201  0  3.978062  0
C  C112  1  0.99277558  0.10076728  0.60962137  1  -0.031588  0  -0.028224  -0.163317  0  3.977855  0
C  C113  1  0.00722506  0.49114564  0.10076795  1  0.013287  0  -0.028228  -0.16319  0  3.977946  0
C  C114  1  0.00722380  0.60962083  0.50885383  1  0.005794  0  -0.028203  -0.163146  0  3.977875  0
C  C115  1  0.00722485  0.89923107  0.39037489  1  -0.031494  0  -0.0282  -0.163177  0  3.978087  0
C  C116  1  0.92296089  0.55941482  0.96624011  1  0.415351  0  0.093134  0.246382  0  4.031853  0
C  C117  1  0.92296160  0.40682677  0.44058458  1  0.436247  0  0.093146  0.246431  0  4.031699  0
C  C118  1  0.92295959  0.03375650  0.59317336  1  0.465917  0  0.093202  0.246503  0  4.031848  0
C  C119  1  0.07703955  0.44058641  0.03376136  1  0.415288  0  0.093183  0.24638  0  4.031871  0
C  C120  1  0.07703792  0.59317293  0.55941538  1  0.436371  0  0.093142  0.246415  0  4.031681  0
C  C121  1  0.07704084  0.96624140  0.40682537  1  0.465895  0  0.093128  0.246405  0  4.031745  0
C  C122  1  0.11275760  0.53089179  0.89398428  1  -0.040205  0  -0.081659  -0.063819  0  3.98331  0
C  C123  1  0.11275529  0.36309316  0.46910903  1  -0.052215  0  -0.081666  -0.063861  0  3.983405  0
C  C124  1  0.11275773  0.10601447  0.63690774  1  -0.053174  0  -0.081628  -0.06379  0  3.983377  0
C  C125  1  0.88724283  0.46910821  0.10601538  1  -0.040291  0  -0.081661  -0.063874  0  3.983342  0
C  C126  1  0.88724331  0.63690676  0.53089173  1  -0.0526  0  -0.081657  -0.063867  0  3.983346  0
C  C127  1  0.88724545  0.89398481  0.36309063  1  -0.053164  0  -0.081625  -0.06386  0  3.983617  0
C  C128  1  0.97206921  0.63064679  0.02349849  1  -0.013676  0  -0.111088  -0.226778  0  3.993514  0
C  C129  1  0.97207387  0.39285268  0.36935376  1  -0.0281  0  -0.111106  -0.226804  0  3.993374  0
C  C130  1  0.97207003  0.97650203  0.60714827  1  -0.001469  0  -0.111128  -0.226842  0  3.993589  0
C  C131  1  0.02793305  0.36935393  0.97650248  1  -0.013712  0  -0.1111  -0.226766  0  3.993399  0
C  C132  1  0.02792657  0.60714724  0.63064700  1  -0.028051  0  -0.111154  -0.226861  0  3.993367  0
C  C133  1  0.02793132  0.02349856  0.39285081  1  -0.001439  0  -0.111113  -0.226834  0  3.99346  0
C  C134  1  0.16243371  0.60100081  0.95111836  1  0.025933  0  -0.105056  -0.117799  0  4.028853  0
C  C135  1  0.16243639  0.35011595  0.39899941  1  0.005558  0  -0.105058  -0.117771  0  4.028814  0
C  C136  1  0.16243222  0.04888274  0.64988387  1  0.00671  0  -0.105016  -0.11774  0  4.028898  0
C  C137  1  0.83756581  0.39899991  0.04888260  1  0.02584  0  -0.105081  -0.117801  0  4.028822  0
C  C138  1  0.83756312  0.64988455  0.60100076  1  0.005873  0  -0.105031  -0.117745  0  4.028881  0
C  C139  1  0.83756821  0.95111705  0.35011500  1  0.006714  0  -0.10505  -0.117777  0  4.02894  0
C  C140  1  0.09086256  0.65119361  0.01529823  1  -0.064059  0  -0.086221  -0.039434  0  4.02172  0
C  C141  1  0.09086546  0.36410440  0.34880652  1  -0.05663  0  -0.086234  -0.039456  0  4.021818  0
C  C142  1  0.09086328  0.98470110  0.63589687  1  -0.07979  0  -0.0862  -0.039399  0  4.021712  0
C  C143  1  0.90913695  0.34880581  0.98470202  1  -0.064037  0  -0.086226  -0.039495  0  4.02171  0
C  C144  1  0.90913223  0.63589581  0.65119394  1  -0.056622  0  -0.08624  -0.039493  0  4.021848  0
C  C145  1  0.90913715  0.01529810  0.36410258  1  -0.079838  0  -0.086228  -0.03943  0  4.021739  0
C  C146  1  0.94567644  0.43609933  0.83147398  1  1.356827  0  0.257735  0.525294  0  4.083474  0
C  C147  1  0.94567358  0.39537609  0.56390055  1  1.357113  0  0.257731  0.525245  0  4.083547  0
C  C148  1  0.94567363  0.16852399  0.60462306  1  1.362285  0  0.257718  0.525369  0  4.083407  0
C  C149  1  0.05432216  0.56390139  0.16852699  1  1.356954  0  0.257802  0.525347  0  4.083366  0
C  C150  1  0.05432593  0.60462333  0.43609970  1  1.357085  0  0.257718  0.525159  0  4.083576  0
C  C151  1  0.05432681  0.83147427  0.39537429  1  1.362347  0  0.25775  0.525263  0  4.083524  0
C  C152  1  0.60546191  0.54515819  0.01429544  1  -0.064602  0  -0.022539  0.016546  0  3.979934  0
C  C153  1  0.60546252  0.46913805  0.45484383  1  -0.053446  0  -0.022572  0.016533  0  3.97984  0
C  C154  1  0.60546103  0.98570629  0.53086161  1  -0.040953  0  -0.022528  0.016578  0  3.980011  0
C  C155  1  0.39453852  0.45484643  0.98570769  1  -0.064354  0  -0.022533  0.016584  0  3.979892  0
C  C156  1  0.39453791  0.53086165  0.54515613  1  -0.053437  0  -0.022539  0.016535  0  3.97992  0
C  C157  1  0.39453758  0.01429421  0.46913856  1  -0.040903  0  -0.02252  0.016542  0  3.979936  0
C  C158  1  0.56958297  0.51928262  0.06540507  1  -0.064932  0  -0.095368  -0.194301  0  3.96719  0
C  C159  1  0.56958358  0.54612186  0.48071854  1  -0.088943  0  -0.095356  -0.194279  0  3.96723  0
C  C160  1  0.56958430  0.93459699  0.45387857  1  -0.050753  0  -0.095343  -0.194178  0  3.967289  0
C  C161  1  0.43041564  0.48072113  0.93459893  1  -0.065094  0  -0.095424  -0.194346  0  3.967439  0
C  C162  1  0.43041685  0.45387734  0.51928091  1  -0.088955  0  -0.095357  -0.194278  0  3.967228  0
C  C163  1  0.43041522  0.06540372  0.54612240  1  -0.051132  0  -0.095334  -0.194167  0  3.967237  0
C  C164  1  0.72307763  0.58923422  0.02965719  1  0.357352  0  -0.061558  -0.011256  0  3.875123  0
C  C165  1  0.72307846  0.44042336  0.41076571  1  0.341536  0  -0.061589  -0.011382  0  3.875156  0
C  C166  1  0.72307857  0.97034284  0.55957629  1  0.339  0  -0.061564  -0.011371  0  3.875257  0
C  C167  1  0.27692280  0.41076802  0.97034529  1  0.357223  0  -0.061557  -0.011317  0  3.875211  0
C  C168  1  0.27692288  0.55957743  0.58923417  1  0.341573  0  -0.061599  -0.011358  0  3.875251  0
C  C169  1  0.27692277  0.02965716  0.44042338  1  0.338957  0  -0.061576  -0.011292  0  3.875305  0
C  C170  1  0.53523892  0.52607641  0.94731153  1  0.031859  0  -0.014182  0.120444  0  3.969437  0
C  C171  1  0.53523945  0.42123525  0.47392547  1  0.045912  0  -0.014184  0.120448  0  3.96932  0
C  C172  1  0.53524032  0.05268925  0.57876381  1  -0.000644  0  -0.01425  0.120293  0  3.969501  0
C  C173  1  0.46476059  0.47392684  0.05269197  1  0.031853  0  -0.014182  0.120506  0  3.969307  0
C  C174  1  0.46476007  0.57876525  0.52607470  1  0.045964  0  -0.01418  0.1205  0  3.969319  0
C  C175  1  0.46476011  0.94730995  0.42123564  1  -0.001014  0  -0.014207  0.120381  0  3.969362  0
C  C176  1  0.56873919  0.55302352  0.89089925  1  -0.064105  0  -0.247931  -0.412648  0  3.972507  0
C  C177  1  0.56873880  0.33787560  0.44697740  1  -0.117878  0  -0.247935  -0.412643  0  3.972444  0
C  C178  1  0.56873834  0.10910120  0.66212353  1  -0.069183  0  -0.247934  -0.412612  0  3.972432  0
C  C179  1  0.43126215  0.44697770  0.10910223  1  -0.064081  0  -0.247979  -0.412803  0  3.972597  0
C  C180  1  0.43126164  0.66212440  0.55302227  1  -0.117869  0  -0.248002  -0.412811  0  3.972571  0
C  C181  1  0.43126210  0.89089930  0.33787664  1  -0.068878  0  -0.247944  -0.412625  0  3.97246  0
C  C182  1  0.75510243  0.27778555  0.80416331  1  0.016732  0  -0.011749  0.080761  0  3.966081  0
C  C183  1  0.75510066  0.52637897  0.72221313  1  0.025048  0  -0.011832  0.080575  0  3.966305  0
C  C184  1  0.75510344  0.19583554  0.47361973  1  0.039576  0  -0.011822  0.080732  0  3.966152  0
C  C185  1  0.24489617  0.72221474  0.19583607  1  0.016737  0  -0.011781  0.080775  0  3.966119  0
C  C186  1  0.24489885  0.47362153  0.27778704  1  0.025106  0  -0.011775  0.080769  0  3.966078  0
C  C187  1  0.24489425  0.80416315  0.52637922  1  0.039549  0  -0.011766  0.080773  0  3.966071  0
C  C188  1  0.78351324  0.33497120  0.77680692  1  0.277595  0  -0.050139  -0.051905  0  3.90653  0
C  C189  1  0.78351074  0.44183522  0.66502766  1  0.295982  0  -0.050139  -0.051898  0  3.906404  0
C  C190  1  0.78351303  0.22319312  0.55816394  1  0.265118  0  -0.050112  -0.051869  0  3.906405  0
C  C191  1  0.21648719  0.66502880  0.22319274  1  0.277591  0  -0.050155  -0.051966  0  3.906493  0
C  C192  1  0.21648878  0.55816419  0.33497259  1  0.295995  0  -0.050129  -0.051913  0  3.906478  0
C  C193  1  0.21648557  0.77680478  0.44183479  1  0.265016  0  -0.050158  -0.051858  0  3.906321  0
C  C194  1  0.83734797  0.21765257  0.78956431  1  -0.091589  0  -0.090235  -0.133371  0  3.960273  0
C  C195  1  0.83734866  0.57190811  0.78234268  1  -0.091446  0  -0.090154  -0.133275  0  3.960115  0
C  C196  1  0.83734993  0.21043503  0.42808996  1  -0.075624  0  -0.090184  -0.133347  0  3.960263  0
C  C197  1  0.16265155  0.78234612  0.21043464  1  -0.091586  0  -0.090195  -0.133294  0  3.960261  0
C  C198  1  0.16265178  0.42809117  0.21765569  1  -0.091462  0  -0.090187  -0.133361  0  3.96017  0
C  C199  1  0.16264867  0.78956439  0.57191029  1  -0.075639  0  -0.090234  -0.133378  0  3.960278  0
C  C200  1  0.64780240  0.28559147  0.84615344  1  -0.111905  0  -0.085703  -0.124167  0  3.953125  0
C  C201  1  0.64779985  0.56055982  0.71440611  1  -0.114761  0  -0.085714  -0.124136  0  3.953108  0
C  C202  1  0.64780367  0.15384752  0.43943959  1  -0.129269  0  -0.085683  -0.124205  0  3.953057  0
C  C203  1  0.35219803  0.71440723  0.15384551  1  -0.111889  0  -0.08569  -0.124218  0  3.953137  0
C  C204  1  0.35220150  0.43943829  0.28559342  1  -0.114739  0  -0.085695  -0.124228  0  3.953118  0
C  C205  1  0.35219493  0.84615226  0.56055928  1  -0.129327  0  -0.085684  -0.124218  0  3.953028  0
C  C206  1  0.70529251  0.17395291  0.85829901  1  -0.038404  0  -0.093001  -0.099471  0  4.038258  0
C  C207  1  0.70529041  0.68434437  0.82604805  1  -0.050648  0  -0.092961  -0.099298  0  4.038215  0
C  C208  1  0.70529226  0.14170121  0.31565403  1  -0.063092  0  -0.092982  -0.099401  0  4.038291  0
C  C209  1  0.29470884  0.82604679  0.14170095  1  -0.038457  0  -0.093013  -0.099478  0  4.038312  0
C  C210  1  0.29470911  0.31565554  0.17395271  1  -0.050483  0  -0.092953  -0.099269  0  4.038169  0
C  C211  1  0.29470725  0.85829828  0.68434513  1  -0.06304  0  -0.092993  -0.099444  0  4.038339  0
C  C212  1  0.62339631  0.23421922  0.87356136  1  -0.017233  0  -0.08564  -0.067519  0  4.007052  0
C  C213  1  0.62339268  0.63934482  0.76578322  1  -0.004038  0  -0.085702  -0.067682  0  4.00698  0
C  C214  1  0.62339604  0.12643832  0.36065522  1  -0.013755  0  -0.085695  -0.067638  0  4.007083  0
C  C215  1  0.37660320  0.76578186  0.12643823  1  -0.017229  0  -0.085697  -0.067618  0  4.007136  0
C  C216  1  0.37660501  0.36065540  0.23421724  1  -0.004208  0  -0.085732  -0.067708  0  4.007174  0
C  C217  1  0.37660256  0.87356067  0.63934344  1  -0.013774  0  -0.085672  -0.067578  0  4.006981  0
C  C218  1  0.81213253  0.16546358  0.81588522  1  -0.065848  0  -0.092925  -0.084582  0  4.031917  0
C  C219  1  0.81213213  0.65042105  0.83453578  1  -0.056947  0  -0.092935  -0.084672  0  4.031814  0
C  C220  1  0.81213386  0.18411311  0.34957510  1  -0.078105  0  -0.092911  -0.084605  0  4.031756  0
C  C221  1  0.18786791  0.83453700  0.18411386  1  -0.065828  0  -0.092943  -0.084622  0  4.03176  0
C  C222  1  0.18786830  0.34958025  0.16546460  1  -0.057163  0  -0.092934  -0.084649  0  4.031821  0
C  C223  1  0.18786474  0.81588668  0.65042377  1  -0.078129  0  -0.092884  -0.084533  0  4.031727  0
N  N224  1  0.84077992  0.40534839  0.83880477  1  -1.260621  0  -0.405777  -0.326995  0  3.539836  0
N  N225  1  0.84078244  0.43345597  0.59465130  1  -1.238269  0  -0.405787  -0.326995  0  3.539964  0
N  N226  1  0.84078362  0.16119525  0.56654303  1  -1.228679  0  -0.405775  -0.327047  0  3.540024  0
N  N227  1  0.15921959  0.59465241  0.16119511  1  -1.260617  0  -0.405796  -0.32702  0  3.539812  0
N  N228  1  0.15921799  0.56654345  0.40534895  1  -1.238282  0  -0.40578  -0.326902  0  3.539944  0
N  N229  1  0.15921864  0.83880243  0.43345490  1  -1.22877  0  -0.405754  -0.326955  0  3.53996  0
N  N230  1  0.28260458  0.27364832  0.75451628  1  0.826033  0  0.084479  0.72755  0  4.413615  0
N  N231  1  0.28260360  0.48086692  0.72635107  1  0.832048  0  0.084522  0.727657  0  4.41353  0
N  N232  1  0.28260162  0.24548526  0.51913047  1  0.807327  0  0.08445  0.727443  0  4.413655  0
N  N233  1  0.71739494  0.72635167  0.24548339  1  0.826016  0  0.084502  0.727632  0  4.41356  0
N  N234  1  0.71739683  0.51913329  0.27364939  1  0.832068  0  0.084559  0.72769  0  4.41349  0
N  N235  1  0.71740156  0.75451401  0.48086789  1  0.807293  0  0.084476  0.727507  0  4.413525  0
O  O236  1  0.18561680  0.31585213  0.78210558  1  -0.584293  0  -0.245115  -0.524742  0  2.01739  0
O  O237  1  0.18561698  0.46625298  0.68414785  1  -0.581411  0  -0.245126  -0.52475  0  2.017399  0
O  O238  1  0.18561484  0.21789528  0.53374616  1  -0.582573  0  -0.245117  -0.524697  0  2.017362  0
O  O239  1  0.81438363  0.68414757  0.21789438  1  -0.584307  0  -0.245116  -0.524768  0  2.017391  0
O  O240  1  0.81438437  0.53374701  0.31585182  1  -0.581447  0  -0.245134  -0.52474  0  2.017413  0
O  O241  1  0.81438650  0.78210443  0.46625380  1  -0.582569  0  -0.245106  -0.52469  0  2.017354  0
O  O242  1  0.00281517  0.40543514  0.76711230  1  -1.20158  0  -0.402815  -0.64354  0  2.392812  0
O  O243  1  0.00281478  0.36167597  0.59456553  1  -1.199801  0  -0.402837  -0.643515  0  2.392731  0
O  O244  1  0.00281566  0.23288788  0.63832234  1  -1.211715  0  -0.402796  -0.643533  0  2.392648  0
O  O245  1  0.99718435  0.59456507  0.23288816  1  -1.201624  0  -0.402852  -0.643566  0  2.392845  0
O  O246  1  0.99718382  0.63832374  0.40543443  1  -1.199721  0  -0.40286  -0.643519  0  2.39273  0
O  O247  1  0.99718477  0.76711010  0.36167530  1  -1.211769  0  -0.402862  -0.643564  0  2.392746  0
O  O248  1  0.80862826  0.53520303  0.97117393  1  -1.084984  0  -0.171237  -0.209831  0  2.627855  0
O  O249  1  0.80863070  0.43597224  0.46479708  1  -1.084103  0  -0.171204  -0.209863  0  2.627874  0
O  O250  1  0.80863070  0.02882509  0.56402654  1  -1.084604  0  -0.171216  -0.209782  0  2.627942  0
O  O251  1  0.19137126  0.46479782  0.02882892  1  -1.084891  0  -0.171252  -0.209789  0  2.627884  0
O  O252  1  0.19136882  0.56402797  0.53520339  1  -1.084283  0  -0.171202  -0.209859  0  2.627864  0
O  O253  1  0.19136973  0.97117470  0.43597233  1  -1.084642  0  -0.171244  -0.209908  0  2.627896  0
O  O254  1  0.31110153  0.25469595  0.68391436  1  -0.589711  0  -0.245048  -0.531575  0  2.001562  0
O  O255  1  0.31110215  0.42921755  0.74530281  1  -0.59155  0  -0.245107  -0.531671  0  2.001565  0
O  O256  1  0.31109907  0.31608686  0.57078163  1  -0.574108  0  -0.245131  -0.531637  0  2.001499  0
O  O257  1  0.68889890  0.74530405  0.31608531  1  -0.589691  0  -0.245112  -0.531667  0  2.001544  0
O  O258  1  0.68889829  0.57078245  0.25469686  1  -0.591549  0  -0.24511  -0.531677  0  2.001575  0
O  O259  1  0.68890228  0.68391364  0.42921854  1  -0.574081  0  -0.24515  -0.531669  0  2.001562  0
O  O260  1  0.34361731  0.25247338  0.79303507  1  -0.465317  0  -0.147477  -0.369843  0  1.900061  0
O  O261  1  0.34361724  0.54056096  0.74752559  1  -0.472113  0  -0.147464  -0.369858  0  1.900001  0
O  O262  1  0.34361099  0.20696877  0.45943618  1  -0.464056  0  -0.147375  -0.369727  0  1.900196  0
O  O263  1  0.65638312  0.74752603  0.20696518  1  -0.465298  0  -0.147432  -0.369826  0  1.900105  0
O  O264  1  0.65638228  0.45943896  0.25247517  1  -0.472113  0  -0.147492  -0.369891  0  1.899945  0
O  O265  1  0.65638944  0.79303224  0.54056449  1  -0.464036  0  -0.147405  -0.369773  0  1.900052  0
