# generated using pymatgen
data_ZnH12C22N3O10
_symmetry_space_group_name_H-M   'P 1'
_cell_length_a   16.34595400
_cell_length_b   18.04927004
_cell_length_c   17.56178246
_cell_angle_alpha   90.17019700
_cell_angle_beta   95.42593096
_cell_angle_gamma   92.57370686
_symmetry_Int_Tables_number   1
_chemical_formula_structural   ZnH12C22N3O10
_chemical_formula_sum   'Zn2 H24 C44 N6 O20'
_cell_volume   5152.74253976
_cell_formula_units_Z   2
loop_
 _symmetry_equiv_pos_site_id
 _symmetry_equiv_pos_as_xyz
  1  'x, y, z'
loop_
 _atom_site_type_symbol
 _atom_site_label
 _atom_site_symmetry_multiplicity
 _atom_site_fract_x
 _atom_site_fract_y
 _atom_site_fract_z
 _atom_site_occupancy
 _atom_site_pbe_bader_charge
 _atom_site_pbe_bader_spin_density
 _atom_site_pbe_cm5_charge
 _atom_site_pbe_ddec_charge
 _atom_site_pbe_ddec_spin_density
 _atom_site_pbe_ddec_sum_bond_order
 _atom_site_pbe_magmom
Zn  Zn0  1  0.58909487  0.50016927  0.50171211  1  1.29264  0  0.678325  0.835262  0  2.40038  0
Zn  Zn1  1  0.41051560  0.49957114  0.49838926  1  1.293853  0  0.678059  0.833726  0  2.409703  0
H  H2  1  0.28545741  0.58380261  0.55764464  1  0.123357  0  0.125794  0.10123  0  0.974589  0
H  H3  1  0.13400644  0.58545514  0.55520745  1  0.065589  0  0.112278  0.12251  0  0.99902  0
H  H4  1  0.12127466  0.38026383  0.42386464  1  0.096965  0  0.122621  0.149206  0  0.968981  0
H  H5  1  0.87812848  0.62060357  0.57653442  1  0.107872  0  0.122193  0.147991  0  0.968918  0
H  H6  1  0.86599002  0.41615083  0.44405550  1  0.063641  0  0.111982  0.122265  0  1.000575  0
H  H7  1  0.71453093  0.41710388  0.44217613  1  0.102812  0  0.125306  0.100127  0  0.977494  0
H  H8  1  0.99533998  0.43079896  0.44870777  1  0.059526  0  0.10961  0.106046  0  0.993777  0
H  H9  1  0.00435249  0.57072476  0.55083977  1  0.070086  0  0.110129  0.10673  0  0.994272  0
H  H10  1  0.38635637  0.49137200  0.73533497  1  0.088327  0  0.103537  0.107723  0  0.996904  0
H  H11  1  0.39043761  0.49539622  0.87639369  1  0.046732  0  0.098901  0.102026  0  1.01433  0
H  H12  1  0.65672500  0.49968569  0.89040510  1  0.09388  0  0.108325  0.126866  0  0.986964  0
H  H13  1  0.34378557  0.49919505  0.10945990  1  0.099763  0  0.108292  0.127108  0  0.986034  0
H  H14  1  0.61016453  0.50614949  0.12389084  1  0.046468  0  0.098935  0.102133  0  1.01464  0
H  H15  1  0.61394651  0.51025489  0.26496620  1  0.087398  0  0.103554  0.107628  0  0.998191  0
H  H16  1  0.59498102  0.50391477  0.00447331  1  0.0588  0  0.101578  0.098062  0  1.006318  0
H  H17  1  0.40573735  0.49650801  0.99561790  1  0.06112  0  0.101636  0.098133  0  1.006523  0
H  H18  1  0.62967174  0.26389419  0.48190618  1  0.144233  0  0.126738  0.141837  0  0.983006  0
H  H19  1  0.36811299  0.25483975  0.50073935  1  0.123905  0  0.126536  0.140737  0  0.988353  0
H  H20  1  0.63356635  0.74568837  0.52658573  1  0.143915  0  0.125921  0.139651  0  0.994188  0
H  H21  1  0.36838923  0.73494341  0.48988663  1  0.165969  0  0.12698  0.14301  0  0.981349  0
H  H22  1  0.33820113  0.37456557  0.44575168  1  0.667632  0  0.311388  0.365756  0  0.971568  0
H  H23  1  0.66089383  0.62467183  0.55662737  1  0.656617  0  0.31031  0.364449  0  0.977084  0
H  H24  1  0.65140330  0.49199321  0.68937989  1  0.620685  0  0.301968  0.354788  0  0.968053  0
H  H25  1  0.34855741  0.50367275  0.31049858  1  0.621958  0  0.301943  0.352959  0  0.972458  0
C  C26  1  0.51163729  0.49188132  0.64867900  1  1.512722  0  0.212274  0.606468  0  4.156236  0
C  C27  1  0.49769037  0.64735645  0.51099681  1  1.528989  0  0.228854  0.606732  0  4.147319  0
C  C28  1  0.48837847  0.50804955  0.35139731  1  1.502549  0  0.213063  0.607121  0  4.154407  0
C  C29  1  0.50141745  0.35228657  0.48883680  1  1.535566  0  0.228521  0.607067  0  4.146722  0
C  C30  1  0.24596901  0.53981502  0.52910038  1  0.393059  0  0.046834  0.115213  0  3.980747  0
C  C31  1  0.16166163  0.54031255  0.52722398  1  0.047842  0  -0.095223  -0.212872  0  3.974066  0
C  C32  1  0.11340571  0.48233428  0.48824965  1  0.063169  0  0.011322  0.171119  0  4.05991  0
C  C33  1  0.15448462  0.42683039  0.45415514  1  0.068423  0  -0.085261  -0.283503  0  3.860069  0
C  C34  1  0.24084802  0.42912297  0.45997853  1  1.049046  0  0.223281  0.487669  0  4.064348  0
C  C35  1  0.02387640  0.47735355  0.48295438  1  -0.099523  0  -0.072576  -0.109805  0  3.947952  0
C  C36  1  0.97582658  0.52418793  0.51654855  1  -0.024223  0  -0.072945  -0.11088  0  3.949438  0
C  C37  1  0.84506017  0.57406864  0.54606313  1  0.112531  0  -0.084884  -0.282691  0  3.85832  0
C  C38  1  0.88630579  0.51898558  0.51147040  1  0.030992  0  0.010637  0.171472  0  4.060496  0
C  C39  1  0.83819847  0.46101348  0.47234770  1  0.025154  0  -0.094741  -0.212826  0  3.976247  0
C  C40  1  0.75390191  0.46111258  0.47081058  1  0.407686  0  0.046408  0.114485  0  3.982009  0
C  C41  1  0.75869888  0.57125239  0.54078580  1  1.045033  0  0.224185  0.489984  0  4.060215  0
C  C42  1  0.51732345  0.49279551  0.73269955  1  -0.017767  0  -0.046117  -0.203941  0  3.996764  0
C  C43  1  0.44498231  0.49302992  0.77057005  1  -0.095757  0  -0.086923  -0.061748  0  4.03659  0
C  C44  1  0.44765979  0.49529617  0.84928835  1  0.01062  0  -0.106766  -0.172326  0  4.001819  0
C  C45  1  0.52446159  0.49787075  0.89435745  1  0.007842  0  -0.004051  0.144929  0  4.064391  0
C  C46  1  0.59670815  0.49765854  0.85733642  1  -0.082993  0  -0.102222  -0.259944  0  3.910753  0
C  C47  1  0.59450146  0.49478395  0.77742705  1  0.518908  0  0.092819  0.327738  0  4.064873  0
C  C48  1  0.53180009  0.50074701  0.97757454  1  0.045446  0  -0.084898  -0.122277  0  3.976495  0
C  C49  1  0.46891509  0.49975561  0.02252969  1  -0.036953  0  -0.085333  -0.122181  0  3.9766  0
C  C50  1  0.40375321  0.50169999  0.14263263  1  -0.085107  0  -0.101865  -0.259409  0  3.908825  0
C  C51  1  0.47613624  0.50246551  0.10574881  1  0.008158  0  -0.004585  0.144052  0  4.064512  0
C  C52  1  0.55287229  0.50561539  0.15093217  1  0.013079  0  -0.106054  -0.171369  0  4.002611  0
C  C53  1  0.55537511  0.50785030  0.22964336  1  -0.088298  0  -0.087566  -0.062523  0  4.039567  0
C  C54  1  0.48290175  0.50698113  0.26738012  1  -0.040455  0  -0.045886  -0.203113  0  3.997033  0
C  C55  1  0.40575405  0.50388103  0.22254532  1  0.527131  0  0.09328  0.327277  0  4.064845  0
C  C56  1  0.49914693  0.26912204  0.49016779  1  0.082565  0  -0.00193  -0.003456  0  3.942579  0
C  C57  1  0.57205678  0.23228351  0.48614618  1  0.095933  0  -0.055986  -0.114313  0  3.922507  0
C  C58  1  0.57081863  0.15555470  0.48718937  1  0.182553  0  0.096973  0.04724  0  3.866126  0
C  C59  1  0.49873330  0.11120935  0.49662223  1  0.091472  0  0.03231  0.066818  0  4.043588  0
C  C60  1  0.42687258  0.15112595  0.50272224  1  0.225801  0  0.096369  0.04753  0  3.858199  0
C  C61  1  0.42592583  0.22778089  0.49753491  1  0.058064  0  -0.05589  -0.115027  0  3.909988  0
C  C62  1  0.49917006  0.03351890  0.49975648  1  -0.141943  0  -0.012159  -0.032445  0  4.05719  0
C  C63  1  0.50143161  0.96617550  0.50172304  1  0.089351  0  -0.013716  -0.03461  0  4.058094  0
C  C64  1  0.50151530  0.88844786  0.50387823  1  0.09582  0  0.032705  0.067582  0  4.043277  0
C  C65  1  0.57449852  0.84909508  0.51757229  1  0.236523  0  0.096825  0.047485  0  3.859771  0
C  C66  1  0.57487014  0.77225141  0.51845562  1  0.011934  0  -0.055796  -0.114766  0  3.90938  0
C  C67  1  0.50040880  0.73050583  0.50944288  1  0.099856  0  -0.001788  -0.003033  0  3.943104  0
C  C68  1  0.42664267  0.76692349  0.49711984  1  0.03926  0  -0.055647  -0.115082  0  3.919921  0
C  C69  1  0.42794879  0.84350091  0.49251754  1  0.195078  0  0.096088  0.047035  0  3.864802  0
N  N70  1  0.28585539  0.48571978  0.49584149  1  -1.278915  0  -0.347518  -0.353133  0  3.488473  0
N  N71  1  0.71382766  0.51470709  0.50465109  1  -1.271354  0  -0.346979  -0.352085  0  3.484077  0
N  N72  1  0.34861085  0.11121897  0.51634002  1  0.413331  0  0.06263  0.518417  0  4.208869  0
N  N73  1  0.64927079  0.12037394  0.47774875  1  0.415998  0  0.062959  0.520714  0  4.210366  0
N  N74  1  0.34809242  0.87776302  0.47380439  1  0.422668  0  0.062945  0.520665  0  4.206405  0
N  N75  1  0.65498375  0.89000101  0.53177683  1  0.404656  0  0.063306  0.519639  0  4.206648  0
O  O76  1  0.57968486  0.48955612  0.61639569  1  -1.164426  0  -0.316566  -0.564336  0  2.374141  0
O  O77  1  0.44108163  0.49376219  0.61142005  1  -1.163124  0  -0.318262  -0.541526  0  2.356032  0
O  O78  1  0.42735726  0.61458754  0.50328568  1  -1.154688  0  -0.299744  -0.520601  0  2.310161  0
O  O79  1  0.56618696  0.61529460  0.51886802  1  -1.184576  0  -0.306359  -0.565901  0  2.384384  0
O  O80  1  0.41995246  0.50525045  0.38340327  1  -1.163867  0  -0.316568  -0.563933  0  2.38057  0
O  O81  1  0.55899126  0.51134582  0.38899326  1  -1.155332  0  -0.319023  -0.542485  0  2.350826  0
O  O82  1  0.57143052  0.38540161  0.49066086  1  -1.152901  0  -0.300053  -0.522012  0  2.305724  0
O  O83  1  0.43267853  0.38373534  0.48732925  1  -1.186289  0  -0.306469  -0.566312  0  2.381365  0
O  O84  1  0.27772230  0.37355062  0.42896207  1  -1.170998  0  -0.337901  -0.457533  0  2.253236  0
O  O85  1  0.72164689  0.62622052  0.57263388  1  -1.167701  0  -0.339755  -0.461382  0  2.257443  0
O  O86  1  0.66669364  0.49441714  0.74598925  1  -1.12768  0  -0.36193  -0.450427  0  2.237652  0
O  O87  1  0.33342062  0.50278878  0.25383345  1  -1.12866  0  -0.362651  -0.450005  0  2.240254  0
O  O88  1  0.35277383  0.05647083  0.55844303  1  -0.420764  0  -0.118275  -0.311846  0  1.901618  0
O  O89  1  0.28480685  0.13678144  0.48547137  1  -0.43288  0  -0.127598  -0.318712  0  1.849683  0
O  O90  1  0.64623729  0.06456109  0.43649035  1  -0.423722  0  -0.117807  -0.311097  0  1.899328  0
O  O91  1  0.71215478  0.15086225  0.51095016  1  -0.443586  0  -0.129827  -0.322087  0  1.845303  0
O  O92  1  0.34669877  0.93032106  0.42884791  1  -0.425179  0  -0.116454  -0.309021  0  1.895628  0
O  O93  1  0.28843931  0.84975712  0.50357194  1  -0.435562  0  -0.131434  -0.324268  0  1.844616  0
O  O94  1  0.65752165  0.94721093  0.57094975  1  -0.429662  0  -0.117919  -0.310749  0  1.900548  0
O  O95  1  0.71383510  0.86279866  0.50407991  1  -0.423663  0  -0.127526  -0.318824  0  1.846154  0
