# generated using pymatgen
data_ZnH10C12(NO3)2
_symmetry_space_group_name_H-M   'P 1'
_cell_length_a   6.85686859
_cell_length_b   6.85688290
_cell_length_c   13.19205937
_cell_angle_alpha   81.35947986
_cell_angle_beta   81.35995447
_cell_angle_gamma   70.58251470
_symmetry_Int_Tables_number   1
_chemical_formula_structural   ZnH10C12(NO3)2
_chemical_formula_sum   'Zn2 H20 C24 N4 O12'
_cell_volume   574.97513209
_cell_formula_units_Z   2
loop_
 _symmetry_equiv_pos_site_id
 _symmetry_equiv_pos_as_xyz
  1  'x, y, z'
loop_
 _atom_site_type_symbol
 _atom_site_label
 _atom_site_symmetry_multiplicity
 _atom_site_fract_x
 _atom_site_fract_y
 _atom_site_fract_z
 _atom_site_occupancy
 _atom_site_hle17_bader_spin_density
 _atom_site_hle17_ddec_charge
 _atom_site_hle17_ddec_spin_density
 _atom_site_hle17_ddec_sum_bond_order
 _atom_site_hle17_magmom
 _atom_site_hse06_10hf_bader_spin_density
 _atom_site_hse06_10hf_ddec_charge
 _atom_site_hse06_10hf_ddec_spin_density
 _atom_site_hse06_10hf_ddec_sum_bond_order
 _atom_site_hse06_10hf_magmom
 _atom_site_hse06_bader_spin_density
 _atom_site_hse06_ddec_charge
 _atom_site_hse06_ddec_spin_density
 _atom_site_hse06_ddec_sum_bond_order
 _atom_site_hse06_magmom
 _atom_site_pbe_bader_spin_density
 _atom_site_pbe_cm5_charge
 _atom_site_pbe_ddec_charge
 _atom_site_pbe_ddec_spin_density
 _atom_site_pbe_ddec_sum_bond_order
 _atom_site_pbe_magmom
Zn  Zn0  1  0.70613158  0.29386459  0.25000032  1  0  1.065057  0  1.802715  0  0  0.900553  0  2.239231  0  0  0.944865  0  2.18754  0  0  0.690506  0.869563  0  2.274718  0
Zn  Zn1  1  0.29386924  0.70613373  0.75000033  1  0  1.065049  0  1.802726  0  0  0.90053  0  2.239243  0  0  0.944843  0  2.187552  0  0  0.690482  0.869535  0  2.274727  0
H  H2  1  0.17319540  0.58251559  0.52485380  1  0  0.116539  0  0.945489  0  0  0.126226  0  1.005627  0  0  0.129463  0  1.003578  0  0  0.112939  0.123805  0  1.007266  0
H  H3  1  0.41747895  0.82680853  0.97514594  1  0  0.1165  0  0.945393  0  0  0.126139  0  1.005602  0  0  0.129375  0  1.00356  0  0  0.11291  0.12372  0  1.007241  0
H  H4  1  0.82680446  0.41748115  0.47514629  1  0  0.116523  0  0.945432  0  0  0.126217  0  1.005569  0  0  0.129454  0  1.00352  0  0  0.112929  0.123797  0  1.007208  0
H  H5  1  0.58251937  0.17319287  0.02485315  1  0  0.116528  0  0.945442  0  0  0.126166  0  1.005631  0  0  0.129401  0  1.003589  0  0  0.112919  0.123745  0  1.007271  0
H  H6  1  0.80304190  0.77158804  0.58249879  1  0  0.122256  0  0.932501  0  0  0.131198  0  0.991199  0  0  0.135425  0  0.988742  0  0  0.113288  0.128085  0  0.993247  0
H  H7  1  0.22840547  0.19696338  0.91750416  1  0  0.122256  0  0.932513  0  0  0.131193  0  0.991212  0  0  0.135426  0  0.988746  0  0  0.11329  0.128079  0  0.993262  0
H  H8  1  0.19695892  0.22841028  0.41750110  1  0  0.122257  0  0.932508  0  0  0.131199  0  0.991205  0  0  0.13543  0  0.988744  0  0  0.113288  0.128086  0  0.993254  0
H  H9  1  0.77159086  0.80303956  0.08249723  1  0  0.122254  0  0.932518  0  0  0.131193  0  0.991215  0  0  0.135409  0  0.988772  0  0  0.113284  0.12808  0  0.993267  0
H  H10  1  0.61159070  0.07894100  0.46252247  1  0  0.085738  0  0.938527  0  0  0.093614  0  1.004771  0  0  0.096351  0  1.001963  0  0  0.120098  0.091624  0  1.006811  0
H  H11  1  0.92105685  0.38841194  0.03748159  1  0  0.085739  0  0.938566  0  0  0.093604  0  1.004806  0  0  0.096342  0  1.001998  0  0  0.120088  0.091618  0  1.006846  0
H  H12  1  0.38840961  0.92105888  0.53747961  1  0  0.085719  0  0.938581  0  0  0.093593  0  1.004821  0  0  0.096331  0  1.002014  0  0  0.120096  0.091603  0  1.006862  0
H  H13  1  0.07894052  0.61158790  0.96252073  1  0  0.085723  0  0.938565  0  0  0.093587  0  1.00481  0  0  0.096324  0  1.002003  0  0  0.120092  0.091599  0  1.006851  0
H  H14  1  0.74915681  0.62077830  0.29943669  1  0  0.415293  0  0.895175  0  0  0.381661  0  0.963384  0  0  0.393468  0  0.946366  0  0  0.285512  0.373329  0  0.975368  0
H  H15  1  0.37922050  0.25084005  0.20056003  1  0  0.415283  0  0.895191  0  0  0.381667  0  0.96337  0  0  0.393473  0  0.946354  0  0  0.285527  0.373337  0  0.975354  0
H  H16  1  0.25084400  0.37922001  0.70056168  1  0  0.415257  0  0.895226  0  0  0.381644  0  0.963401  0  0  0.393449  0  0.946385  0  0  0.285514  0.373314  0  0.975385  0
H  H17  1  0.62078126  0.74915985  0.79943814  1  0  0.415274  0  0.895206  0  0  0.381654  0  0.963392  0  0  0.393461  0  0.946374  0  0  0.285515  0.373325  0  0.975375  0
H  H18  1  0.98387207  0.51556966  0.24249801  1  0  0.426537  0  0.873383  0  0  0.392354  0  0.942365  0  0  0.403321  0  0.926522  0  0  0.287737  0.384603  0  0.95354  0
H  H19  1  0.48442796  0.01612476  0.25749955  1  0  0.426501  0  0.873429  0  0  0.392311  0  0.942423  0  0  0.403278  0  0.926581  0  0  0.287705  0.384562  0  0.953595  0
H  H20  1  0.01612970  0.48443024  0.75749940  1  0  0.426551  0  0.873371  0  0  0.392366  0  0.942356  0  0  0.403334  0  0.926513  0  0  0.287743  0.384619  0  0.953525  0
H  H21  1  0.51557432  0.98387358  0.74249871  1  0  0.426477  0  0.873468  0  0  0.39229  0  0.942459  0  0  0.403256  0  0.926617  0  0  0.287706  0.384541  0  0.95363  0
C  C22  1  0.39693629  0.64993603  0.35042152  1  0  0.665632  0  3.904738  0  0  0.609597  0  4.203765  0  0  0.644278  0  4.19566  0  0  0.213039  0.585971  0  4.208601  0
C  C23  1  0.35006101  0.60306027  0.14957604  1  0  0.665867  0  3.904535  0  0  0.609714  0  4.203781  0  0  0.644398  0  4.195672  0  0  0.21313  0.586092  0  4.208612  0
C  C24  1  0.60306401  0.35006385  0.64957753  1  0  0.6657  0  3.904654  0  0  0.609681  0  4.203661  0  0  0.644362  0  4.195555  0  0  0.213088  0.586055  0  4.208498  0
C  C25  1  0.64993783  0.39693958  0.85042388  1  0  0.665893  0  3.904571  0  0  0.609752  0  4.203785  0  0  0.644435  0  4.195676  0  0  0.213151  0.586121  0  4.208632  0
C  C26  1  0.16612121  0.75050141  0.37289792  1  0  -0.119254  0  3.680291  0  0  -0.102264  0  3.922121  0  0  -0.111696  0  3.942066  0  0  -0.002004  -0.096514  0  3.909225  0
C  C27  1  0.24949167  0.83387981  0.12710114  1  0  -0.119288  0  3.680163  0  0  -0.102267  0  3.922003  0  0  -0.111694  0  3.941937  0  0  -0.001978  -0.096518  0  3.909106  0
C  C28  1  0.83388107  0.24949694  0.62710261  1  0  -0.119287  0  3.680227  0  0  -0.102301  0  3.922074  0  0  -0.111731  0  3.942015  0  0  -0.002022  -0.09655  0  3.909177  0
C  C29  1  0.75050708  0.16612473  0.87289766  1  0  -0.119222  0  3.680221  0  0  -0.102243  0  3.922083  0  0  -0.111661  0  3.942001  0  0  -0.001973  -0.096491  0  3.909188  0
C  C30  1  0.03891873  0.90376161  0.30588016  1  0  0.169886  0  3.687672  0  0  0.155371  0  3.934396  0  0  0.163408  0  3.952552  0  0  0.127554  0.14999  0  3.922297  0
C  C31  1  0.09623274  0.96107646  0.19412092  1  0  0.169806  0  3.687697  0  0  0.155426  0  3.934291  0  0  0.163462  0  3.952445  0  0  0.127534  0.150046  0  3.922191  0
C  C32  1  0.96108304  0.09623830  0.69412104  1  0  0.169854  0  3.687675  0  0  0.15533  0  3.934411  0  0  0.163366  0  3.952569  0  0  0.127543  0.14995  0  3.922308  0
C  C33  1  0.90376609  0.03892339  0.80587977  1  0  0.169778  0  3.68767  0  0  0.155374  0  3.934317  0  0  0.163407  0  3.952472  0  0  0.127485  0.149995  0  3.922214  0
C  C34  1  0.07803646  0.70172396  0.47237267  1  0  -0.010039  0  3.675603  0  0  -0.038878  0  3.926673  0  0  -0.035002  0  3.943794  0  0  -0.058857  -0.041213  0  3.915316  0
C  C35  1  0.29826885  0.92197092  0.02762886  1  0  -0.010009  0  3.67568  0  0  -0.038863  0  3.926813  0  0  -0.034989  0  3.943933  0  0  -0.058854  -0.041198  0  3.915455  0
C  C36  1  0.92196678  0.29827597  0.52762842  1  0  -0.009992  0  3.675493  0  0  -0.038846  0  3.926568  0  0  -0.034971  0  3.94369  0  0  -0.058846  -0.041182  0  3.915213  0
C  C37  1  0.70172843  0.07803360  0.97237082  1  0  -0.01007  0  3.675656  0  0  -0.03887  0  3.926723  0  0  -0.034996  0  3.943835  0  0  -0.058852  -0.041205  0  3.915367  0
C  C38  1  0.87395204  0.81025267  0.50591623  1  0  -0.096363  0  3.692665  0  0  -0.113077  0  3.955794  0  0  -0.118978  0  3.974569  0  0  -0.074776  -0.109412  0  3.943462  0
C  C39  1  0.18974407  0.12605108  0.99408595  1  0  -0.096288  0  3.692704  0  0  -0.112966  0  3.955779  0  0  -0.118875  0  3.974563  0  0  -0.074752  -0.109301  0  3.943448  0
C  C40  1  0.12604827  0.18974720  0.49408434  1  0  -0.096338  0  3.692621  0  0  -0.113048  0  3.955744  0  0  -0.118951  0  3.974515  0  0  -0.074753  -0.109384  0  3.943414  0
C  C41  1  0.81025520  0.87395190  0.00591445  1  0  -0.096325  0  3.692719  0  0  -0.113021  0  3.955784  0  0  -0.118913  0  3.974562  0  0  -0.074762  -0.109357  0  3.943454  0
C  C42  1  0.76570010  0.97463815  0.43934024  1  0  0.144503  0  3.697102  0  0  0.107363  0  3.960437  0  0  0.115813  0  3.975738  0  0  0.054102  0.101752  0  3.950175  0
C  C43  1  0.02535559  0.23430231  0.06066327  1  0  0.144339  0  3.697135  0  0  0.10723  0  3.96044  0  0  0.11568  0  3.975742  0  0  0.054056  0.101617  0  3.950181  0
C  C44  1  0.23430564  0.02535869  0.56066013  1  0  0.144496  0  3.697021  0  0  0.107349  0  3.96033  0  0  0.1158  0  3.975632  0  0  0.054087  0.101738  0  3.95007  0
C  C45  1  0.97464229  0.76569597  0.93933988  1  0  0.144473  0  3.697047  0  0  0.107357  0  3.960346  0  0  0.115809  0  3.975641  0  0  0.054094  0.101744  0  3.950087  0
N  N46  1  0.84594604  0.01712432  0.34309036  1  0  -0.350255  0  3.282313  0  0  -0.277126  0  3.547594  0  0  -0.295  0  3.562698  0  0  -0.322549  -0.265  0  3.537294  0
N  N47  1  0.98287216  0.15405140  0.15691258  1  0  -0.350127  0  3.282363  0  0  -0.277047  0  3.547604  0  0  -0.294922  0  3.562708  0  0  -0.322487  -0.26492  0  3.537304  0
N  N48  1  0.15405426  0.98287556  0.65691096  1  0  -0.350255  0  3.282251  0  0  -0.277099  0  3.547525  0  0  -0.294974  0  3.562628  0  0  -0.322534  -0.26497  0  3.537221  0
N  N49  1  0.01712668  0.84594846  0.84308961  1  0  -0.350181  0  3.282248  0  0  -0.277111  0  3.547559  0  0  -0.294985  0  3.562661  0  0  -0.322496  -0.264982  0  3.537258  0
O  O50  1  0.46684848  0.45209276  0.36253329  1  0  -0.630697  0  1.99239  0  0  -0.568684  0  2.245488  0  0  -0.59591  0  2.234022  0  0  -0.318192  -0.549403  0  2.252699  0
O  O51  1  0.54789886  0.53314817  0.13746528  1  0  -0.630754  0  1.992472  0  0  -0.568706  0  2.245639  0  0  -0.595931  0  2.234167  0  0  -0.318247  -0.549428  0  2.252854  0
O  O52  1  0.53315035  0.54790709  0.63746588  1  0  -0.630707  0  1.992362  0  0  -0.568694  0  2.245461  0  0  -0.59592  0  2.233993  0  0  -0.3182  -0.549412  0  2.252671  0
O  O53  1  0.45209903  0.46685010  0.86253560  1  0  -0.630791  0  1.992423  0  0  -0.568716  0  2.245542  0  0  -0.595942  0  2.234074  0  0  -0.318262  -0.549433  0  2.252759  0
O  O54  1  0.50506450  0.77212191  0.32472397  1  0  -0.630925  0  2.011634  0  0  -0.56574  0  2.229499  0  0  -0.593086  0  2.221764  0  0  -0.301108  -0.546558  0  2.234397  0
O  O55  1  0.22787176  0.49492911  0.17527254  1  0  -0.631023  0  2.011457  0  0  -0.565847  0  2.229454  0  0  -0.593195  0  2.221713  0  0  -0.301157  -0.546665  0  2.234352  0
O  O56  1  0.49493536  0.22787483  0.67527460  1  0  -0.630944  0  2.01157  0  0  -0.565801  0  2.229467  0  0  -0.593146  0  2.22173  0  0  -0.301136  -0.546619  0  2.234366  0
O  O57  1  0.77212810  0.50506763  0.82472755  1  0  -0.631012  0  2.011465  0  0  -0.565836  0  2.229443  0  0  -0.593188  0  2.221705  0  0  -0.301139  -0.54665  0  2.234345  0
O  O58  1  0.86669895  0.48876413  0.28989546  1  0  -0.841392  0  1.925171  0  0  -0.781909  0  2.136177  0  0  -0.804305  0  2.102322  0  0  -0.58203  -0.76586  0  2.159582  0
O  O59  1  0.51123423  0.13329794  0.21010336  1  0  -0.841331  0  1.925235  0  0  -0.781845  0  2.13622  0  0  -0.804244  0  2.102378  0  0  -0.582016  -0.7658  0  2.159624  0
O  O60  1  0.13330281  0.51123577  0.71010347  1  0  -0.841364  0  1.925208  0  0  -0.781883  0  2.136208  0  0  -0.804278  0  2.102349  0  0  -0.582037  -0.765841  0  2.15962  0
O  O61  1  0.48876607  0.86670193  0.78989569  1  0  -0.841309  0  1.925275  0  0  -0.781815  0  2.136256  0  0  -0.804215  0  2.102414  0  0  -0.582011  -0.765776  0  2.159669  0
