# generated using pymatgen
data_NaZnH11C9O10
_symmetry_space_group_name_H-M   'P 1'
_cell_length_a   6.94636725
_cell_length_b   11.00889607
_cell_length_c   18.38040000
_cell_angle_alpha   78.77682333
_cell_angle_beta   85.68755754
_cell_angle_gamma   73.67207819
_symmetry_Int_Tables_number   1
_chemical_formula_structural   NaZnH11C9O10
_chemical_formula_sum   'Na4 Zn4 H44 C36 O40'
_cell_volume   1322.78483706
_cell_formula_units_Z   4
loop_
 _symmetry_equiv_pos_site_id
 _symmetry_equiv_pos_as_xyz
  1  'x, y, z'
loop_
 _atom_site_type_symbol
 _atom_site_label
 _atom_site_symmetry_multiplicity
 _atom_site_fract_x
 _atom_site_fract_y
 _atom_site_fract_z
 _atom_site_occupancy
 _atom_site_hle17_bader_spin_density
 _atom_site_hle17_ddec_charge
 _atom_site_hle17_ddec_spin_density
 _atom_site_hle17_ddec_sum_bond_order
 _atom_site_hle17_magmom
 _atom_site_hse06_10hf_bader_spin_density
 _atom_site_hse06_10hf_ddec_charge
 _atom_site_hse06_10hf_ddec_spin_density
 _atom_site_hse06_10hf_ddec_sum_bond_order
 _atom_site_hse06_10hf_magmom
 _atom_site_hse06_bader_spin_density
 _atom_site_hse06_ddec_charge
 _atom_site_hse06_ddec_spin_density
 _atom_site_hse06_ddec_sum_bond_order
 _atom_site_hse06_magmom
 _atom_site_pbe_bader_charge
 _atom_site_pbe_bader_spin_density
 _atom_site_pbe_cm5_charge
 _atom_site_pbe_ddec_charge
 _atom_site_pbe_ddec_spin_density
 _atom_site_pbe_ddec_sum_bond_order
 _atom_site_pbe_magmom
Na  Na0  1  0.49711248  0.24719016  0.25226890  1  0  0.895752  0  0.360659  0  0  0.84794  0  0.512931  0  0  0.858034  0  0.491478  0  0.88517  0  0.631745  0.840407  0  0.528458  0
Na  Na1  1  0.50288979  0.75280744  0.74773414  1  0  0.895761  0  0.360642  0  0  0.847951  0  0.512956  0  0  0.858027  0  0.491495  0  0.885194  0  0.631735  0.84043  0  0.528433  0
Na  Na2  1  0.49371889  0.74760522  0.24898531  1  0  0.913069  0  0.397137  0  0  0.879238  0  0.541526  0  0  0.887957  0  0.521163  0  0.885725  0  0.70798  0.87259  0  0.556423  0
Na  Na3  1  0.50628175  0.25239622  0.75101407  1  0  0.91307  0  0.397145  0  0  0.879252  0  0.541513  0  0  0.887963  0  0.521154  0  0.885721  0  0.707992  0.872608  0  0.556409  0
Zn  Zn4  1  0.30479891  0.98149293  0.33747708  1  0  1.178009  0  1.702765  0  0  1.015438  0  2.165465  0  0  1.065518  0  2.100183  0  1.327684  0  0.674549  0.97959  0  2.211129  0
Zn  Zn5  1  0.69519966  0.01850659  0.66252040  1  0  1.178036  0  1.702821  0  0  1.015479  0  2.165523  0  0  1.065551  0  2.100243  0  1.327624  0  0.674565  0.979633  0  2.211192  0
Zn  Zn6  1  0.31347528  0.48664100  0.83805729  1  0  1.177609  0  1.698004  0  0  1.015482  0  2.158829  0  0  1.065656  0  2.093808  0  1.329095  0  0.673536  0.979562  0  2.204329  0
Zn  Zn7  1  0.68652969  0.51336044  0.16194360  1  0  1.177638  0  1.698043  0  0  1.015508  0  2.158855  0  0  1.065676  0  2.093836  0  1.329137  0  0.673561  0.979591  0  2.204349  0
H  H8  1  0.68403797  0.83753368  0.37092077  1  0  0.435502  0  0.868944  0  0  0.403105  0  0.934468  0  0  0.414665  0  0.917796  0  0.66706  0  0.289929  0.394939  0  0.946216  0
H  H9  1  0.31595689  0.16246776  0.62907986  1  0  0.43556  0  0.868869  0  0  0.403159  0  0.934398  0  0  0.414719  0  0.917726  0  0.667055  0  0.289965  0.394993  0  0.946146  0
H  H10  1  0.68922855  0.92394426  0.28730774  1  0  0.439056  0  0.849104  0  0  0.413598  0  0.902482  0  0  0.423805  0  0.887431  0  0.651838  0  0.302688  0.406352  0  0.913166  0
H  H11  1  0.31077291  0.07605525  0.71269402  1  0  0.439071  0  0.849077  0  0  0.413603  0  0.902477  0  0  0.423809  0  0.887428  0  0.651815  0  0.302669  0.406355  0  0.913167  0
H  H12  1  0.94773862  0.03892273  0.39526099  1  0  0.437514  0  0.80623  0  0  0.418446  0  0.859977  0  0  0.427193  0  0.849865  0  0.613183  0  0.327173  0.412149  0  0.867342  0
H  H13  1  0.05226306  0.96107967  0.60473879  1  0  0.437523  0  0.806216  0  0  0.41846  0  0.859956  0  0  0.427208  0  0.849843  0  0.613152  0  0.327159  0.412164  0  0.867319  0
H  H14  1  0.90416761  0.17471726  0.33798070  1  0  0.440216  0  0.85979  0  0  0.405386  0  0.929241  0  0  0.417045  0  0.912383  0  0.669669  0  0.296984  0.397094  0  0.941215  0
H  H15  1  0.09583118  0.82528514  0.66201862  1  0  0.440216  0  0.859792  0  0  0.405409  0  0.92921  0  0  0.417068  0  0.912353  0  0.669636  0  0.296981  0.397114  0  0.941189  0
H  H16  1  0.52219723  0.05577000  0.40923221  1  0  0.431122  0  0.816494  0  0  0.413072  0  0.871151  0  0  0.422061  0  0.860806  0  0.605623  0  0.323496  0.406507  0  0.878887  0
H  H17  1  0.47780341  0.94423144  0.59076935  1  0  0.431132  0  0.816465  0  0  0.41309  0  0.871108  0  0  0.422077  0  0.860763  0  0.605662  0  0.323504  0.406526  0  0.878843  0
H  H18  1  0.32978227  0.18525546  0.39966929  1  0  0.430104  0  0.884655  0  0  0.392355  0  0.957611  0  0  0.406538  0  0.937575  0  0.646932  0  0.283399  0.382336  0  0.971761  0
H  H19  1  0.67022000  0.81474213  0.60033158  1  0  0.430167  0  0.884556  0  0  0.392411  0  0.957522  0  0  0.406591  0  0.937492  0  0.646914  0  0.283428  0.382393  0  0.971671  0
H  H20  1  0.52637600  0.57094568  0.90676566  1  0  0.431071  0  0.814492  0  0  0.414944  0  0.865464  0  0  0.423589  0  0.855778  0  0.60714  0  0.326125  0.408589  0  0.872817  0
H  H21  1  0.47362358  0.42904806  0.09324172  1  0  0.430891  0  0.814608  0  0  0.414751  0  0.865639  0  0  0.4234  0  0.855948  0  0.607048  0  0.326004  0.40839  0  0.873004  0
H  H22  1  0.33017490  0.69658892  0.89509507  1  0  0.430198  0  0.885269  0  0  0.392041  0  0.958885  0  0  0.406183  0  0.938924  0  0.646851  0  0.28441  0.382059  0  0.972969  0
H  H23  1  0.66983708  0.30340964  0.10490323  1  0  0.430276  0  0.885114  0  0  0.392031  0  0.958879  0  0  0.406174  0  0.938916  0  0.646752  0  0.284396  0.382048  0  0.972963  0
H  H24  1  0.91207297  0.68007948  0.83587270  1  0  0.438751  0  0.862618  0  0  0.404305  0  0.93177  0  0  0.415962  0  0.914938  0  0.668522  0  0.296253  0.396027  0  0.943693  0
H  H25  1  0.08793426  0.31992004  0.16412726  1  0  0.438764  0  0.862597  0  0  0.40433  0  0.931739  0  0  0.415989  0  0.914904  0  0.670361  0  0.296279  0.396052  0  0.943665  0
H  H26  1  0.95908372  0.54787886  0.89618192  1  0  0.436092  0  0.808144  0  0  0.416871  0  0.862629  0  0  0.425619  0  0.852455  0  0.627721  0  0.325865  0.410572  0  0.870031  0
H  H27  1  0.04092577  0.45211873  0.10381929  1  0  0.43609  0  0.80818  0  0  0.416883  0  0.862627  0  0  0.42563  0  0.852455  0  0.627756  0  0.325912  0.41059  0  0.870024  0
H  H28  1  0.69236608  0.33798196  0.87550372  1  0  0.439268  0  0.862247  0  0  0.406584  0  0.928043  0  0  0.418233  0  0.91118  0  0.665409  0  0.291568  0.39836  0  0.939911  0
H  H29  1  0.30763971  0.66201756  0.12449465  1  0  0.439188  0  0.862351  0  0  0.406549  0  0.928102  0  0  0.418198  0  0.911237  0  0.665396  0  0.291568  0.398325  0  0.939971  0
H  H30  1  0.70376456  0.42521835  0.79224476  1  0  0.438618  0  0.846836  0  0  0.414059  0  0.898291  0  0  0.424068  0  0.883529  0  0.644154  0  0.30595  0.406919  0  0.90883  0
H  H31  1  0.29623256  0.57478117  0.20775440  1  0  0.4386  0  0.846864  0  0  0.414038  0  0.898324  0  0  0.424048  0  0.88356  0  0.644182  0  0.305966  0.406895  0  0.908867  0
H  H32  1  0.11977759  0.43584414  0.24295794  1  0  0.42741  0  0.864351  0  0  0.401304  0  0.919924  0  0  0.410483  0  0.906365  0  0.642604  0  0.300144  0.394755  0  0.929614  0
H  H33  1  0.88022098  0.56415538  0.75704172  1  0  0.427401  0  0.864369  0  0  0.401311  0  0.919917  0  0  0.410486  0  0.906361  0  0.64259  0  0.30016  0.39476  0  0.92961  0
H  H34  1  0.19932575  0.41204680  0.32510900  1  0  0.434196  0  0.852475  0  0  0.403894  0  0.915231  0  0  0.413948  0  0.900394  0  0.616712  0  0.301837  0.396657  0  0.925912  0
H  H35  1  0.80067034  0.58795176  0.67489030  1  0  0.434223  0  0.852487  0  0  0.403926  0  0.91519  0  0  0.413979  0  0.900354  0  0.616715  0  0.301855  0.396686  0  0.925876  0
H  H36  1  0.87102528  0.05822818  0.25789427  1  0  0.42835  0  0.863092  0  0  0.401704  0  0.91923  0  0  0.410998  0  0.905541  0  0.63399  0  0.300359  0.395071  0  0.929018  0
H  H37  1  0.12897906  0.94177134  0.74210414  1  0  0.42835  0  0.863094  0  0  0.401758  0  0.919147  0  0  0.411051  0  0.90546  0  0.633972  0  0.300409  0.395122  0  0.928939  0
H  H38  1  0.78977031  0.08366463  0.17552992  1  0  0.435456  0  0.854576  0  0  0.403796  0  0.919084  0  0  0.414254  0  0.903701  0  0.63378  0  0.298992  0.396332  0  0.930048  0
H  H39  1  0.21023692  0.91633489  0.82446787  1  0  0.435381  0  0.854664  0  0  0.403708  0  0.919209  0  0  0.414167  0  0.903825  0  0.633857  0  0.298911  0.396242  0  0.930178  0
H  H40  1  0.25195369  0.03209586  0.89788770  1  0  0.101876  0  0.962413  0  0  0.10999  0  1.029337  0  0  0.114078  0  1.025321  0  0.136457  0  0.110718  0.107019  0  1.032288  0
H  H41  1  0.74803807  0.96790270  0.10211064  1  0  0.101803  0  0.962498  0  0  0.109945  0  1.029367  0  0  0.114019  0  1.02539  0  0.136494  0  0.110698  0.106979  0  1.032307  0
H  H42  1  0.22794926  0.86514918  0.12969477  1  0  0.101704  0  0.962662  0  0  0.109814  0  1.029289  0  0  0.114114  0  1.024901  0  0.07806  0  0.114862  0.106598  0  1.032608  0
H  H43  1  0.77204065  0.13485033  0.87030188  1  0  0.101753  0  0.962548  0  0  0.109843  0  1.029212  0  0  0.114144  0  1.024824  0  0.078063  0  0.11486  0.106625  0  1.032534  0
H  H44  1  0.26297072  0.25560224  0.06222765  1  0  0.092889  0  0.962203  0  0  0.100115  0  1.032395  0  0  0.104491  0  1.027562  0  0.073939  0  0.105573  0.096987  0  1.035776  0
H  H45  1  0.73701755  0.74440113  0.93777240  1  0  0.092895  0  0.962231  0  0  0.100111  0  1.032423  0  0  0.104485  0  1.027593  0  0.074143  0  0.105576  0.096982  0  1.035806  0
H  H46  1  0.24980407  0.51957614  0.39988338  1  0  0.101738  0  0.965664  0  0  0.10902  0  1.033766  0  0  0.113054  0  1.029712  0  0.111938  0  0.109654  0.106071  0  1.036754  0
H  H47  1  0.75019617  0.48042626  0.60011426  1  0  0.101698  0  0.965728  0  0  0.108951  0  1.033854  0  0  0.112983  0  1.029804  0  0.111996  0  0.109622  0.106009  0  1.036851  0
H  H48  1  0.23298800  0.36206419  0.63346592  1  0  0.102548  0  0.963732  0  0  0.111557  0  1.029507  0  0  0.115947  0  1.025013  0  0.103493  0  0.114372  0.108271  0  1.032899  0
H  H49  1  0.76700953  0.63793436  0.36653389  1  0  0.102574  0  0.963666  0  0  0.111596  0  1.029424  0  0  0.115986  0  1.024929  0  0.103532  0  0.114382  0.108309  0  1.032817  0
H  H50  1  0.25855539  0.75313757  0.55889368  1  0  0.094834  0  0.958459  0  0  0.102689  0  1.026728  0  0  0.107111  0  1.021857  0  0.104882  0  0.106241  0.099495  0  1.030169  0
H  H51  1  0.74144154  0.24686580  0.44110612  1  0  0.094854  0  0.958458  0  0  0.10271  0  1.026717  0  0  0.107131  0  1.021849  0  0.104973  0  0.106257  0.099517  0  1.030156  0
C  C52  1  0.24154102  0.80775452  0.98932996  1  0  0.670931  0  3.865242  0  0  0.616552  0  4.167019  0  0  0.650059  0  4.161238  0  1.569725  0  0.21625  0.593813  0  4.170197  0
C  C53  1  0.75846395  0.19224693  0.01066658  1  0  0.670837  0  3.865393  0  0  0.616478  0  4.167135  0  0  0.649984  0  4.161356  0  1.569646  0  0.216244  0.593736  0  4.170315  0
C  C54  1  0.24071191  0.93276444  0.01140551  1  0  -0.089427  0  3.756113  0  0  -0.061027  0  3.99359  0  0  -0.072663  0  4.01927  0  0.002757  0  -0.017855  -0.05365  0  3.976235  0
C  C55  1  0.75928111  0.06723796  0.98859506  1  0  -0.089343  0  3.756077  0  0  -0.060987  0  3.993608  0  0  -0.07262  0  4.019289  0  0.002519  0  -0.017898  -0.053609  0  3.976253  0
C  C56  1  0.24839778  0.03852330  0.95621643  1  0  -0.035648  0  3.676941  0  0  -0.076651  0  3.926018  0  0  -0.072246  0  3.944756  0  -0.07607  0  -0.063579  -0.079341  0  3.913503  0
C  C57  1  0.75159502  0.96147621  0.04378285  1  0  -0.035663  0  3.676999  0  0  -0.076667  0  3.926097  0  0  -0.072263  0  3.944814  0  -0.075716  0  -0.063617  -0.079357  0  3.913584  0
C  C58  1  0.23772378  0.94532578  0.08577854  1  0  -0.037719  0  3.658161  0  0  -0.079747  0  3.910768  0  0  -0.074512  0  3.927653  0  0.008939  0  -0.062233  -0.08243  0  3.898929  0
C  C59  1  0.76226820  0.05467566  0.91422163  1  0  -0.037764  0  3.658103  0  0  -0.079782  0  3.910746  0  0  -0.074549  0  3.927632  0  0.008984  0  -0.062219  -0.082463  0  3.898903  0
C  C60  1  0.24599255  0.06141110  0.10440120  1  0  -0.087253  0  3.763138  0  0  -0.060172  0  4.003118  0  0  -0.071441  0  4.026109  0  -0.027293  0  -0.018808  -0.05312  0  3.987526  0
C  C61  1  0.75400498  0.93858745  0.89560024  1  0  -0.087321  0  3.763159  0  0  -0.060255  0  4.003106  0  0  -0.071524  0  4.026104  0  -0.02723  0  -0.01883  -0.053202  0  3.987514  0
C  C62  1  0.25263096  0.16605685  0.04844598  1  0  -0.032286  0  3.683168  0  0  -0.076937  0  3.938505  0  0  -0.07104  0  3.954176  0  0.007476  0  -0.06846  -0.080041  0  3.927351  0
C  C63  1  0.74735668  0.83394459  0.95155648  1  0  -0.032275  0  3.683233  0  0  -0.076896  0  3.938548  0  0  -0.071002  0  3.954222  0  0.007294  0  -0.068444  -0.080003  0  3.927399  0
C  C64  1  0.25175859  0.15526648  0.97427599  1  0  -0.068859  0  3.758289  0  0  -0.040052  0  3.991067  0  0  -0.051322  0  4.015196  0  -0.006512  0  -0.01476  -0.033014  0  3.975029  0
C  C65  1  0.74822865  0.84473592  0.02572583  1  0  -0.068867  0  3.758454  0  0  -0.040086  0  3.991214  0  0  -0.051353  0  4.015339  0  -0.006558  0  -0.014723  -0.033048  0  3.975178  0
C  C66  1  0.25383877  0.07431701  0.18316926  1  0  0.679817  0  3.881999  0  0  0.63104  0  4.166974  0  0  0.665764  0  4.159743  0  1.549299  0  0.222811  0.607371  0  4.171284  0
C  C67  1  0.74615528  0.92568635  0.81682736  1  0  0.679925  0  3.881871  0  0  0.63121  0  4.166767  0  0  0.665931  0  4.15954  0  1.549124  0  0.222881  0.607539  0  4.171081  0
C  C68  1  0.26233407  0.26455813  0.91326914  1  0  0.662237  0  3.915333  0  0  0.615992  0  4.202353  0  0  0.649694  0  4.196748  0  1.557237  0  0.202857  0.593107  0  4.205329  0
C  C69  1  0.73765380  0.73544620  0.08672972  1  0  0.662273  0  3.915387  0  0  0.616064  0  4.202345  0  0  0.649769  0  4.19673  0  1.557128  0  0.202836  0.59318  0  4.205325  0
C  C70  1  0.25521871  0.75522519  0.41109982  1  0  0.665895  0  3.912834  0  0  0.618623  0  4.201653  0  0  0.652353  0  4.195885  0  1.545263  0  0.204428  0.595718  0  4.204777  0
C  C71  1  0.74478049  0.24477625  0.58890123  1  0  0.665927  0  3.912868  0  0  0.618709  0  4.201631  0  0  0.65244  0  4.195865  0  1.544931  0  0.204507  0.595802  0  4.204754  0
C  C72  1  0.24770559  0.64742154  0.47356378  1  0  -0.073499  0  3.760065  0  0  -0.043915  0  3.991972  0  0  -0.055473  0  4.016319  0  0.070036  0  -0.016758  -0.036731  0  3.975849  0
C  C73  1  0.75229153  0.35257798  0.52643647  1  0  -0.073548  0  3.76007  0  0  -0.043982  0  3.991977  0  0  -0.05554  0  4.016322  0  0.070075  0  -0.016766  -0.036791  0  3.975844  0
C  C74  1  0.24637246  0.52886505  0.45773519  1  0  -0.037194  0  3.684917  0  0  -0.077609  0  3.932849  0  0  -0.073032  0  3.951719  0  -0.041187  0  -0.063577  -0.080342  0  3.920193  0
C  C75  1  0.75362756  0.47113447  0.54226443  1  0  -0.037116  0  3.684933  0  0  -0.077517  0  3.93288  0  0  -0.072939  0  3.951751  0  -0.041278  0  -0.063539  -0.080265  0  3.920234  0
C  C76  1  0.24196794  0.42462257  0.51450209  1  0  -0.088727  0  3.752105  0  0  -0.059866  0  3.988668  0  0  -0.071746  0  4.014495  0  -0.031652  0  -0.017265  -0.052352  0  3.971243  0
C  C77  1  0.75803311  0.57537790  0.48549739  1  0  -0.088673  0  3.752189  0  0  -0.05982  0  3.988708  0  0  -0.071701  0  4.014534  0  -0.031667  0  -0.017237  -0.052307  0  3.971286  0
C  C78  1  0.24471973  0.29806690  0.49391441  1  0  0.670356  0  3.864724  0  0  0.616771  0  4.16558  0  0  0.650373  0  4.159766  0  1.547751  0  0.215979  0.593954  0  4.168806  0
C  C79  1  0.75527535  0.70193742  0.50608588  1  0  0.670229  0  3.864805  0  0  0.616752  0  4.165513  0  0  0.650355  0  4.159698  0  1.547844  0  0.21597  0.593936  0  4.168736  0
C  C80  1  0.24039375  0.44080573  0.58823862  1  0  -0.038547  0  3.651711  0  0  -0.081243  0  3.903515  0  0  -0.076  0  3.920508  0  -0.051962  0  -0.062711  -0.083929  0  3.891631  0
C  C81  1  0.75960297  0.55919475  0.41176152  1  0  -0.038666  0  3.651757  0  0  -0.081351  0  3.903608  0  0  -0.076105  0  3.920596  0  -0.052083  0  -0.062748  -0.084036  0  3.891724  0
C  C82  1  0.24771995  0.55884826  0.60458955  1  0  -0.089128  0  3.760813  0  0  -0.061503  0  4.000979  0  0  -0.073027  0  4.024183  0  0.011974  0  -0.017888  -0.054286  0  3.985273  0
C  C83  1  0.75227162  0.44115415  0.39540943  1  0  -0.089026  0  3.760668  0  0  -0.061501  0  4.000967  0  0  -0.073026  0  4.024171  0  0.013284  0  -0.017907  -0.054286  0  3.985262  0
C  C84  1  0.25017555  0.66185683  0.54702299  1  0  -0.027888  0  3.681964  0  0  -0.072864  0  3.936489  0  0  -0.066749  0  3.952051  0  -0.060814  0  -0.067161  -0.076089  0  3.925464  0
C  C85  1  0.74981232  0.33814750  0.45297750  1  0  -0.027901  0  3.681916  0  0  -0.072839  0  3.936475  0  0  -0.066722  0  3.952031  0  -0.062076  0  -0.067171  -0.076064  0  3.925446  0
C  C86  1  0.26092352  0.57605068  0.68233890  1  0  0.680926  0  3.883715  0  0  0.631774  0  4.169758  0  0  0.666537  0  4.162479  0  1.553892  0  0.222552  0.608071  0  4.174119  0
C  C87  1  0.73907586  0.42394691  0.31766042  1  0  0.680766  0  3.883712  0  0  0.631594  0  4.169802  0  0  0.666357  0  4.162522  0  1.553619  0  0.222549  0.607891  0  4.174162  0
O  O88  1  0.23511328  0.81100481  0.91875168  1  0  -0.659597  0  2.03822  0  0  -0.593197  0  2.261155  0  0  -0.621823  0  2.251576  0  -1.195451  0  -0.322006  -0.573054  0  2.267206  0
O  O89  1  0.76489537  0.18898797  0.08124685  1  0  -0.659587  0  2.038238  0  0  -0.593127  0  2.261166  0  0  -0.621749  0  2.251588  0  -1.195322  0  -0.32193  -0.572979  0  2.267213  0
O  O90  1  0.25234238  0.70723492  0.03715856  1  0  -0.627444  0  1.930333  0  0  -0.577666  0  2.14765  0  0  -0.601041  0  2.136904  0  -1.192918  0  -0.326402  -0.561317  0  2.154768  0
O  O91  1  0.74767433  0.29276267  0.96283592  1  0  -0.627456  0  1.930332  0  0  -0.577681  0  2.147644  0  0  -0.601055  0  2.136898  0  -1.193031  0  -0.326434  -0.561333  0  2.154763  0
O  O92  1  0.27965106  0.24712567  0.84734331  1  0  -0.670434  0  1.924657  0  0  -0.625012  0  2.150936  0  0  -0.647315  0  2.139462  0  -1.19721  0  -0.394121  -0.609268  0  2.158358  0
O  O93  1  0.72034607  0.75287385  0.15265639  1  0  -0.670474  0  1.924644  0  0  -0.625074  0  2.150922  0  0  -0.647373  0  2.139442  0  -1.197257  0  -0.394142  -0.609328  0  2.158343  0
O  O94  1  0.25692627  0.37330982  0.93201440  1  0  -0.679709  0  1.98134  0  0  -0.612951  0  2.234516  0  0  -0.642379  0  2.219532  0  -1.166615  0  -0.342437  -0.592326  0  2.244497  0
O  O95  1  0.74307437  0.62669162  0.06798770  1  0  -0.679702  0  1.981364  0  0  -0.612961  0  2.23452  0  0  -0.642389  0  2.219532  0  -1.166462  0  -0.342426  -0.592337  0  2.244504  0
O  O96  1  0.23765915  0.18327372  0.20028654  1  0  -0.69566  0  1.983988  0  0  -0.638921  0  2.215094  0  0  -0.663395  0  2.202486  0  -1.212619  0  -0.367157  -0.621732  0  2.223348  0
O  O97  1  0.76234705  0.81672484  0.79971084  1  0  -0.695701  0  1.983962  0  0  -0.638967  0  2.215035  0  0  -0.66344  0  2.20242  0  -1.212339  0  -0.367173  -0.62178  0  2.223286  0
O  O98  1  0.28077590  0.97036184  0.23178016  1  0  -0.687876  0  2.10699  0  0  -0.617901  0  2.380175  0  0  -0.647055  0  2.364074  0  -1.170106  0  -0.351372  -0.597506  0  2.390679  0
O  O99  1  0.71921733  0.02964345  0.76821843  1  0  -0.687935  0  2.106921  0  0  -0.617992  0  2.380088  0  0  -0.647149  0  2.363995  0  -1.170195  0  -0.351429  -0.597592  0  2.390578  0
O  O100  1  0.27004569  0.73576960  0.34567156  1  0  -0.670225  0  1.918158  0  0  -0.626206  0  2.144383  0  0  -0.648042  0  2.132821  0  -1.194505  0  -0.395818  -0.610787  0  2.151881  0
O  O101  1  0.72995762  0.26422896  0.65433134  1  0  -0.6702  0  1.918088  0  0  -0.626196  0  2.144288  0  0  -0.64803  0  2.132726  0  -1.194272  0  -0.395807  -0.610779  0  2.151789  0
O  O102  1  0.25009522  0.86471126  0.42887926  1  0  -0.68224  0  1.995062  0  0  -0.614498  0  2.252292  0  0  -0.64411  0  2.237031  0  -1.163126  0  -0.34313  -0.593712  0  2.262376  0
O  O103  1  0.74991923  0.13528826  0.57112321  1  0  -0.682307  0  1.995228  0  0  -0.614584  0  2.252471  0  0  -0.644198  0  2.237208  0  -1.16304  0  -0.343231  -0.593799  0  2.262559  0
O  O104  1  0.61784640  0.86833018  0.32093748  1  0  -0.902819  0  1.889552  0  0  -0.843674  0  2.08786  0  0  -0.865708  0  2.051992  0  -1.307229  0  -0.623011  -0.827998  0  2.112916  0
O  O105  1  0.38215669  0.13166548  0.67906196  1  0  -0.902896  0  1.889449  0  0  -0.843737  0  2.087751  0  0  -0.865752  0  2.051844  0  -1.307196  0  -0.623018  -0.82806  0  2.112805  0
O  O106  1  0.98204682  0.08064244  0.34614117  1  0  -0.841406  0  1.884516  0  0  -0.777022  0  2.082461  0  0  -0.798353  0  2.04984  0  -1.25488  0  -0.552999  -0.761933  0  2.105337  0
O  O107  1  0.01795382  0.91935900  0.65385821  1  0  -0.841407  0  1.884523  0  0  -0.777066  0  2.082462  0  0  -0.798396  0  2.049829  0  -1.254777  0  -0.55298  -0.761978  0  2.10534  0
O  O108  1  0.42300838  0.10856112  0.37289815  1  0  -0.889367  0  1.895388  0  0  -0.82363  0  2.127333  0  0  -0.846316  0  2.090312  0  -1.239539  0  -0.591592  -0.807807  0  2.153562  0
O  O109  1  0.57699474  0.89144128  0.62710213  1  0  -0.889426  0  1.895334  0  0  -0.8237  0  2.127308  0  0  -0.84638  0  2.090285  0  -1.239614  0  -0.591627  -0.80788  0  2.153534  0
O  O110  1  0.23726505  0.29961554  0.42366597  1  0  -0.655766  0  2.029642  0  0  -0.591515  0  2.252308  0  0  -0.61984  0  2.24253  0  -1.186999  0  -0.321386  -0.571562  0  2.258521  0
O  O111  1  0.76272118  0.70039264  0.57633412  1  0  -0.655725  0  2.029662  0  0  -0.591517  0  2.252287  0  0  -0.619842  0  2.242511  0  -1.186993  0  -0.321394  -0.571565  0  2.258503  0
O  O112  1  0.25789930  0.19815463  0.54266554  1  0  -0.632541  0  1.930646  0  0  -0.582053  0  2.148313  0  0  -0.605607  0  2.137199  0  -1.193872  0  -0.328414  -0.56557  0  2.155654  0
O  O113  1  0.74209722  0.80184969  0.45733417  1  0  -0.63247  0  1.930664  0  0  -0.582019  0  2.148279  0  0  -0.605569  0  2.137165  0  -1.193949  0  -0.328376  -0.565536  0  2.155619  0
O  O114  1  0.24484067  0.68664553  0.69708461  1  0  -0.696203  0  1.98172  0  0  -0.639563  0  2.212841  0  0  -0.663893  0  2.200019  0  -1.207189  0  -0.368446  -0.622436  0  2.221163  0
O  O115  1  0.75516346  0.31335110  0.30291524  1  0  -0.696102  0  1.981682  0  0  -0.639447  0  2.212806  0  0  -0.663778  0  2.199991  0  -1.207019  0  -0.368435  -0.62233  0  2.221153  0
O  O116  1  0.29274422  0.47375531  0.73240444  1  0  -0.690412  0  2.109363  0  0  -0.620382  0  2.383565  0  0  -0.649707  0  2.367642  0  -1.182911  0  -0.353309  -0.599846  0  2.39392  0
O  O117  1  0.70725950  0.52624228  0.26759421  1  0  -0.6904  0  2.109434  0  0  -0.620304  0  2.383619  0  0  -0.649628  0  2.367692  0  -1.182899  0  -0.353305  -0.599767  0  2.393969  0
O  O118  1  0.42680527  0.61936425  0.86965297  1  0  -0.887667  0  1.899574  0  0  -0.823461  0  2.132775  0  0  -0.845982  0  2.095767  0  -1.240914  0  -0.591928  -0.807767  0  2.158997  0
O  O119  1  0.57320216  0.38063142  0.13035233  1  0  -0.887478  0  1.899489  0  0  -0.823254  0  2.13274  0  0  -0.84578  0  2.095751  0  -1.240795  0  -0.591803  -0.807557  0  2.158955  0
O  O120  1  0.99110978  0.58610379  0.84592339  1  0  -0.842002  0  1.885485  0  0  -0.778047  0  2.082881  0  0  -0.799461  0  2.050439  0  -1.270839  0  -0.554402  -0.762928  0  2.10569  0
O  O121  1  0.00889952  0.41389765  0.15407792  1  0  -0.842041  0  1.885536  0  0  -0.778094  0  2.08291  0  0  -0.799509  0  2.050465  0  -1.272674  0  -0.554482  -0.762984  0  2.105712  0
O  O122  1  0.62802511  0.37224917  0.82538805  1  0  -0.897245  0  1.890914  0  0  -0.837731  0  2.086806  0  0  -0.8595  0  2.050803  0  -1.293532  0  -0.616509  -0.822242  0  2.111998  0
O  O123  1  0.37197840  0.62774554  0.17461040  1  0  -0.897159  0  1.891037  0  0  -0.837694  0  2.086847  0  0  -0.859462  0  2.050841  0  -1.293553  0  -0.616526  -0.822203  0  2.112036  0
O  O124  1  0.23430048  0.43340521  0.27207573  1  0  -0.861651  0  1.783258  0  0  -0.809792  0  1.935243  0  0  -0.826567  0  1.903612  0  -1.263294  0  -0.626988  -0.797833  0  1.957635  0
O  O125  1  0.76569850  0.56659334  0.72792457  1  0  -0.861672  0  1.783307  0  0  -0.809832  0  1.935244  0  0  -0.826594  0  1.903616  0  -1.26328  0  -0.627021  -0.797883  0  1.95765  0
O  O126  1  0.75614743  0.06114931  0.22877116  1  0  -0.866654  0  1.789455  0  0  -0.812669  0  1.944984  0  0  -0.830019  0  1.9128  0  -1.272791  0  -0.626792  -0.800362  0  1.967727  0
O  O127  1  0.24385917  0.93884828  0.77122632  1  0  -0.866591  0  1.789519  0  0  -0.812658  0  1.945012  0  0  -0.829996  0  1.912794  0  -1.272867  0  -0.626772  -0.80035  0  1.967753  0
