# generated using pymatgen
data_CuH10C12BrN6
_symmetry_space_group_name_H-M   'P 1'
_cell_length_a   7.37803116
_cell_length_b   9.16831771
_cell_length_c   9.84519345
_cell_angle_alpha   98.73358261
_cell_angle_beta   104.45766134
_cell_angle_gamma   91.04256060
_symmetry_Int_Tables_number   1
_chemical_formula_structural   CuH10C12BrN6
_chemical_formula_sum   'Cu2 H20 C24 Br2 N12'
_cell_volume   636.30652772
_cell_formula_units_Z   2
loop_
 _symmetry_equiv_pos_site_id
 _symmetry_equiv_pos_as_xyz
  1  'x, y, z'
loop_
 _atom_site_type_symbol
 _atom_site_label
 _atom_site_symmetry_multiplicity
 _atom_site_fract_x
 _atom_site_fract_y
 _atom_site_fract_z
 _atom_site_occupancy
 _atom_site_pbe_bader_spin_density
 _atom_site_pbe_cm5_charge
 _atom_site_pbe_ddec_charge
 _atom_site_pbe_ddec_spin_density
 _atom_site_pbe_ddec_sum_bond_order
 _atom_site_pbe_magmom
Cu  Cu0  1  0.35034153  0.17615403  0.68723031  1  0  0.491868  0.285594  0  2.542864  0
Cu  Cu1  1  0.64965711  0.82384122  0.31277132  1  0  0.491811  0.285526  0  2.542826  0
H  H2  1  0.99810724  0.04003096  0.73926801  1  0  0.099367  0.08378  0  1.047128  0
H  H3  1  0.00189298  0.95996765  0.26072932  1  0  0.099383  0.083782  0  1.047216  0
H  H4  1  0.40038846  0.94188672  0.87275671  1  0  0.109431  0.073427  0  1.004275  0
H  H5  1  0.59960795  0.05811518  0.12724554  1  0  0.109414  0.073429  0  1.004358  0
H  H6  1  0.32684540  0.94921990  0.44274735  1  0  0.104748  0.081545  0  1.04516  0
H  H7  1  0.67316591  0.05077754  0.55725176  1  0  0.104704  0.0815  0  1.045276  0
H  H8  1  0.36555578  0.40314234  0.93286922  1  0  0.113044  0.077465  0  1.091776  0
H  H9  1  0.63444203  0.59685956  0.06713327  1  0  0.113033  0.077449  0  1.091783  0
H  H10  1  0.92559974  0.29769260  0.12662950  1  0  0.102553  0.103888  0  1.050939  0
H  H11  1  0.07439054  0.70230384  0.87336779  1  0  0.102535  0.10384  0  1.051004  0
H  H12  1  0.33729183  0.52614403  0.58731169  1  0  0.103526  0.109335  0  1.016702  0
H  H13  1  0.66270191  0.47386013  0.41268738  1  0  0.103574  0.109384  0  1.016686  0
H  H14  1  0.38241105  0.66544409  0.83490026  1  0  0.110146  0.118877  0  1.004092  0
H  H15  1  0.61758069  0.33455232  0.16510033  1  0  0.110154  0.118838  0  1.00419  0
H  H16  1  0.81793436  0.08706897  0.92366054  1  0  0.106241  0.112161  0  0.992853  0
H  H17  1  0.18206013  0.91292975  0.07632971  1  0  0.106256  0.112105  0  0.992864  0
H  H18  1  0.98286108  0.59756184  0.37148445  1  0  0.278147  0.249627  0  1.028998  0
H  H19  1  0.01714470  0.40243560  0.62851674  1  0  0.278135  0.249627  0  1.028968  0
H  H20  1  0.04604546  0.42017545  0.36962010  1  0  0.255647  0.244175  0  1.071478  0
H  H21  1  0.95395773  0.57982420  0.63038199  1  0  0.255657  0.244191  0  1.071426  0
C  C22  1  0.31740054  0.65595126  0.35165625  1  0  0.222226  0.183769  0  3.988868  0
C  C23  1  0.68260008  0.34405177  0.64834284  1  0  0.222205  0.183692  0  3.988746  0
C  C24  1  0.23636483  0.49403209  0.15436940  1  0  0.22577  0.192158  0  4.009489  0
C  C25  1  0.76363274  0.50596646  0.84563458  1  0  0.225738  0.192122  0  4.009535  0
C  C26  1  0.34223664  0.88269553  0.52735987  1  0  0.046329  0.059523  0  3.917878  0
C  C27  1  0.65776850  0.11731076  0.47264254  1  0  0.046444  0.059594  0  3.917848  0
C  C28  1  0.33228079  0.72869533  0.49678837  1  0  -0.007258  -0.019632  0  4.054087  0
C  C29  1  0.66772380  0.27130547  0.50320905  1  0  -0.007297  -0.019564  0  4.05419  0
C  C30  1  0.34529137  0.64687381  0.60788003  1  0  -0.071144  -0.061619  0  3.895022  0
C  C31  1  0.65470895  0.35312591  0.39211749  1  0  -0.071243  -0.06185  0  3.895204  0
C  C32  1  0.37046281  0.72418242  0.74512226  1  0  -0.085053  -0.113585  0  3.97618  0
C  C33  1  0.62953633  0.27581950  0.25487742  1  0  -0.085022  -0.113393  0  3.976206  0
C  C34  1  0.38126674  0.87789689  0.76666581  1  0  0.039375  0.080972  0  3.938458  0
C  C35  1  0.61873518  0.12210502  0.23333334  1  0  0.039377  0.08089  0  3.938584  0
C  C36  1  0.24377723  0.33521159  0.93489242  1  0  0.042099  0.049531  0  3.891682  0
C  C37  1  0.75622023  0.66478702  0.06510647  1  0  0.042123  0.049635  0  3.891546  0
C  C38  1  0.15412748  0.36815764  0.04512151  1  0  -0.000922  -0.009655  0  4.00016  0
C  C39  1  0.84587161  0.63184315  0.95488002  1  0  -0.00095  -0.009769  0  4.000112  0
C  C40  1  0.99833482  0.27671603  0.04291158  1  0  -0.069734  -0.071924  0  3.919832  0
C  C41  1  0.00166985  0.72328473  0.95708991  1  0  -0.069737  -0.071906  0  3.919742  0
C  C42  1  0.93986570  0.15945265  0.93071174  1  0  -0.089755  -0.121852  0  3.992576  0
C  C43  1  0.06013603  0.84054705  0.06928704  1  0  -0.089686  -0.121571  0  3.992309  0
C  C44  1  0.03856310  0.13297068  0.82680986  1  0  0.035268  0.075117  0  3.911603  0
C  C45  1  0.96144465  0.86703338  0.17319268  1  0  0.035179  0.074957  0  3.911651  0
Br  Br46  1  0.14654494  0.21362116  0.45172960  1  0  -0.313727  -0.535829  0  1.345298  0
Br  Br47  1  0.85345129  0.78637737  0.54827719  1  0  -0.313721  -0.535806  0  1.345283  0
N  N48  1  0.43569546  0.67671297  0.27233554  1  0  -0.269937  -0.200386  0  3.650889  0
N  N49  1  0.56429951  0.32328896  0.72766443  1  0  -0.269902  -0.200319  0  3.650705  0
N  N50  1  0.38704913  0.57414354  0.15071180  1  0  -0.221387  -0.238609  0  3.237543  0
N  N51  1  0.61294697  0.42585506  0.84928888  1  0  -0.221399  -0.23863  0  3.237511  0
N  N52  1  0.18663029  0.54480130  0.27814653  1  0  -0.136142  0.098166  0  3.740043  0
N  N53  1  0.81336880  0.45519949  0.72185500  1  0  -0.136132  0.098194  0  3.740127  0
N  N54  1  0.02033067  0.50654844  0.31131638  1  0  -0.498042  -0.492558  0  3.185067  0
N  N55  1  0.97967079  0.49344679  0.68868676  1  0  -0.498033  -0.492538  0  3.184956  0
N  N56  1  0.36626141  0.95758900  0.65980151  1  0  -0.364764  -0.20691  0  3.686312  0
N  N57  1  0.63373909  0.04241293  0.34019638  1  0  -0.364735  -0.206837  0  3.686138  0
N  N58  1  0.19038710  0.21970699  0.82940621  1  0  -0.357921  -0.206572  0  3.636714  0
N  N59  1  0.80961902  0.78029489  0.17059368  1  0  -0.357861  -0.206555  0  3.636647  0
