# generated using pymatgen
data_ZnH14C19N2O7
_symmetry_space_group_name_H-M   'P 1'
_cell_length_a   9.40661289
_cell_length_b   9.49230250
_cell_length_c   11.15079190
_cell_angle_alpha   111.48251331
_cell_angle_beta   90.76943096
_cell_angle_gamma   102.69295398
_symmetry_Int_Tables_number   1
_chemical_formula_structural   ZnH14C19N2O7
_chemical_formula_sum   'Zn2 H28 C38 N4 O14'
_cell_volume   898.99989377
_cell_formula_units_Z   2
loop_
 _symmetry_equiv_pos_site_id
 _symmetry_equiv_pos_as_xyz
  1  'x, y, z'
loop_
 _atom_site_type_symbol
 _atom_site_label
 _atom_site_symmetry_multiplicity
 _atom_site_fract_x
 _atom_site_fract_y
 _atom_site_fract_z
 _atom_site_occupancy
 _atom_site_pbe_bader_spin_density
 _atom_site_pbe_cm5_charge
 _atom_site_pbe_ddec_charge
 _atom_site_pbe_ddec_spin_density
 _atom_site_pbe_ddec_sum_bond_order
 _atom_site_pbe_magmom
Zn  Zn0  1  0.45343658  0.26911518  0.30476749  1  0  0.684319  0.822521  0  2.318529  0
Zn  Zn1  1  0.54656591  0.73088322  0.69523050  1  0  0.684323  0.822492  0  2.318523  0
H  H2  1  0.32842258  0.44013757  0.14893006  1  0  0.118571  0.087728  0  1.015093  0
H  H3  1  0.67157047  0.55986197  0.85107340  1  0  0.118644  0.087848  0  1.015056  0
H  H4  1  0.16268348  0.36109050  0.94287105  1  0  0.109668  0.114342  0  0.997588  0
H  H5  1  0.83731391  0.63890905  0.05712895  1  0  0.109655  0.114352  0  0.997552  0
H  H6  1  0.07898866  0.07585503  0.80390335  1  0  0.111434  0.119816  0  1.027916  0
H  H7  1  0.92101192  0.92414453  0.19609674  1  0  0.111444  0.119829  0  1.02789  0
H  H8  1  0.16531224  0.88378945  0.87091458  1  0  0.112705  0.122169  0  1.010604  0
H  H9  1  0.83469025  0.11621362  0.12908486  1  0  0.112699  0.122137  0  1.010608  0
H  H10  1  0.28363040  0.74834966  0.92042418  1  0  0.107729  0.116038  0  1.04638  0
H  H11  1  0.71637255  0.25165106  0.07957723  1  0  0.10772  0.116031  0  1.04638  0
H  H12  1  0.39873061  0.59043607  0.00820893  1  0  0.109238  0.104927  0  1.002739  0
H  H13  1  0.60126869  0.40956233  0.99178897  1  0  0.109225  0.104939  0  1.002734  0
H  H14  1  0.53604399  0.71791081  0.23206832  1  0  0.111505  0.136415  0  1.042193  0
H  H15  1  0.46395341  0.28208409  0.76793023  1  0  0.111516  0.136419  0  1.042136  0
H  H16  1  0.54692133  0.00102628  0.35784127  1  0  0.123372  0.106494  0  1.006  0
H  H17  1  0.45307850  0.99896979  0.64215591  1  0  0.12337  0.106489  0  1.005939  0
H  H18  1  0.49180542  0.34917583  0.55810312  1  0  0.304165  0.402554  0  0.921475  0
H  H19  1  0.50819599  0.65082256  0.44189573  1  0  0.304169  0.402574  0  0.921457  0
H  H20  1  0.38775454  0.17468742  0.50034987  1  0  0.294636  0.382105  0  0.959072  0
H  H21  1  0.61224442  0.82531447  0.49965179  1  0  0.294639  0.382105  0  0.959068  0
H  H22  1  0.86726331  0.77447850  0.34156687  1  0  0.108567  0.110115  0  1.027538  0
H  H23  1  0.13273860  0.22552223  0.65843362  1  0  0.108554  0.110137  0  1.027531  0
H  H24  1  0.29537412  0.71944187  0.43125968  1  0  0.108216  0.118052  0  1.046509  0
H  H25  1  0.70463003  0.28055887  0.56873639  1  0  0.108226  0.118062  0  1.046528  0
H  H26  1  0.92082581  0.32849355  0.31992415  1  0  0.106019  0.112404  0  1.02339  0
H  H27  1  0.07917492  0.67150716  0.68008078  1  0  0.10598  0.112343  0  1.023437  0
H  H28  1  0.12306410  0.10953797  0.37512515  1  0  0.308044  0.380377  0  0.963554  0
H  H29  1  0.87694105  0.89046743  0.62487419  1  0  0.308071  0.380451  0  0.963444  0
C  C30  1  0.28873662  0.31852882  0.08373138  1  0  0.050398  0.095852  0  3.961602  0
C  C31  1  0.71126459  0.68146842  0.91626442  1  0  0.05041  0.095835  0  3.961597  0
C  C32  1  0.19674417  0.27376511  0.97057267  1  0  -0.07827  -0.123167  0  3.962736  0
C  C33  1  0.80325132  0.72623560  0.02942943  1  0  -0.078323  -0.123319  0  3.962841  0
C  C34  1  0.15123670  0.11532462  0.89299351  1  0  -0.063461  -0.018331  0  3.931348  0
C  C35  1  0.84876503  0.88467495  0.10700303  1  0  -0.063472  -0.018283  0  3.931441  0
C  C36  1  0.19961474  0.00770613  0.93055826  1  0  -0.070901  -0.139533  0  3.900592  0
C  C37  1  0.80038427  0.99229110  0.06944017  1  0  -0.070884  -0.139508  0  3.900643  0
C  C38  1  0.29220162  0.06145367  0.04563949  1  0  0.124199  0.171969  0  3.9866  0
C  C39  1  0.70779923  0.93854706  0.95436097  1  0  0.124188  0.171945  0  3.98656  0
C  C40  1  0.35122052  0.95718374  0.09352811  1  0  0.116748  0.162634  0  3.99373  0
C  C41  1  0.64877519  0.04281347  0.90647470  1  0  0.116718  0.162662  0  3.993639  0
C  C42  1  0.33817675  0.79967609  0.01848238  1  0  -0.081141  -0.155071  0  3.933254  0
C  C43  1  0.66181974  0.20031995  0.98152099  1  0  -0.081137  -0.155101  0  3.933252  0
C  C44  1  0.40414191  0.71197432  0.06819022  1  0  -0.066709  -0.023177  0  3.961515  0
C  C45  1  0.59585389  0.28802291  0.93180901  1  0  -0.066686  -0.0232  0  3.961604  0
C  C46  1  0.48032735  0.78231447  0.19159880  1  0  -0.0804  -0.129602  0  3.925085  0
C  C47  1  0.51967266  0.21768274  0.80840234  1  0  -0.080405  -0.129586  0  3.925209  0
C  C48  1  0.48770663  0.93980471  0.26138788  1  0  0.058894  0.119482  0  3.890657  0
C  C49  1  0.51229258  0.06019367  0.73861360  1  0  0.058921  0.119525  0  3.890667  0
C  C50  1  0.87729380  0.54449302  0.32529448  1  0  -0.024109  -0.048034  0  3.988852  0
C  C51  1  0.12270711  0.45550772  0.67470329  1  0  -0.024132  -0.047956  0  3.98876  0
C  C52  1  0.93878821  0.70153638  0.34933472  1  0  -0.072062  -0.091221  0  3.918627  0
C  C53  1  0.06121049  0.29846434  0.65066657  1  0  -0.072035  -0.091286  0  3.918521  0
C  C54  1  0.08875834  0.76463212  0.38929884  1  0  -0.021729  -0.05771  0  3.99227  0
C  C55  1  0.91124012  0.23536744  0.61070119  1  0  -0.021684  -0.057608  0  3.992228  0
C  C56  1  0.17903164  0.66916953  0.39958963  1  0  -0.065035  -0.079489  0  3.873992  0
C  C57  1  0.82096898  0.33083003  0.60040867  1  0  -0.065066  -0.079542  0  3.873993  0
C  C58  1  0.11895950  0.51009760  0.36908876  1  0  -0.018511  -0.042273  0  3.96621  0
C  C59  1  0.88104342  0.48990200  0.63090244  1  0  -0.018486  -0.042287  0  3.966005  0
C  C60  1  0.96787682  0.44997047  0.33540236  1  0  -0.070469  -0.091362  0  3.926802  0
C  C61  1  0.03212647  0.55002676  0.66459529  1  0  -0.070453  -0.091329  0  3.926714  0
C  C62  1  0.71394675  0.48118003  0.29645102  1  0  0.199544  0.564009  0  4.23069  0
C  C63  1  0.28605332  0.51882186  0.70354888  1  0  0.19951  0.563958  0  4.230768  0
C  C64  1  0.15441420  0.93305134  0.42043330  1  0  0.235049  0.584462  0  4.124567  0
C  C65  1  0.84558505  0.06695172  0.57956784  1  0  0.235076  0.584445  0  4.124817  0
C  C66  1  0.21122060  0.39931846  0.36937688  1  0  0.211106  0.579501  0  4.197877  0
C  C67  1  0.78878163  0.60068811  0.63062275  1  0  0.211092  0.579626  0  4.197616  0
N  N68  1  0.33442368  0.21476743  0.12015594  1  0  -0.316573  -0.275829  0  3.544961  0
N  N69  1  0.66557558  0.78523096  0.87984375  1  0  -0.31661  -0.275852  0  3.544937  0
N  N70  1  0.42454749  0.02458848  0.21349775  1  0  -0.320352  -0.271689  0  3.517387  0
N  N71  1  0.57544800  0.97540758  0.78650290  1  0  -0.32036  -0.271701  0  3.517245  0
O  O72  1  0.47309110  0.24739238  0.48571973  1  0  -0.570379  -0.744795  0  2.201538  0
O  O73  1  0.52690950  0.75260719  0.51427946  1  0  -0.570385  -0.744831  0  2.201548  0
O  O74  1  0.66626028  0.34420477  0.30028067  1  0  -0.332252  -0.549833  0  2.325288  0
O  O75  1  0.33373959  0.65579597  0.69971618  1  0  -0.332234  -0.549825  0  2.325339  0
O  O76  1  0.63552648  0.56071795  0.27269469  1  0  -0.326359  -0.566188  0  2.17379  0
O  O77  1  0.36446855  0.43927578  0.72730254  1  0  -0.326337  -0.566186  0  2.173779  0
O  O78  1  0.07623441  0.99681146  0.36414813  1  0  -0.321207  -0.487661  0  2.371849  0
O  O79  1  0.92377053  0.00319278  0.63584905  1  0  -0.321303  -0.487797  0  2.371859  0
O  O80  1  0.27111568  0.00456500  0.49052142  1  0  -0.277706  -0.49618  0  2.202595  0
O  O81  1  0.72888273  0.99543922  0.50948185  1  0  -0.277693  -0.496151  0  2.202708  0
O  O82  1  0.35124629  0.44903949  0.38118040  1  0  -0.314276  -0.54873  0  2.348612  0
O  O83  1  0.64875669  0.55096123  0.61882012  1  0  -0.31429  -0.548787  0  2.348652  0
O  O84  1  0.14555380  0.26043113  0.34985201  1  0  -0.322212  -0.574062  0  2.26008  0
O  O85  1  0.85445065  0.73957657  0.65015521  1  0  -0.322185  -0.574098  0  2.259883  0
