# generated using pymatgen
data_CuH3C4(IN)2
_symmetry_space_group_name_H-M   'P 1'
_cell_length_a   4.07857418
_cell_length_b   10.74030430
_cell_length_c   17.50456993
_cell_angle_alpha   90.00040029
_cell_angle_beta   89.99952104
_cell_angle_gamma   90.00035474
_symmetry_Int_Tables_number   1
_chemical_formula_structural   CuH3C4(IN)2
_chemical_formula_sum   'Cu4 H12 C16 I8 N8'
_cell_volume   766.78992385
_cell_formula_units_Z   4
loop_
 _symmetry_equiv_pos_site_id
 _symmetry_equiv_pos_as_xyz
  1  'x, y, z'
loop_
 _atom_site_type_symbol
 _atom_site_label
 _atom_site_symmetry_multiplicity
 _atom_site_fract_x
 _atom_site_fract_y
 _atom_site_fract_z
 _atom_site_occupancy
 _atom_site_pbe_bader_spin_density
 _atom_site_pbe_cm5_charge
 _atom_site_pbe_ddec_charge
 _atom_site_pbe_ddec_spin_density
 _atom_site_pbe_ddec_sum_bond_order
 _atom_site_pbe_magmom
Cu  Cu0  1  0.35137773  0.72013903  0.45218254  1  0  0.245354  0.1417  0  2.74099  0
Cu  Cu1  1  0.14862822  0.27985614  0.95218609  1  0  0.245384  0.141799  0  2.740959  0
Cu  Cu2  1  0.64863682  0.22014755  0.04781305  1  0  0.245382  0.141751  0  2.740994  0
Cu  Cu3  1  0.85136988  0.77986105  0.54781434  1  0  0.245367  0.141736  0  2.741023  0
H  H4  1  0.13385097  0.45361006  0.46419619  1  0  0.097542  0.088083  0  1.043992  0
H  H5  1  0.36614231  0.54639362  0.96420330  1  0  0.097547  0.088053  0  1.043908  0
H  H6  1  0.86615974  0.95361208  0.03579869  1  0  0.097585  0.088126  0  1.043971  0
H  H7  1  0.63384002  0.04639359  0.53580240  1  0  0.097542  0.088086  0  1.043945  0
H  H8  1  0.65291918  0.46971778  0.21360172  1  0  0.091646  0.077421  0  1.056023  0
H  H9  1  0.84711609  0.53026477  0.71359680  1  0  0.091657  0.077411  0  1.056005  0
H  H10  1  0.34709422  0.96973343  0.28639780  1  0  0.091675  0.077468  0  1.055998  0
H  H11  1  0.15285128  0.03027102  0.78640312  1  0  0.091656  0.077416  0  1.055966  0
H  H12  1  0.59160125  0.66357207  0.29415430  1  0  0.102932  0.086043  0  1.063626  0
H  H13  1  0.90845330  0.33641233  0.79415300  1  0  0.102891  0.086035  0  1.063697  0
H  H14  1  0.40842471  0.16358271  0.20584104  1  0  0.102947  0.086103  0  1.063676  0
H  H15  1  0.09154811  0.83642269  0.70584481  1  0  0.102925  0.086089  0  1.063683  0
C  C16  1  0.24873035  0.45707162  0.40789136  1  0  0.030522  0.005712  0  3.900295  0
C  C17  1  0.25128450  0.54293794  0.90788897  1  0  0.030577  0.005966  0  3.900413  0
C  C18  1  0.75128286  0.95706933  0.09210639  1  0  0.030522  0.005796  0  3.900493  0
C  C19  1  0.74871985  0.04292953  0.59211100  1  0  0.030509  0.005859  0  3.900327  0
C  C20  1  0.27938814  0.35184532  0.36126442  1  0  0.073486  0.12934  0  3.951628  0
C  C21  1  0.22062097  0.64815161  0.86126712  1  0  0.073464  0.129218  0  3.951449  0
C  C22  1  0.72063575  0.85185373  0.13873116  1  0  0.073497  0.129297  0  3.951582  0
C  C23  1  0.77935554  0.14815032  0.63874073  1  0  0.073601  0.12926  0  3.951333  0
C  C24  1  0.53572527  0.46617056  0.26964376  1  0  0.041875  0.066235  0  3.934157  0
C  C25  1  0.96429580  0.53381728  0.76964491  1  0  0.041692  0.065997  0  3.934311  0
C  C26  1  0.46429299  0.96618122  0.23035403  1  0  0.041701  0.066038  0  3.934562  0
C  C27  1  0.03568879  0.03382632  0.73035788  1  0  0.041781  0.066127  0  3.934047  0
C  C28  1  0.50577120  0.57292474  0.31416097  1  0  0.036017  0.033479  0  3.867776  0
C  C29  1  0.99425813  0.42706361  0.81415474  1  0  0.036248  0.033784  0  3.867139  0
C  C30  1  0.49423867  0.07292978  0.18584256  1  0  0.03613  0.03357  0  3.867766  0
C  C31  1  0.00573484  0.92706795  0.68584574  1  0  0.036109  0.033452  0  3.867367  0
I  I32  1  0.35788677  0.64059088  0.59262969  1  0  -0.149824  -0.229501  0  2.428189  0
I  I33  1  0.14210959  0.35941603  0.09263244  1  0  -0.149838  -0.229552  0  2.428287  0
I  I34  1  0.64210188  0.14058485  0.90736899  1  0  -0.149832  -0.229524  0  2.428211  0
I  I35  1  0.85789725  0.85941480  0.40737003  1  0  -0.149832  -0.229551  0  2.42826  0
I  I36  1  0.09388019  0.17701412  0.39733710  1  0  0.076369  -0.045021  0  1.873957  0
I  I37  1  0.40610315  0.82298694  0.89733275  1  0  0.076403  -0.044974  0  1.873966  0
I  I38  1  0.90611654  0.67701513  0.10266402  1  0  0.076369  -0.045011  0  1.873867  0
I  I39  1  0.59386128  0.32298664  0.60266500  1  0  0.076363  -0.045008  0  1.873819  0
N  N40  1  0.36584851  0.56768954  0.38409769  1  0  -0.340403  -0.119537  0  3.605177  0
N  N41  1  0.13416962  0.43231603  0.88410192  1  0  -0.340501  -0.119898  0  3.6048  0
N  N42  1  0.63416375  0.06769042  0.11590124  1  0  -0.34045  -0.119725  0  3.604739  0
N  N43  1  0.86582343  0.93231430  0.61590315  1  0  -0.340497  -0.119746  0  3.60493  0
N  N44  1  0.42378294  0.35502473  0.29326261  1  0  -0.305516  -0.233937  0  3.355019  0
N  N45  1  0.07623588  0.64496491  0.79325873  1  0  -0.305523  -0.23384  0  3.354474  0
N  N46  1  0.57623609  0.85503540  0.20673527  1  0  -0.305514  -0.233867  0  3.354787  0
N  N47  1  0.92374057  0.14496662  0.70674682  1  0  -0.305535  -0.233757  0  3.354663  0
