# generated using pymatgen
data_AgH4CN4
_symmetry_space_group_name_H-M   'P 1'
_cell_length_a   5.68149260
_cell_length_b   5.88947154
_cell_length_c   6.46960548
_cell_angle_alpha   68.62191867
_cell_angle_beta   73.75791739
_cell_angle_gamma   86.41133224
_symmetry_Int_Tables_number   1
_chemical_formula_structural   AgH4CN4
_chemical_formula_sum   'Ag2 H8 C2 N8'
_cell_volume   193.35139179
_cell_formula_units_Z   2
loop_
 _symmetry_equiv_pos_site_id
 _symmetry_equiv_pos_as_xyz
  1  'x, y, z'
loop_
 _atom_site_type_symbol
 _atom_site_label
 _atom_site_symmetry_multiplicity
 _atom_site_fract_x
 _atom_site_fract_y
 _atom_site_fract_z
 _atom_site_occupancy
 _atom_site_hle17_bader_spin_density
 _atom_site_hle17_ddec_charge
 _atom_site_hle17_ddec_spin_density
 _atom_site_hle17_ddec_sum_bond_order
 _atom_site_hle17_magmom
 _atom_site_hse06_10hf_bader_spin_density
 _atom_site_hse06_10hf_ddec_charge
 _atom_site_hse06_10hf_ddec_spin_density
 _atom_site_hse06_10hf_ddec_sum_bond_order
 _atom_site_hse06_10hf_magmom
 _atom_site_hse06_bader_spin_density
 _atom_site_hse06_ddec_charge
 _atom_site_hse06_ddec_spin_density
 _atom_site_hse06_ddec_sum_bond_order
 _atom_site_hse06_magmom
 _atom_site_pbe_bader_spin_density
 _atom_site_pbe_cm5_charge
 _atom_site_pbe_ddec_charge
 _atom_site_pbe_ddec_spin_density
 _atom_site_pbe_ddec_sum_bond_order
 _atom_site_pbe_magmom
Ag  Ag0  1  0.06231427  0.07934529  0.74244097  1  0  0.512561  0  1.525083  0  0  0.38461  0  1.992193  0  0  0.41006  0  1.946149  0  0  0.455585  0.367414  0  2.023594  0
Ag  Ag1  1  0.93767916  0.92065522  0.25755703  1  0  0.51257  0  1.52503  0  0  0.384613  0  1.99215  0  0  0.410064  0  1.946107  0  0  0.455584  0.367415  0  2.023553  0
H  H2  1  0.03448115  0.54616094  0.71783147  1  0  0.279931  0  0.953259  0  0  0.268246  0  1.016703  0  0  0.273966  0  1.013239  0  0  0.277781  0.264188  0  1.019178  0
H  H3  1  0.96552530  0.45384129  0.28216721  1  0  0.279896  0  0.953308  0  0  0.268223  0  1.016741  0  0  0.273942  0  1.013283  0  0  0.277769  0.264163  0  1.019215  0
H  H4  1  0.23527108  0.42426992  0.85705454  1  0  0.2777  0  0.929513  0  0  0.267582  0  0.987482  0  0  0.271355  0  0.987411  0  0  0.286618  0.26493  0  0.987509  0
H  H5  1  0.76473520  0.57573043  0.14294172  1  0  0.277648  0  0.929486  0  0  0.267528  0  0.987474  0  0  0.271298  0  0.987415  0  0  0.286592  0.264875  0  0.987499  0
H  H6  1  0.42660729  0.75256813  0.50722430  1  0  0.037922  0  0.966825  0  0  0.053374  0  1.041174  0  0  0.052788  0  1.041477  0  0  0.090649  0.053589  0  1.041398  0
H  H7  1  0.57339903  0.24743224  0.49277350  1  0  0.037908  0  0.966765  0  0  0.053373  0  1.041102  0  0  0.052781  0  1.041398  0  0  0.090664  0.053588  0  1.041324  0
H  H8  1  0.32224580  0.60614150  0.35122209  1  0  0.053649  0  0.958893  0  0  0.069034  0  1.031375  0  0  0.069185  0  1.031589  0  0  0.094074  0.068853  0  1.031303  0
H  H9  1  0.67776238  0.39385887  0.64877677  1  0  0.053601  0  0.958893  0  0  0.068976  0  1.031401  0  0  0.069107  0  1.031625  0  0  0.094059  0.068796  0  1.031329  0
C  C10  1  0.38475191  0.57268616  0.50589529  1  0  0.052401  0  3.65723  0  0  -0.004479  0  3.914466  0  0  -0.000542  0  3.928947  0  0  -0.086446  -0.006963  0  3.904197  0
C  C11  1  0.61525796  0.42731234  0.49410223  1  0  0.052614  0  3.657001  0  0  -0.004285  0  3.91425  0  0  -0.000344  0  3.928795  0  0  -0.086359  -0.006768  0  3.903991  0
N  N12  1  0.81188405  0.81773334  0.73663496  1  0  -0.547294  0  2.808723  0  0  -0.501574  0  3.127191  0  0  -0.521282  0  3.129951  0  0  -0.313426  -0.488357  0  3.125538  0
N  N13  1  0.18811859  0.18226533  0.26336902  1  0  -0.547442  0  2.809123  0  0  -0.501707  0  3.127596  0  0  -0.521418  0  3.13036  0  0  -0.313472  -0.488489  0  3.125938  0
N  N14  1  0.59477969  0.80568648  0.82530634  1  0  0.384504  0  4.235747  0  0  0.416642  0  4.506843  0  0  0.431325  0  4.539294  0  0  0.069006  0.4068  0  4.485186  0
N  N15  1  0.40520816  0.19431056  0.17470049  1  0  0.384752  0  4.236229  0  0  0.416875  0  4.507324  0  0  0.431558  0  4.539776  0  0  0.06912  0.407034  0  4.485664  0
N  N16  1  0.38130108  0.78650780  0.90951198  1  0  -0.450592  0  2.554525  0  0  -0.424694  0  2.827687  0  0  -0.436153  0  2.834192  0  0  -0.228334  -0.417173  0  2.823735  0
N  N17  1  0.61867398  0.21348944  0.09049965  1  0  -0.45073  0  2.554657  0  0  -0.424838  0  2.827846  0  0  -0.436295  0  2.834344  0  0  -0.228407  -0.417313  0  2.823886  0
N  N18  1  0.18605691  0.43998656  0.71183864  1  0  -0.600828  0  3.18103  0  0  -0.528763  0  3.432834  0  0  -0.550706  0  3.435408  0  0  -0.645527  -0.513305  0  3.430412  0
N  N19  1  0.81395116  0.56001198  0.28816087  1  0  -0.60077  0  3.180967  0  0  -0.528736  0  3.432783  0  0  -0.550689  0  3.435341  0  0  -0.645529  -0.513277  0  3.430356  0
