# generated using pymatgen
data_Cu3P2H24C34(N2O5)2
_symmetry_space_group_name_H-M   'P 1'
_cell_length_a   8.27665290
_cell_length_b   9.66823257
_cell_length_c   9.82790405
_cell_angle_alpha   86.33343266
_cell_angle_beta   85.13865092
_cell_angle_gamma   88.77090411
_symmetry_Int_Tables_number   1
_chemical_formula_structural   Cu3P2H24C34(N2O5)2
_chemical_formula_sum   'Cu3 P2 H24 C34 N4 O10'
_cell_volume   781.90018996
_cell_formula_units_Z   1
loop_
 _symmetry_equiv_pos_site_id
 _symmetry_equiv_pos_as_xyz
  1  'x, y, z'
loop_
 _atom_site_type_symbol
 _atom_site_label
 _atom_site_symmetry_multiplicity
 _atom_site_fract_x
 _atom_site_fract_y
 _atom_site_fract_z
 _atom_site_occupancy
 _atom_site_hle17_ddec_charge
 _atom_site_hle17_ddec_spin_density
 _atom_site_hle17_ddec_sum_bond_order
 _atom_site_hle17_magmom
 _atom_site_hse06_10hf_ddec_charge
 _atom_site_hse06_10hf_ddec_spin_density
 _atom_site_hse06_10hf_ddec_sum_bond_order
 _atom_site_hse06_10hf_magmom
 _atom_site_hse06_ddec_charge
 _atom_site_hse06_ddec_spin_density
 _atom_site_hse06_ddec_sum_bond_order
 _atom_site_hse06_magmom
 _atom_site_pbe_cm5_charge
 _atom_site_pbe_ddec_charge
 _atom_site_pbe_ddec_spin_density
 _atom_site_pbe_ddec_sum_bond_order
 _atom_site_pbe_magmom
Cu  Cu0  1  0.50001359  0.49998088  0.49996890  1  1.033561  0.760798  1.646886  0.526  1.034255  0.841983  2.03288  0.649  1.122237  0.919755  1.965787  0.732  0.717395  0.966023  0.779899  2.098168  0.592
Cu  Cu1  1  0.85664389  0.53058240  0.73502233  1  0.956809  -0.727554  1.833278  -0.533  0.944971  -0.80992  2.228803  -0.649  1.024396  -0.878172  2.167204  -0.732  0.77117  0.892734  -0.755974  2.276946  -0.59
Cu  Cu2  1  0.14335095  0.46942229  0.26501896  1  0.956689  -0.727541  1.833345  -0.533  0.944902  -0.809898  2.228898  -0.649  1.024349  -0.878156  2.167297  -0.732  0.771255  0.892618  -0.755966  2.277124  -0.59
P  P3  1  0.84750078  0.34375210  0.47027405  1  1.459193  -0.003685  4.883821  0.001  1.323164  -0.005891  5.38409  -0.003  1.384257  -0.004243  5.34143  -0.002  0.34104  1.280505  -0.007348  5.410385  -0.003
P  P4  1  0.15250476  0.65622441  0.52970719  1  1.459385  -0.003695  4.883714  0.001  1.323435  -0.005885  5.384017  -0.003  1.384502  -0.004241  5.341428  -0.002  0.341296  1.280809  -0.00734  5.410186  -0.003
H  H5  1  0.63391094  0.28342780  0.72360504  1  0.095737  -0.001491  0.967273  -0.002  0.099274  -0.001252  1.038399  -0.002  0.101934  -0.000918  1.034896  -0.001  0.123574  0.096956  -0.001522  1.041141  -0.002
H  H6  1  0.36611448  0.71654868  0.27643777  1  0.095706  -0.001488  0.967354  -0.002  0.099201  -0.00125  1.038452  -0.002  0.101865  -0.000917  1.034949  -0.001  0.123501  0.096893  -0.00152  1.0412  -0.002
H  H7  1  0.02038241  0.78513961  0.82073587  1  0.097393  -0.001299  0.954815  -0.003  0.105687  -0.00101  1.016613  -0.002  0.108262  -0.00066  1.014598  -0.001  0.12234  0.103506  -0.0013  1.018401  -0.002
H  H8  1  0.97951340  0.21491236  0.17925602  1  0.097317  -0.001291  0.954963  -0.002  0.105651  -0.001009  1.0167  -0.002  0.10823  -0.00066  1.014681  -0.001  0.122316  0.103471  -0.001299  1.018482  -0.002
H  H9  1  0.88348175  0.12324646  0.68852345  1  0.081038  8e-05  0.978511  0.0  0.092214  -8.2e-05  1.041761  0.0  0.094266  -4.6e-05  1.041696  0.0  0.096025  0.090589  -0.000106  1.041903  0.0
H  H10  1  0.11660890  0.87668481  0.31143181  1  0.081123  8.4e-05  0.978379  0.0  0.092263  -8.2e-05  1.041663  0.0  0.094324  -4.6e-05  1.041571  0.0  0.096053  0.090634  -0.000106  1.041827  0.0
H  H11  1  0.69069159  0.16706626  0.29550984  1  0.080903  0.000118  0.978248  0.0  0.091774  -5.4e-05  1.043392  0.0  0.09376  -2.4e-05  1.043295  0.0  0.096851  0.090042  -6.7e-05  1.044287  0.0
H  H12  1  0.30924728  0.83293361  0.70450450  1  0.080959  0.000122  0.978339  0.0  0.091825  -5.4e-05  1.043466  0.0  0.093811  -2.4e-05  1.043368  0.0  0.09688  0.090103  -6.7e-05  1.044347  0.0
H  H13  1  0.61420900  0.39009076  0.20848814  1  0.139851  -0.000732  0.962537  -0.001  0.14599  -0.00067  1.025397  -0.001  0.149521  -0.000479  1.02359  -0.001  0.116414  0.143345  -0.000768  1.026651  -0.001
H  H14  1  0.38572735  0.60994442  0.79155260  1  0.139894  -0.000732  0.962611  -0.001  0.146056  -0.000669  1.025395  -0.001  0.149575  -0.000479  1.02358  -0.001  0.11644  0.143409  -0.000767  1.026649  -0.001
H  H15  1  0.47415030  0.13076282  0.89793755  1  0.101324  -0.000418  0.947402  0.0  0.115154  -0.000475  0.99998  0.0  0.11777  -0.000335  1.000101  0.0  0.108345  0.113548  -0.000577  0.99925  -0.001
H  H16  1  0.52587637  0.86920535  0.10210264  1  0.101306  -0.000421  0.947349  0.0  0.115002  -0.000475  1.000097  0.0  0.117614  -0.000335  1.000227  0.0  0.108282  0.113399  -0.000577  0.999363  -0.001
H  H17  1  0.04497779  0.89416196  0.04559314  1  0.096151  -0.00036  0.955933  0.0  0.108993  -0.000456  1.011245  0.0  0.111542  -0.00033  1.011752  0.0  0.105337  0.107693  -0.000545  1.009815  0.0
H  H18  1  0.95498444  0.10590918  0.95437817  1  0.095952  -0.000361  0.955964  0.0  0.108688  -0.000457  1.011429  0.0  0.111229  -0.00033  1.011939  0.0  0.105284  0.10739  -0.000545  1.010001  0.0
H  H19  1  0.74984164  0.56524283  0.24370860  1  0.147625  -0.000569  0.969549  -0.001  0.154501  -0.000538  1.028347  -0.001  0.15872  -0.000376  1.026249  -0.001  0.117959  0.150959  -0.000725  1.030856  -0.001
H  H20  1  0.25015521  0.43481783  0.75633909  1  0.147464  -0.000561  0.969674  -0.001  0.154403  -0.000538  1.028404  -0.001  0.158622  -0.000375  1.026307  -0.001  0.118014  0.150907  -0.000724  1.030856  -0.001
H  H21  1  0.80123945  0.87409925  0.71168440  1  0.089614  -8.8e-05  0.977286  0.0  0.09592  -1.5e-05  1.047238  0.0  0.098958  1.1e-05  1.045061  0.0  0.096982  0.093771  3e-06  1.048596  0.0
H  H22  1  0.19888261  0.12582137  0.28823964  1  0.08969  -8.7e-05  0.977325  0.0  0.095985  -1.5e-05  1.047205  0.0  0.099005  1.1e-05  1.045044  0.0  0.097001  0.093834  3e-06  1.048563  0.0
H  H23  1  0.60839598  0.91932256  0.32072800  1  0.08669  0.000208  0.96444  0.0  0.097078  0.000268  1.028085  0.0  0.099838  0.000196  1.026788  0.0  0.096901  0.094875  0.000363  1.02943  0.0
H  H24  1  0.39158398  0.08067385  0.67926103  1  0.086749  0.000209  0.964192  0.0  0.097142  0.000268  1.027825  0.0  0.099903  0.000196  1.026527  0.0  0.096929  0.094928  0.000363  1.029182  0.0
H  H25  1  0.46300416  0.18869673  0.14719634  1  0.105072  -0.000262  0.938589  0.0  0.11691  -9e-06  0.996034  0.0  0.119613  9e-06  0.993981  0.0  0.111423  0.114638  -4.8e-05  0.997838  0.0
H  H26  1  0.53696973  0.81133505  0.85283157  1  0.105079  -0.000257  0.938397  0.0  0.116928  -9e-06  0.99585  0.0  0.119602  9e-06  0.993838  0.0  0.111412  0.114656  -4.7e-05  0.997656  0.0
H  H27  1  0.90350375  0.77798939  0.26047741  1  0.109917  -0.000357  0.943366  -0.001  0.122314  -5.1e-05  0.999349  0.0  0.12505  -1.3e-05  0.997501  0.0  0.114166  0.120129  -0.000111  1.001128  0.0
H  H28  1  0.09653036  0.22205845  0.73950720  1  0.109993  -0.000352  0.94253  -0.001  0.122296  -5.1e-05  0.99862  0.0  0.12504  -1.3e-05  0.996779  0.0  0.114105  0.120099  -0.000111  1.000391  0.0
C  C29  1  0.79241591  0.16192195  0.49084013  1  -0.198678  -0.016403  3.725107  -0.017  -0.161193  -0.008256  3.960358  -0.009  -0.168686  -0.005212  3.980386  -0.006  -0.018254  -0.156583  -0.010409  3.94743  -0.011
C  C30  1  0.20758121  0.83806191  0.50915858  1  -0.198858  -0.016406  3.725898  -0.017  -0.16129  -0.008259  3.961028  -0.009  -0.168808  -0.005212  3.981085  -0.006  -0.018282  -0.156679  -0.010407  3.948091  -0.011
C  C31  1  0.70601940  0.44292224  0.99857285  1  0.166987  0.003903  3.764742  0.004  0.16558  -0.000374  4.007102  0.0  0.172812  0.000522  4.029194  0.001  0.117072  0.160903  -0.001014  3.99196  -0.001
C  C32  1  0.29393869  0.55711275  0.00145505  1  0.16677  0.00389  3.765171  0.004  0.165322  -0.000374  4.007661  0.0  0.172646  0.000523  4.029636  0.001  0.116879  0.160652  -0.001015  3.992485  -0.001
C  C33  1  0.62881119  0.30220358  0.83180736  1  0.149863  0.008303  3.666692  0.009  0.121486  0.001335  3.924653  0.003  0.131622  0.002142  3.941138  0.003  0.058271  0.11476  0.000699  3.913935  0.002
C  C34  1  0.37119576  0.69780310  0.16823288  1  0.149782  0.008291  3.667004  0.009  0.121655  0.001333  3.924682  0.003  0.131777  0.00214  3.941192  0.003  0.058422  0.114908  0.000696  3.913973  0.002
C  C35  1  0.96008375  0.74361438  0.91726058  1  0.129057  0.007934  3.695478  0.009  0.10369  0.001194  3.947385  0.003  0.113015  0.002093  3.964754  0.003  0.048168  0.097771  0.00048  3.935589  0.002
C  C36  1  0.03983893  0.25642913  0.08274710  1  0.129072  0.007922  3.69517  0.009  0.103666  0.001191  3.947166  0.003  0.112991  0.002091  3.964537  0.003  0.048265  0.097748  0.000477  3.935378  0.002
C  C37  1  0.79790466  0.56638157  0.02256385  1  0.167541  0.003959  3.770412  0.004  0.164798  -0.0002  4.016321  0.0  0.172149  0.000732  4.038119  0.001  0.116732  0.1596  -0.000805  4.001875  -0.001
C  C38  1  0.20205097  0.43366071  0.97746682  1  0.167698  0.003977  3.769887  0.004  0.164971  -0.000198  4.015909  0.0  0.172299  0.000733  4.037692  0.001  0.116802  0.159774  -0.000803  4.00147  -0.001
C  C39  1  0.82373190  0.07823063  0.60768477  1  -0.058603  -0.003868  3.770671  -0.003  -0.07971  -0.001705  4.015999  -0.002  -0.082577  -0.001128  4.039709  -0.001  -0.088423  -0.077251  -0.002116  3.999585  -0.002
C  C40  1  0.17633810  0.92171117  0.39227750  1  -0.058893  -0.003857  3.771063  -0.003  -0.079995  -0.001698  4.016381  -0.002  -0.082844  -0.001127  4.040077  -0.001  -0.088495  -0.077553  -0.002111  3.999971  -0.002
C  C41  1  0.71737397  0.10260867  0.38616908  1  -0.056084  -0.00475  3.763055  -0.004  -0.078069  -0.001917  4.010134  -0.002  -0.08067  -0.001282  4.032816  -0.001  -0.089065  -0.07721  -0.002506  3.996428  -0.002
C  C42  1  0.28259048  0.89737027  0.61383652  1  -0.055801  -0.004758  3.762457  -0.004  -0.077778  -0.001911  4.00945  -0.002  -0.080363  -0.00128  4.032122  -0.001  -0.088933  -0.076938  -0.0025  3.995752  -0.002
C  C43  1  0.61813811  0.36355646  0.10203136  1  -0.121184  -0.006306  3.636548  -0.007  -0.138949  -0.002298  3.880302  -0.002  -0.14561  -0.002152  3.899812  -0.002  -0.072228  -0.13445  -0.002559  3.867639  -0.003
C  C44  1  0.38180300  0.63647658  0.89799389  1  -0.121215  -0.00629  3.637089  -0.007  -0.138847  -0.002297  3.88071  -0.002  -0.145514  -0.002152  3.900164  -0.002  -0.072169  -0.134349  -0.002558  3.868041  -0.003
C  C45  1  0.53997091  0.21773058  0.93020372  1  -0.127588  -0.008857  3.736762  -0.01  -0.136894  -0.003569  3.979885  -0.004  -0.144522  -0.003162  4.000834  -0.004  -0.082472  -0.132323  -0.003947  3.965308  -0.005
C  C46  1  0.46001796  0.78227106  0.06984738  1  -0.127237  -0.00883  3.736805  -0.01  -0.136451  -0.003566  3.979835  -0.004  -0.144072  -0.003159  4.000772  -0.004  -0.082307  -0.131887  -0.003943  3.96527  -0.005
C  C47  1  0.97209626  0.80212565  0.04196935  1  -0.132026  -0.00947  3.742273  -0.01  -0.143466  -0.00384  3.990377  -0.005  -0.15158  -0.003302  4.011858  -0.004  -0.086891  -0.138418  -0.004135  3.975355  -0.005
C  C48  1  0.02785171  0.19793216  0.95802732  1  -0.131775  -0.009472  3.742246  -0.01  -0.143133  -0.003838  3.990338  -0.005  -0.151236  -0.0033  4.011807  -0.004  -0.086931  -0.138089  -0.004133  3.975328  -0.005
C  C49  1  0.80734820  0.61795605  0.15116224  1  -0.129138  -0.006606  3.639158  -0.007  -0.154131  -0.002226  3.898967  -0.003  -0.160696  -0.001992  3.914931  -0.003  -0.071624  -0.150963  -0.002411  3.89067  -0.003
C  C50  1  0.19263266  0.38210156  0.84885227  1  -0.128789  -0.006629  3.639354  -0.007  -0.153892  -0.002226  3.899258  -0.003  -0.160454  -0.001991  3.915224  -0.003  -0.071569  -0.150763  -0.00241  3.890937  -0.003
C  C51  1  0.77755387  0.94002197  0.62133475  1  -0.06485  0.002053  3.72795  0.002  -0.086915  0.00063  3.975932  0.001  -0.08634  0.000545  3.996649  0.001  -0.086325  -0.086923  0.000698  3.96167  0.001
C  C52  1  0.22256203  0.05990906  0.37858909  1  -0.064796  0.00204  3.727479  0.002  -0.086673  0.000626  3.97548  0.001  -0.086079  0.000544  3.996193  0.001  -0.086198  -0.086689  0.000694  3.961221  0.001
C  C53  1  0.67150537  0.96458901  0.39954197  1  -0.075039  0.001677  3.749912  0.001  -0.097317  0.00029  3.999451  0.0  -0.096857  0.00034  4.020901  0.0  -0.087749  -0.097461  0.000336  3.985745  0.0
C  C54  1  0.32850247  0.03539681  0.60043137  1  -0.075282  0.001687  3.749182  0.001  -0.097448  0.000287  3.99885  0.0  -0.096987  0.00034  4.020292  0.0  -0.087795  -0.097589  0.000335  3.985144  0.0
C  C55  1  0.53443981  0.24906442  0.06696492  1  0.000118  0.008573  3.705968  0.008  -0.018115  0.002675  3.952088  0.002  -0.013112  0.002723  3.968344  0.003  -0.065564  -0.021437  0.002706  3.941697  0.002
C  C56  1  0.46551361  0.75096027  0.93307520  1  -6.6e-05  0.008554  3.705481  0.008  -0.018372  0.002675  3.951632  0.002  -0.013341  0.002724  3.967877  0.003  -0.065581  -0.021702  0.002707  3.941259  0.002
C  C57  1  0.89484368  0.73801776  0.16041085  1  0.013933  0.008963  3.693359  0.008  -0.01013  0.003027  3.953074  0.003  -0.00414  0.003095  3.966867  0.003  -0.05968  -0.014144  0.002961  3.945104  0.002
C  C58  1  0.10513827  0.26205123  0.83959878  1  0.013563  0.008958  3.692849  0.008  -0.01028  0.003026  3.952473  0.003  -0.004303  0.003094  3.966273  0.003  -0.059675  -0.01427  0.00296  3.944502  0.002
C  C59  1  0.69946568  0.88219738  0.51819371  1  -0.053308  0.000551  3.740537  0.001  -0.029194  0.002384  3.963038  0.003  -0.03862  0.001815  3.98643  0.002  -0.017026  -0.023505  0.002352  3.947932  0.003
C  C60  1  0.30060901  0.11775474  0.48175939  1  -0.053155  0.000562  3.739944  0.001  -0.0295  0.002389  3.963002  0.003  -0.038927  0.001816  3.986382  0.002  -0.017257  -0.023802  0.002358  3.947878  0.003
C  C61  1  0.63981833  0.73680829  0.53861656  1  0.64906  -0.003467  3.882229  -0.007  0.610318  -0.000298  4.173184  -0.003  0.649532  -0.000684  4.163885  -0.003  0.203093  0.583324  8.7e-05  4.177693  -0.003
C  C62  1  0.36022851  0.26313781  0.46133702  1  0.64955  -0.003484  3.881879  -0.007  0.610999  -0.000301  4.172751  -0.003  0.650223  -0.000687  4.163434  -0.003  0.203359  0.584  8.4e-05  4.177271  -0.003
N  N63  1  0.71045806  0.41130474  0.86568453  1  -0.337001  -0.071929  3.316647  -0.091  -0.296719  -0.052812  3.6107  -0.071  -0.326103  -0.043232  3.631652  -0.062  -0.337401  -0.278056  -0.058628  3.59757  -0.076
N  N64  1  0.28951614  0.58869906  0.13435433  1  -0.336972  -0.07192  3.316048  -0.091  -0.296869  -0.052815  3.610213  -0.071  -0.326291  -0.043238  3.631153  -0.062  -0.337438  -0.278193  -0.058629  3.597076  -0.076
N  N65  1  0.87441917  0.62892609  0.90840219  1  -0.334802  -0.073443  3.32007  -0.094  -0.294983  -0.053626  3.613665  -0.073  -0.323097  -0.043426  3.632892  -0.063  -0.34003  -0.277253  -0.059054  3.602233  -0.077
N  N66  1  0.12551947  0.37111423  0.09162583  1  -0.3346  -0.073455  3.31917  -0.094  -0.294915  -0.053626  3.61295  -0.073  -0.323041  -0.043424  3.632194  -0.063  -0.340062  -0.27718  -0.059056  3.601536  -0.077
O  O67  1  0.64782429  0.66993311  0.65276514  1  -0.670035  -0.001069  2.038309  -0.002  -0.650641  -0.000576  2.326092  -0.001  -0.677732  -0.000771  2.309493  -0.001  -0.333685  -0.63004  -0.00023  2.336598  0.0
O  O68  1  0.35219571  0.33002354  0.34717965  1  -0.670351  -0.001062  2.038569  -0.002  -0.650957  -0.000578  2.32624  -0.001  -0.678041  -0.000773  2.309599  -0.001  -0.333737  -0.630365  -0.000233  2.3368  0.0
O  O69  1  0.70360243  0.42684113  0.41532390  1  -0.843339  0.064623  2.097873  0.081  -0.792694  0.043833  2.40048  0.06  -0.831938  0.035137  2.376457  0.05  -0.38653  -0.762068  0.047816  2.416173  0.063
O  O70  1  0.29644538  0.57310699  0.58459896  1  -0.843477  0.064692  2.097805  0.081  -0.792906  0.043869  2.400426  0.06  -0.832156  0.035165  2.376404  0.05  -0.386799  -0.762274  0.04785  2.416107  0.063
O  O71  1  0.89302239  0.38222917  0.61100654  1  -0.831484  -0.066124  2.079934  -0.089  -0.788497  -0.04083  2.395888  -0.059  -0.828427  -0.030972  2.373693  -0.047  -0.389993  -0.76027  -0.047638  2.410041  -0.066
O  O72  1  0.10691626  0.61779453  0.38900425  1  -0.831438  -0.066068  2.080507  -0.089  -0.788496  -0.040814  2.396433  -0.059  -0.828422  -0.030964  2.374237  -0.047  -0.389984  -0.760264  -0.047617  2.410571  -0.066
O  O73  1  0.99060567  0.34153176  0.35986247  1  -0.799869  -0.075611  2.073675  -0.102  -0.763058  -0.043036  2.383354  -0.062  -0.809642  -0.032757  2.366729  -0.05  -0.384132  -0.729189  -0.049842  2.393868  -0.069
O  O74  1  0.00949930  0.65839341  0.64021623  1  -0.799963  -0.075508  2.073547  -0.102  -0.763309  -0.043002  2.383539  -0.062  -0.809826  -0.032735  2.36679  -0.05  -0.384258  -0.729496  -0.049801  2.394131  -0.069
O  O75  1  0.57668609  0.68779506  0.43651939  1  -0.607657  0.093258  2.041534  0.118  -0.576272  0.0593  2.317028  0.084  -0.617839  0.046396  2.309719  0.069  -0.323586  -0.545072  0.065875  2.322014  0.09
O  O76  1  0.42336908  0.31216133  0.56342373  1  -0.607828  0.093256  2.041471  0.118  -0.576401  0.059297  2.316768  0.084  -0.617966  0.046393  2.309442  0.069  -0.323626  -0.545202  0.065868  2.32177  0.09
