# generated using pymatgen
data_AgH8C13SN3
_symmetry_space_group_name_H-M   'P 1'
_cell_length_a   4.45456543
_cell_length_b   10.26320556
_cell_length_c   12.15862255
_cell_angle_alpha   99.66503804
_cell_angle_beta   89.99932865
_cell_angle_gamma   90.00049591
_symmetry_Int_Tables_number   1
_chemical_formula_structural   AgH8C13SN3
_chemical_formula_sum   'Ag2 H16 C26 S2 N6'
_cell_volume   547.97941820
_cell_formula_units_Z   2
loop_
 _symmetry_equiv_pos_site_id
 _symmetry_equiv_pos_as_xyz
  1  'x, y, z'
loop_
 _atom_site_type_symbol
 _atom_site_label
 _atom_site_symmetry_multiplicity
 _atom_site_fract_x
 _atom_site_fract_y
 _atom_site_fract_z
 _atom_site_occupancy
 _atom_site_hle17_bader_spin_density
 _atom_site_hle17_ddec_charge
 _atom_site_hle17_ddec_spin_density
 _atom_site_hle17_ddec_sum_bond_order
 _atom_site_hle17_magmom
 _atom_site_hse06_10hf_bader_spin_density
 _atom_site_hse06_10hf_ddec_charge
 _atom_site_hse06_10hf_ddec_spin_density
 _atom_site_hse06_10hf_ddec_sum_bond_order
 _atom_site_hse06_10hf_magmom
 _atom_site_hse06_bader_spin_density
 _atom_site_hse06_ddec_charge
 _atom_site_hse06_ddec_spin_density
 _atom_site_hse06_ddec_sum_bond_order
 _atom_site_hse06_magmom
 _atom_site_pbe_bader_spin_density
 _atom_site_pbe_cm5_charge
 _atom_site_pbe_ddec_charge
 _atom_site_pbe_ddec_spin_density
 _atom_site_pbe_ddec_sum_bond_order
 _atom_site_pbe_magmom
Ag  Ag0  1  0.06937593  0.83531214  0.52692090  1  0  0.413346  0  1.769585  0  0  0.301529  0  2.250805  0  0  0.318393  0  2.213817  0  0  0.380015  0.288103  0  2.277724  0
Ag  Ag1  1  0.56937391  0.16469878  0.47308476  1  0  0.413293  0  1.769568  0  0  0.301476  0  2.250784  0  0  0.318332  0  2.213803  0  0  0.380014  0.28805  0  2.277706  0
H  H2  1  0.46679257  0.88844789  0.99884427  1  0  0.101381  0  0.947642  0  0  0.112052  0  1.01059  0  0  0.114416  0  1.009711  0  0  0.107444  0.110237  0  1.011399  0
H  H3  1  0.96680024  0.11155431  0.00115689  1  0  0.101418  0  0.947643  0  0  0.112073  0  1.010605  0  0  0.114438  0  1.009723  0  0  0.107455  0.110258  0  1.011416  0
H  H4  1  0.33302005  0.05030839  0.87044179  1  0  0.106526  0  0.967226  0  0  0.115981  0  1.029161  0  0  0.118226  0  1.029689  0  0  0.105332  0.114339  0  1.028887  0
H  H5  1  0.83302253  0.94969140  0.12955632  1  0  0.106504  0  0.967178  0  0  0.115964  0  1.029114  0  0  0.118208  0  1.029641  0  0  0.105335  0.114322  0  1.028839  0
H  H6  1  0.57988415  0.02711336  0.68545812  1  0  0.063129  0  0.970735  0  0  0.06971  0  1.044286  0  0  0.071673  0  1.042057  0  0  0.100717  0.067785  0  1.046673  0
H  H7  1  0.07986438  0.97288372  0.31454152  1  0  0.063085  0  0.970725  0  0  0.069669  0  1.044269  0  0  0.071625  0  1.042046  0  0  0.100695  0.067746  0  1.046655  0
H  H8  1  0.54964713  0.57939901  0.51362999  1  0  0.060906  0  0.968595  0  0  0.068122  0  1.040985  0  0  0.069993  0  1.039739  0  0  0.103219  0.066489  0  1.042149  0
H  H9  1  0.04964882  0.42059493  0.48636196  1  0  0.060936  0  0.968503  0  0  0.068129  0  1.040912  0  0  0.070017  0  1.039648  0  0  0.103248  0.066496  0  1.042074  0
H  H10  1  0.49123083  0.41295041  0.81557502  1  0  0.108402  0  0.937336  0  0  0.121163  0  0.994121  0  0  0.123392  0  0.993204  0  0  0.111531  0.119525  0  0.994822  0
H  H11  1  0.99122871  0.58705183  0.18442276  1  0  0.108332  0  0.937367  0  0  0.121131  0  0.994136  0  0  0.123361  0  0.993219  0  0  0.111496  0.119492  0  0.994837  0
H  H12  1  0.71268305  0.40821396  0.62662287  1  0  0.097351  0  0.976074  0  0  0.105087  0  1.045932  0  0  0.108245  0  1.044334  0  0  0.096599  0.102521  0  1.047668  0
H  H13  1  0.21268287  0.59179044  0.37337802  1  0  0.097359  0  0.976056  0  0  0.10509  0  1.045913  0  0  0.108244  0  1.04433  0  0  0.096593  0.102524  0  1.047651  0
H  H14  1  0.14638106  0.52278507  0.96545280  1  0  0.094634  0  0.967632  0  0  0.106444  0  1.031056  0  0  0.108473  0  1.031227  0  0  0.10441  0.104943  0  1.031137  0
H  H15  1  0.64638381  0.47721217  0.03454330  1  0  0.094575  0  0.967685  0  0  0.106385  0  1.031117  0  0  0.108413  0  1.031289  0  0  0.104388  0.104882  0  1.031199  0
H  H16  1  0.77414040  0.69977656  0.03341809  1  0  0.107296  0  0.980518  0  0  0.114505  0  1.049721  0  0  0.118159  0  1.046801  0  0  0.102492  0.111869  0  1.051721  0
H  H17  1  0.27413537  0.30022110  0.96658163  1  0  0.107287  0  0.980613  0  0  0.114511  0  1.049798  0  0  0.118146  0  1.046898  0  0  0.102489  0.111875  0  1.051801  0
C  C18  1  0.57141011  0.88367760  0.91714447  1  0  -0.057298  0  3.686506  0  0  -0.080789  0  3.935606  0  0  -0.078763  0  3.954018  0  0  -0.067347  -0.081837  0  3.922845  0
C  C19  1  0.07141196  0.11632144  0.08285630  1  0  -0.057263  0  3.686565  0  0  -0.08076  0  3.935689  0  0  -0.078731  0  3.954099  0  0  -0.067324  -0.081812  0  3.922933  0
C  C20  1  0.91167800  0.77765499  0.77325285  1  0  0.128286  0  3.744941  0  0  0.124561  0  3.977734  0  0  0.128569  0  3.999621  0  0  0.115733  0.121873  0  3.962806  0
C  C21  1  0.41167061  0.22234803  0.22674784  1  0  0.128189  0  3.745104  0  0  0.124476  0  3.977879  0  0  0.128482  0  3.999767  0  0  0.115686  0.12179  0  3.962944  0
C  C22  1  0.54315614  0.79971798  0.29743052  1  0  0.256661  0  3.959636  0  0  0.250994  0  4.257166  0  0  0.266037  0  4.273752  0  0  0.130119  0.240927  0  4.243888  0
C  C23  1  0.04319129  0.20027799  0.70256831  1  0  0.256408  0  3.959703  0  0  0.250737  0  4.257251  0  0  0.265782  0  4.273844  0  0  0.129984  0.240669  0  4.243968  0
C  C24  1  0.21058133  0.58360588  0.80469892  1  0  0.019449  0  3.793763  0  0  0.037392  0  4.020082  0  0  0.034391  0  4.045296  0  0  -0.004426  0.039446  0  4.00363  0
C  C25  1  0.71057541  0.41639452  0.19529816  1  0  0.019458  0  3.793654  0  0  0.037478  0  4.01989  0  0  0.034473  0  4.045105  0  0  -0.004404  0.039527  0  4.003441  0
C  C26  1  0.12841377  0.67499258  0.73384046  1  0  0.127297  0  3.746449  0  0  0.123852  0  3.979126  0  0  0.127956  0  4.00088  0  0  0.115399  0.120763  0  3.96457  0
C  C27  1  0.62840596  0.32501151  0.26615581  1  0  0.12718  0  3.746479  0  0  0.12374  0  3.979071  0  0  0.127843  0  4.000828  0  0  0.11535  0.120646  0  3.964515  0
C  C28  1  0.78545300  0.78383591  0.88152931  1  0  0.02576  0  3.79065  0  0  0.042584  0  4.01854  0  0  0.039782  0  4.043779  0  0  -0.002451  0.044546  0  4.001105  0
C  C29  1  0.28545123  0.21616676  0.11847433  1  0  0.025728  0  3.790674  0  0  0.042566  0  4.018534  0  0  0.039762  0  4.043769  0  0  -0.002448  0.044528  0  4.001101  0
C  C30  1  0.49637451  0.97167968  0.84733280  1  0  -0.107061  0  3.717684  0  0  -0.121132  0  3.970304  0  0  -0.127231  0  3.991574  0  0  -0.082918  -0.117135  0  3.955988  0
C  C31  1  0.99637560  0.02832062  0.15266799  1  0  -0.107093  0  3.71769  0  0  -0.121176  0  3.970297  0  0  -0.127277  0  3.991568  0  0  -0.082974  -0.11718  0  3.955981  0
C  C32  1  0.63479137  0.95872012  0.74219568  1  0  0.149131  0  3.695011  0  0  0.117804  0  3.953757  0  0  0.125343  0  3.969962  0  0  0.04961  0.112631  0  3.943163  0
C  C33  1  0.13478830  0.04127813  0.25780636  1  0  0.149159  0  3.694907  0  0  0.117871  0  3.953614  0  0  0.125414  0  3.969823  0  0  0.049644  0.112696  0  3.943019  0
C  C34  1  0.45286641  0.57719506  0.59580680  1  0  0.129591  0  3.729604  0  0  0.100281  0  3.987897  0  0  0.107655  0  4.004317  0  0  0.045307  0.096288  0  3.976342  0
C  C35  1  0.95286734  0.42280011  0.40418690  1  0  0.129611  0  3.729595  0  0  0.100314  0  3.987895  0  0  0.10768  0  4.004307  0  0  0.045335  0.096318  0  3.976334  0
C  C36  1  0.42379371  0.48535030  0.76435426  1  0  -0.033308  0  3.676406  0  0  -0.057628  0  3.92034  0  0  -0.055525  0  3.940266  0  0  -0.059944  -0.05938  0  3.907257  0
C  C37  1  0.92379520  0.51464972  0.23564022  1  0  -0.033295  0  3.676276  0  0  -0.0577  0  3.920223  0  0  -0.055595  0  3.940151  0  0  -0.059968  -0.059451  0  3.907139  0
C  C38  1  0.54641564  0.48242150  0.65956820  1  0  -0.125589  0  3.744138  0  0  -0.140116  0  4.002449  0  0  -0.146982  0  4.023871  0  0  -0.091342  -0.136138  0  3.988532  0
C  C39  1  0.04641503  0.51757840  0.34042785  1  0  -0.125558  0  3.744052  0  0  -0.140062  0  4.00237  0  0  -0.14694  0  4.023796  0  0  -0.091296  -0.136086  0  3.988453  0
C  C40  1  0.07942660  0.59419231  0.91315376  1  0  -0.089924  0  3.736133  0  0  -0.111843  0  3.988091  0  0  -0.114688  0  4.010796  0  0  -0.081994  -0.110034  0  3.973159  0
C  C41  1  0.57942397  0.40581067  0.08684421  1  0  -0.089852  0  3.736002  0  0  -0.111804  0  3.98795  0  0  -0.114648  0  4.01065  0  0  -0.081963  -0.109992  0  3.97302  0
C  C42  1  0.87524647  0.69073959  0.95053469  1  0  -0.109127  0  3.736903  0  0  -0.130632  0  3.99007  0  0  -0.13379  0  4.01199  0  0  -0.087121  -0.128251  0  3.974955  0
C  C43  1  0.37524207  0.30925835  0.04946300  1  0  -0.109098  0  3.736847  0  0  -0.13061  0  3.989996  0  0  -0.133752  0  4.011925  0  0  -0.087111  -0.128219  0  3.974856  0
S  S44  1  0.56898422  0.85765205  0.43265562  1  0  -0.35812  0  2.756697  0  0  -0.310159  0  3.238367  0  0  -0.322156  0  3.214013  0  0  -0.181061  -0.299165  0  3.254784  0
S  S45  1  0.06899563  0.14236583  0.56735426  1  0  -0.357911  0  2.757158  0  0  -0.30995  0  3.238826  0  0  -0.321951  0  3.214493  0  0  -0.18105  -0.29896  0  3.255243  0
N  N46  1  0.83600705  0.86555753  0.70628105  1  0  -0.317203  0  3.245614  0  0  -0.255363  0  3.521897  0  0  -0.270471  0  3.537688  0  0  -0.328909  -0.245125  0  3.510913  0
N  N47  1  0.33600470  0.13444427  0.29371979  1  0  -0.317155  0  3.245566  0  0  -0.255369  0  3.521869  0  0  -0.270478  0  3.537661  0  0  -0.328909  -0.245129  0  3.510881  0
N  N48  1  0.52049518  0.76200195  0.20044494  1  0  -0.468812  0  2.602947  0  0  -0.439194  0  2.823785  0  0  -0.451544  0  2.836229  0  0  -0.348585  -0.4296  0  2.814017  0
N  N49  1  0.02050327  0.23798528  0.79957338  1  0  -0.468764  0  2.602483  0  0  -0.439145  0  2.82331  0  0  -0.451494  0  2.835753  0  0  -0.348487  -0.429549  0  2.813538  0
N  N50  1  0.24865157  0.66934362  0.63076531  1  0  -0.322699  0  3.245668  0  0  -0.265193  0  3.526189  0  0  -0.279539  0  3.540953  0  0  -0.331822  -0.255603  0  3.515544  0
N  N51  1  0.74864953  0.33065291  0.36922779  1  0  -0.322538  0  3.245601  0  0  -0.265042  0  3.526131  0  0  -0.279368  0  3.540852  0  0  -0.331786  -0.255459  0  3.51551  0
