# generated using pymatgen
data_Cu2H15C24I2(NO2)3
_symmetry_space_group_name_H-M   'P 1'
_cell_length_a   7.85720282
_cell_length_b   16.53462363
_cell_length_c   17.65800000
_cell_angle_alpha   112.75676296
_cell_angle_beta   90.00000000
_cell_angle_gamma   103.74526411
_symmetry_Int_Tables_number   1
_chemical_formula_structural   Cu2H15C24I2(NO2)3
_chemical_formula_sum   'Cu4 H30 C48 I4 N6 O12'
_cell_volume   2044.04533333
_cell_formula_units_Z   2
loop_
 _symmetry_equiv_pos_site_id
 _symmetry_equiv_pos_as_xyz
  1  'x, y, z'
loop_
 _atom_site_type_symbol
 _atom_site_label
 _atom_site_symmetry_multiplicity
 _atom_site_fract_x
 _atom_site_fract_y
 _atom_site_fract_z
 _atom_site_occupancy
 _atom_site_hle17_bader_spin_density
 _atom_site_hle17_ddec_charge
 _atom_site_hle17_ddec_spin_density
 _atom_site_hle17_ddec_sum_bond_order
 _atom_site_hle17_magmom
 _atom_site_hse06_10hf_bader_spin_density
 _atom_site_hse06_10hf_ddec_charge
 _atom_site_hse06_10hf_ddec_spin_density
 _atom_site_hse06_10hf_ddec_sum_bond_order
 _atom_site_hse06_10hf_magmom
 _atom_site_hse06_bader_spin_density
 _atom_site_hse06_ddec_charge
 _atom_site_hse06_ddec_spin_density
 _atom_site_hse06_ddec_sum_bond_order
 _atom_site_hse06_magmom
 _atom_site_pbe_bader_charge
 _atom_site_pbe_bader_spin_density
 _atom_site_pbe_cm5_charge
 _atom_site_pbe_ddec_charge
 _atom_site_pbe_ddec_spin_density
 _atom_site_pbe_ddec_sum_bond_order
 _atom_site_pbe_magmom
Cu  Cu0  1  0.94509028  0.97141480  0.72161861  1  0  0.290408  0  2.210844  0  0  0.191897  0  2.705741  0  0  0.185896  0  2.663231  0  0.537329  0  0.375431  0.20088  0  2.72961  0
Cu  Cu1  1  0.97269378  0.02858751  0.27853231  1  0  0.290221  0  2.209592  0  0  0.191442  0  2.704527  0  0  0.185389  0  2.662011  0  0.536914  0  0.37516  0.200366  0  2.728377  0
Cu  Cu2  1  0.08908859  0.03931742  0.86687117  1  0  0.290185  0  2.072464  0  0  0.196135  0  2.5565  0  0  0.21366  0  2.496216  0  0.401674  0  0.277978  0.187973  0  2.594649  0
Cu  Cu3  1  0.04867583  0.96064281  0.13325544  1  0  0.290527  0  2.074169  0  0  0.196425  0  2.558395  0  0  0.213974  0  2.498043  0  0.408047  0  0.278073  0.188217  0  2.596542  0
H  H4  1  0.80918673  0.38872828  0.56866208  1  0  0.148852  0  0.90669  0  0  0.161885  0  0.957243  0  0  0.165823  0  0.955323  0  0.1292  0  0.123197  0.159035  0  0.958767  0
H  H5  1  0.41987767  0.61131476  0.43161458  1  0  0.148986  0  0.907323  0  0  0.162278  0  0.957554  0  0  0.166188  0  0.95567  0  0.125082  0  0.123058  0.159411  0  0.959088  0
H  H6  1  0.57695320  0.14866634  0.34926934  1  0  0.142893  0  0.940157  0  0  0.148775  0  1.009738  0  0  0.153192  0  1.007011  0  0.172836  0  0.110814  0.145415  0  1.011941  0
H  H7  1  0.42612637  0.85141267  0.65070208  1  0  0.143409  0  0.94101  0  0  0.149207  0  1.010587  0  0  0.153636  0  1.00789  0  0.077592  0  0.110571  0.145834  0  1.012787  0
H  H8  1  0.57375209  0.41290722  0.35952665  1  0  0.150048  0  0.911806  0  0  0.16309  0  0.962018  0  0  0.166875  0  0.960134  0  0.105829  0  0.12287  0.160359  0  0.963518  0
H  H9  1  0.16002639  0.58710731  0.64067456  1  0  0.150134  0  0.912134  0  0  0.163082  0  0.96242  0  0  0.166842  0  0.960583  0  0.100487  0  0.122481  0.160365  0  0.9639  0
H  H10  1  0.03171737  0.71109174  0.47205719  1  0  0.120993  0  0.937378  0  0  0.129689  0  0.995312  0  0  0.133326  0  0.993634  0  0.130364  0  0.114698  0.127106  0  0.996644  0
H  H11  1  0.32101677  0.28884066  0.52775522  1  0  0.1208  0  0.936265  0  0  0.129051  0  0.995017  0  0  0.132684  0  0.993342  0  0.141666  0  0.114363  0.12648  0  0.996353  0
H  H12  1  0.08421015  0.87108190  0.57429212  1  0  0.085388  0  0.943394  0  0  0.090437  0  1.01323  0  0  0.093863  0  1.00963  0  0.125835  0  0.110385  0.087835  0  1.016007  0
H  H13  1  0.21332563  0.12884167  0.42550068  1  0  0.085004  0  0.943686  0  0  0.090108  0  1.013463  0  0  0.093518  0  1.009916  0  0.143745  0  0.110577  0.087601  0  1.0161  0
H  H14  1  0.73468301  0.79499786  0.72605407  1  0  0.087005  0  0.968598  0  0  0.091432  0  1.03874  0  0  0.095008  0  1.035533  0  0.122656  0  0.105646  0.08869  0  1.041277  0
H  H15  1  0.93977035  0.20505060  0.27388873  1  0  0.087211  0  0.969152  0  0  0.091528  0  1.03951  0  0  0.095089  0  1.036328  0  0.125165  0  0.105804  0.088763  0  1.042056  0
H  H16  1  0.67794477  0.63116997  0.63327345  1  0  0.126371  0  0.927977  0  0  0.135767  0  0.984728  0  0  0.139461  0  0.982865  0  0.121714  0  0.117841  0.133137  0  0.986235  0
H  H17  1  0.04671061  0.36883641  0.36676680  1  0  0.125813  0  0.929117  0  0  0.134659  0  0.986594  0  0  0.138296  0  0.984764  0  0.092862  0  0.117505  0.13206  0  0.988088  0
H  H18  1  0.98903786  0.15975463  0.54683587  1  0  0.113462  0  0.953277  0  0  0.12159  0  1.016551  0  0  0.124617  0  1.015599  0  0.085579  0  0.110327  0.1194  0  1.017473  0
H  H19  1  0.82731866  0.84011872  0.45315053  1  0  0.111974  0  0.954856  0  0  0.119892  0  1.018242  0  0  0.122892  0  1.017339  0  0.124681  0  0.10973  0.117705  0  1.019149  0
H  H20  1  0.10468572  0.08458149  0.62711612  1  0  0.082141  0  0.949621  0  0  0.088306  0  1.014683  0  0  0.092215  0  1.011025  0  0.088462  0  0.10647  0.085397  0  1.01744  0
H  H21  1  0.01860154  0.91537874  0.37308581  1  0  0.082205  0  0.950217  0  0  0.088337  0  1.0153  0  0  0.092239  0  1.011657  0  0.101764  0  0.106256  0.085419  0  1.018056  0
H  H22  1  0.60672935  0.99357713  0.68783270  1  0  0.074752  0  0.985837  0  0  0.07951  0  1.059822  0  0  0.083548  0  1.055909  0  0.090392  0  0.092955  0.076363  0  1.062945  0
H  H23  1  0.61188002  0.00623241  0.31190067  1  0  0.074079  0  0.987275  0  0  0.078857  0  1.061412  0  0  0.082924  0  1.057426  0  0.092917  0  0.093014  0.075699  0  1.064568  0
H  H24  1  0.46925996  0.06172003  0.60807206  1  0  0.114842  0  0.957858  0  0  0.122455  0  1.021119  0  0  0.126414  0  1.018999  0  0.090721  0  0.102847  0.119573  0  1.022709  0
H  H25  1  0.40597140  0.93820897  0.39160831  1  0  0.113868  0  0.959305  0  0  0.121253  0  1.022576  0  0  0.125199  0  1.020475  0  0.1129  0  0.102208  0.118423  0  1.024121  0
H  H26  1  0.19567531  0.17959559  0.17958087  1  0  0.11429  0  0.956584  0  0  0.120308  0  1.024808  0  0  0.12368  0  1.022813  0  0.115544  0  0.109193  0.117808  0  1.02658  0
H  H27  1  0.01477791  0.82065244  0.82053219  1  0  0.114983  0  0.956635  0  0  0.120318  0  1.025628  0  0  0.123672  0  1.02364  0  0.10818  0  0.1097  0.117847  0  1.027326  0
H  H28  1  0.01678772  0.10556481  0.04260755  1  0  0.078918  0  0.956531  0  0  0.082445  0  1.028125  0  0  0.085872  0  1.025222  0  0.125722  0  0.103419  0.079782  0  1.030472  0
H  H29  1  0.91001390  0.89458004  0.95756385  1  0  0.079454  0  0.956565  0  0  0.083688  0  1.02746  0  0  0.087117  0  1.02456  0  0.109216  0  0.104117  0.081021  0  1.029809  0
H  H30  1  0.46324657  0.08604898  0.91771958  1  0  0.079273  0  0.986506  0  0  0.084297  0  1.05655  0  0  0.087738  0  1.053866  0  0.127338  0  0.092532  0.081506  0  1.05892  0
H  H31  1  0.37609958  0.91402325  0.08230035  1  0  0.079119  0  0.986504  0  0  0.084036  0  1.056535  0  0  0.087366  0  1.053986  0  0.121915  0  0.092823  0.081302  0  1.058862  0
H  H32  1  0.66121280  0.15866318  0.05025580  1  0  0.119614  0  0.93789  0  0  0.126836  0  0.999106  0  0  0.131058  0  0.996596  0  0.110834  0  0.111508  0.123716  0  1.001155  0
H  H33  1  0.50131529  0.84143348  0.94970785  1  0  0.118825  0  0.937552  0  0  0.126481  0  0.998346  0  0  0.130657  0  0.995881  0  0.110542  0  0.111827  0.123352  0  1.000413  0
C  C34  1  0.69642229  0.41038086  0.46858269  1  0  0.322723  0  3.787337  0  0  0.313195  0  4.058934  0  0  0.323746  0  4.076409  0  0.428992  0  0.088857  0.305909  0  4.047192  0
C  C35  1  0.28535352  0.58962485  0.53162721  1  0  0.322039  0  3.788469  0  0  0.312548  0  4.060086  0  0  0.323007  0  4.077633  0  0.42636  0  0.088098  0.305521  0  4.047993  0
C  C36  1  0.74193400  0.35747933  0.50643500  1  0  -0.269138  0  3.693186  0  0  -0.30867  0  3.954554  0  0  -0.315819  0  3.971818  0  -0.007732  0  -0.099293  -0.303771  0  3.942964  0
C  C37  1  0.38360221  0.64257592  0.49377586  1  0  -0.270839  0  3.694943  0  0  -0.310352  0  3.956258  0  0  -0.317451  0  3.973551  0  -0.055154  0  -0.099666  -0.305512  0  3.944603  0
C  C38  1  0.69987268  0.26387774  0.46254507  1  0  0.306901  0  3.80523  0  0  0.300891  0  4.070087  0  0  0.310959  0  4.087888  0  0.397777  0  0.084396  0.294051  0  4.058076  0
C  C39  1  0.43459963  0.73619855  0.53754939  1  0  0.31001  0  3.801263  0  0  0.303673  0  4.067258  0  0  0.313815  0  4.084945  0  0.469112  0  0.084691  0.296799  0  4.055311  0
C  C40  1  0.61231313  0.22202107  0.38329137  1  0  -0.259734  0  3.691697  0  0  -0.296938  0  3.951013  0  0  -0.303792  0  3.968237  0  0.049829  0  -0.097147  -0.292638  0  3.940124  0
C  C41  1  0.38861165  0.77804505  0.61675183  1  0  -0.262455  0  3.691976  0  0  -0.299666  0  3.951157  0  0  -0.30651  0  3.968396  0  0.104809  0  -0.097365  -0.295357  0  3.940334  0
C  C42  1  0.56831663  0.27768313  0.34837745  1  0  0.319719  0  3.788836  0  0  0.312161  0  4.054652  0  0  0.323326  0  4.071219  0  0.400874  0  0.088971  0.304601  0  4.04344  0
C  C43  1  0.28916693  0.72234565  0.65167941  1  0  0.319134  0  3.78909  0  0  0.312377  0  4.053609  0  0  0.323342  0  4.070387  0  0.433092  0  0.08784  0.304795  0  4.042518  0
C  C44  1  0.60928121  0.37171302  0.38914411  1  0  -0.273016  0  3.703915  0  0  -0.313569  0  3.966617  0  0  -0.320587  0  3.98388  0  0.055629  0  -0.100808  -0.308783  0  3.955023  0
C  C45  1  0.23656131  0.62828115  0.61100498  1  0  -0.272054  0  3.704494  0  0  -0.312482  0  3.966264  0  0  -0.319399  0  3.983643  0  0.062896  0  -0.098615  -0.307794  0  3.95457  0
C  C46  1  0.82420148  0.56325689  0.48402458  1  0  0.578955  0  3.785359  0  0  0.532095  0  4.087513  0  0  0.565826  0  4.0756  0  1.449284  0  0.237584  0.508689  0  4.095649  0
C  C47  1  0.26071570  0.43669858  0.51608275  1  0  0.579708  0  3.786773  0  0  0.530337  0  4.088155  0  0  0.563903  0  4.076419  0  1.455736  0  0.236665  0.507002  0  4.096215  0
C  C48  1  0.63495978  0.16079993  0.52839129  1  0  0.59105  0  3.77883  0  0  0.541295  0  4.077115  0  0  0.575971  0  4.0635  0  1.433244  0  0.241214  0.516977  0  4.086872  0
C  C49  1  0.47230496  0.83901029  0.47137177  1  0  0.591711  0  3.779657  0  0  0.543833  0  4.076322  0  0  0.578507  0  4.062642  0  1.458496  0  0.242244  0.519509  0  4.086144  0
C  C50  1  0.56369642  0.22356322  0.20322644  1  0  0.595054  0  3.767988  0  0  0.54574  0  4.063037  0  0  0.579638  0  4.050912  0  1.460635  0  0.241792  0.522211  0  4.071499  0
C  C51  1  0.33873631  0.77660675  0.79679095  1  0  0.597197  0  3.764393  0  0  0.548845  0  4.057972  0  0  0.582729  0  4.045778  0  1.492951  0  0.244753  0.525309  0  4.066516  0
C  C52  1  0.84984772  0.65823637  0.54437633  1  0  -0.025418  0  3.768697  0  0  -0.022933  0  4.027769  0  0  -0.026047  0  4.048658  0  0.023082  0  -0.007695  -0.020663  0  4.013673  0
C  C53  1  0.19169813  0.34174015  0.45559874  1  0  -0.03301  0  3.781255  0  0  -0.021036  0  4.026447  0  0  -0.024046  0  4.047251  0  0.012585  0  -0.006739  -0.018818  0  4.012399  0
C  C54  1  0.96311560  0.72713637  0.52745249  1  0  -0.112478  0  3.707397  0  0  -0.133167  0  3.960152  0  0  -0.137822  0  3.981141  0  -0.055084  0  -0.074513  -0.130156  0  3.946101  0
C  C55  1  0.23624663  0.27281096  0.47239648  1  0  -0.110647  0  3.709436  0  0  -0.133998  0  3.959952  0  0  -0.138661  0  3.980923  0  -0.054712  0  -0.075283  -0.131025  0  3.945972  0
C  C56  1  0.99136785  0.81620449  0.58389674  1  0  0.11516  0  3.671386  0  0  0.084415  0  3.929383  0  0  0.090208  0  3.943802  0  0.475035  0  0.038007  0.080557  0  3.920154  0
C  C57  1  0.17537302  0.18375234  0.41595001  1  0  0.114725  0  3.671197  0  0  0.083682  0  3.929824  0  0  0.089469  0  3.944231  0  0.453562  0  0.036396  0.079751  0  3.92063  0
C  C58  1  0.79961244  0.77332764  0.66965351  1  0  0.113563  0  3.666164  0  0  0.086337  0  3.918411  0  0  0.091934  0  3.932152  0  0.488621  0  0.039843  0.082573  0  3.909907  0
C  C59  1  0.02636432  0.22668961  0.33028591  1  0  0.114686  0  3.665473  0  0  0.086994  0  3.918474  0  0  0.092609  0  3.932182  0  0.489999  0  0.039773  0.08323  0  3.909992  0
C  C60  1  0.76787498  0.68211530  0.61750226  1  0  -0.106778  0  3.681931  0  0  -0.13179  0  3.939404  0  0  -0.134886  0  3.958175  0  -0.049145  0  -0.07465  -0.13  0  3.927013  0
C  C61  1  0.08580791  0.31789244  0.38247619  1  0  -0.103958  0  3.685424  0  0  -0.131271  0  3.940438  0  0  -0.134323  0  3.959168  0  -0.019043  0  -0.074652  -0.129535  0  3.928112  0
C  C62  1  0.71855800  0.11649495  0.57112654  1  0  -0.035621  0  3.782271  0  0  -0.020156  0  4.021588  0  0  -0.023101  0  4.041706  0  -0.044758  0  -0.006068  -0.01802  0  4.00821  0
C  C63  1  0.60029434  0.88337297  0.42869027  1  0  -0.034736  0  3.781028  0  0  -0.021456  0  4.021991  0  0  -0.024276  0  4.041939  0  0.015521  0  -0.007865  -0.019401  0  4.008737  0
C  C64  1  0.89960887  0.12256649  0.57630567  1  0  -0.107014  0  3.696103  0  0  -0.131121  0  3.943551  0  0  -0.134496  0  3.963505  0  0.027174  0  -0.074183  -0.129287  0  3.930573  0
C  C65  1  0.77527356  0.87733468  0.42363532  1  0  -0.1046  0  3.698911  0  0  -0.127534  0  3.946278  0  0  -0.130926  0  3.96623  0  -0.059083  0  -0.072863  -0.125681  0  3.933299  0
C  C66  1  0.96454379  0.08086254  0.62065581  1  0  0.113231  0  3.6754  0  0  0.088447  0  3.919229  0  0  0.093086  0  3.93487  0  0.475511  0  0.040427  0.085349  0  3.90947  0
C  C67  1  0.88214456  0.91907529  0.37939076  1  0  0.111947  0  3.677585  0  0  0.087042  0  3.921461  0  0  0.091613  0  3.937083  0  0.480464  0  0.04074  0.083927  0  3.91167  0
C  C68  1  0.68603044  0.02904772  0.65394648  1  0  0.117688  0  3.67165  0  0  0.08868  0  3.920437  0  0  0.094398  0  3.934276  0  0.471977  0  0.033426  0.084721  0  3.912205  0
C  C69  1  0.65559005  0.97083649  0.34589152  1  0  0.117096  0  3.671883  0  0  0.087998  0  3.920687  0  0  0.093655  0  3.934526  0  0.470592  0  0.03285  0.083995  0  3.912443  0
C  C70  1  0.61041028  0.06779497  0.61035685  1  0  -0.104019  0  3.710936  0  0  -0.126466  0  3.954047  0  0  -0.130935  0  3.974524  0  0.048156  0  -0.07783  -0.123848  0  3.940924  0
C  C71  1  0.54099620  0.93206887  0.38940808  1  0  -0.102148  0  3.707879  0  0  -0.123403  0  3.951172  0  0  -0.127896  0  3.971629  0  -0.008577  0  -0.07595  -0.120822  0  3.938065  0
C  C72  1  0.44412072  0.17685066  0.12534221  1  0  -0.018756  0  3.757429  0  0  -0.002651  0  3.992831  0  0  -0.005341  0  4.0129  0  -0.134782  0  1.2e-05  -0.000902  0  3.97974  0
C  C73  1  0.26593896  0.82330301  0.87470439  1  0  -0.019235  0  3.759564  0  0  -0.003554  0  3.995154  0  0  -0.006277  0  4.0152  0  -0.055827  0  -0.000811  -0.001796  0  3.982086  0
C  C74  1  0.26050243  0.16063770  0.12318303  1  0  -0.111433  0  3.698636  0  0  -0.136496  0  3.950677  0  0  -0.139676  0  3.968153  0  0.035142  0  -0.076015  -0.134982  0  3.939896  0
C  C75  1  0.09858876  0.83956417  0.87691105  1  0  -0.112239  0  3.700468  0  0  -0.136631  0  3.953036  0  0  -0.139775  0  3.970465  0  0.004549  0  -0.076439  -0.135143  0  3.942313  0
C  C76  1  0.16016794  0.11964509  0.04688359  1  0  0.1188  0  3.675395  0  0  0.093359  0  3.921362  0  0  0.098875  0  3.937856  0  0.445417  0  0.04213  0.089426  0  3.911259  0
C  C77  1  0.03928620  0.88049297  0.95324740  1  0  0.118779  0  3.676887  0  0  0.092447  0  3.922771  0  0  0.097986  0  3.939209  0  0.478743  0  0.041151  0.088461  0  3.912687  0
C  C78  1  0.40987265  0.10810203  0.97726934  1  0  0.124187  0  3.65968  0  0  0.098316  0  3.900737  0  0  0.103927  0  3.918107  0  0.423842  0  0.040589  0.094428  0  3.889904  0
C  C79  1  0.30062689  0.89200481  0.02277446  1  0  0.123697  0  3.659717  0  0  0.097857  0  3.900839  0  0  0.103561  0  3.918227  0  0.44812  0  0.039113  0.093878  0  3.889929  0
C  C80  1  0.51925192  0.14877562  0.05069470  1  0  -0.100403  0  3.692598  0  0  -0.122626  0  3.935291  0  0  -0.12706  0  3.955206  0  0.07712  0  -0.070961  -0.120108  0  3.922655  0
C  C81  1  0.36925134  0.85134683  0.94931115  1  0  -0.09886  0  3.690361  0  0  -0.121464  0  3.932999  0  0  -0.125816  0  3.952874  0  0.042172  0  -0.070608  -0.118944  0  3.920373  0
I  I82  1  0.75845179  0.98899140  0.85407577  1  0  -0.441946  0  1.392568  0  0  -0.387474  0  1.785483  0  0  -0.409703  0  1.75137  0  -0.447571  0  -0.222676  -0.370638  0  1.806718  0
I  I83  1  0.76879176  0.01127156  0.14595945  1  0  -0.442009  0  1.391949  0  0  -0.387397  0  1.784794  0  0  -0.409624  0  1.750657  0  -0.45261  0  -0.222773  -0.370576  0  1.806036  0
I  I84  1  0.29086888  0.04143991  0.75407557  1  0  -0.463555  0  1.444884  0  0  -0.414317  0  1.838332  0  0  -0.435659  0  1.803133  0  -0.4624  0  -0.229751  -0.397708  0  1.860046  0
I  I85  1  0.24801835  0.95814699  0.24587165  1  0  -0.463303  0  1.445878  0  0  -0.414049  0  1.83928  0  0  -0.435427  0  1.804072  0  -0.4622  0  -0.229652  -0.397446  0  1.861031  0
N  N86  1  0.90973765  0.83984450  0.65371040  1  0  -0.24742  0  3.350996  0  0  -0.178941  0  3.645712  0  0  -0.185084  0  3.650846  0  -1.210774  0  -0.359962  -0.176038  0  3.64233  0
N  N87  1  0.06987199  0.16013067  0.34619736  1  0  -0.247421  0  3.350633  0  0  -0.178426  0  3.644764  0  0  -0.184571  0  3.649902  0  -1.216907  0  -0.357904  -0.175495  0  3.641354  0
N  N88  1  0.86051197  0.03518374  0.65990839  1  0  -0.244709  0  3.344037  0  0  -0.173441  0  3.630953  0  0  -0.17959  0  3.637188  0  -1.218312  0  -0.355654  -0.170838  0  3.627175  0
N  N89  1  0.82397448  0.96475069  0.34007579  1  0  -0.243853  0  3.343901  0  0  -0.17289  0  3.631484  0  0  -0.178866  0  3.637517  0  -1.208727  0  -0.355822  -0.170178  0  3.627579  0
N  N90  1  0.23286672  0.09435162  0.97475792  1  0  -0.246461  0  3.351516  0  0  -0.169115  0  3.632096  0  0  -0.182308  0  3.642033  0  -1.20309  0  -0.358575  -0.161365  0  3.625918  0
N  N91  1  0.13735939  0.90573553  0.02533481  1  0  -0.247331  0  3.354003  0  0  -0.169572  0  3.634214  0  0  -0.182786  0  3.644156  0  -1.236868  0  -0.358028  -0.161679  0  3.627891  0
O  O92  1  0.73390174  0.50325685  0.51621931  1  0  -0.337184  0  2.307186  0  0  -0.269163  0  2.533392  0  0  -0.289602  0  2.530399  0  -1.079371  0  -0.141366  -0.254885  0  2.535168  0
O  O93  1  0.23033288  0.49674003  0.48396078  1  0  -0.335662  0  2.305068  0  0  -0.268271  0  2.532538  0  0  -0.288575  0  2.52956  0  -1.079388  0  -0.141281  -0.254102  0  2.534225  0
O  O94  1  0.75894978  0.21294531  0.49945357  1  0  -0.336152  0  2.297799  0  0  -0.267699  0  2.522557  0  0  -0.288113  0  2.520588  0  -1.065646  0  -0.141431  -0.253528  0  2.523752  0
O  O95  1  0.54439984  0.78716492  0.50060448  1  0  -0.336553  0  2.297799  0  0  -0.269183  0  2.522942  0  0  -0.289661  0  2.520989  0  -1.079881  0  -0.140544  -0.254988  0  2.524162  0
O  O96  1  0.46994654  0.23667898  0.27107939  1  0  -0.338752  0  2.296318  0  0  -0.268525  0  2.520841  0  0  -0.289984  0  2.519474  0  -1.077962  0  -0.141309  -0.253737  0  2.521638  0
O  O97  1  0.23164304  0.76333691  0.72894505  1  0  -0.338465  0  2.294265  0  0  -0.268883  0  2.5184  0  0  -0.290244  0  2.517029  0  -1.078048  0  -0.142162  -0.254185  0  2.519328  0
O  O98  1  0.87690112  0.54004112  0.41597518  1  0  -0.479179  0  1.906655  0  0  -0.444683  0  2.099856  0  0  -0.460413  0  2.091721  0  -1.111442  0  -0.267352  -0.434239  0  2.105643  0
O  O99  1  0.33634604  0.45982137  0.58414830  1  0  -0.477977  0  1.905388  0  0  -0.443584  0  2.09941  0  0  -0.459262  0  2.091352  0  -1.116068  0  -0.266805  -0.433187  0  2.105174  0
O  O100  1  0.47742966  0.15451389  0.52101588  1  0  -0.491745  0  1.926419  0  0  -0.451693  0  2.130983  0  0  -0.468502  0  2.122173  0  -1.104075  0  -0.263573  -0.440748  0  2.137432  0
O  O101  1  0.32086363  0.84502618  0.47849869  1  0  -0.493404  0  1.928012  0  0  -0.453645  0  2.131746  0  0  -0.470455  0  2.122859  0  -1.12769  0  -0.264627  -0.44268  0  2.138243  0
O  O102  1  0.72359848  0.24811141  0.20800774  1  0  -0.484981  0  1.928882  0  0  -0.447613  0  2.128916  0  0  -0.465106  0  2.121493  0  -1.076898  0  -0.263817  -0.435922  0  2.134122  0
O  O103  1  0.47416038  0.75212915  0.79196669  1  0  -0.487149  0  1.926766  0  0  -0.450066  0  2.126275  0  0  -0.467565  0  2.118825  0  -1.122988  0  -0.265857  -0.43836  0  2.131499  0
