# generated using pymatgen
data_Zn2H19C33N2ClO9
_symmetry_space_group_name_H-M   'P 1'
_cell_length_a   9.71462028
_cell_length_b   11.04288261
_cell_length_c   17.70962503
_cell_angle_alpha   90.84979096
_cell_angle_beta   90.46215596
_cell_angle_gamma   90.01101570
_symmetry_Int_Tables_number   1
_chemical_formula_structural   Zn2H19C33N2ClO9
_chemical_formula_sum   'Zn2 H19 C33 N2 Cl1 O9'
_cell_volume   1899.57188112
_cell_formula_units_Z   1
loop_
 _symmetry_equiv_pos_site_id
 _symmetry_equiv_pos_as_xyz
  1  'x, y, z'
loop_
 _atom_site_type_symbol
 _atom_site_label
 _atom_site_symmetry_multiplicity
 _atom_site_fract_x
 _atom_site_fract_y
 _atom_site_fract_z
 _atom_site_occupancy
 _atom_site_pbe_bader_charge
 _atom_site_pbe_bader_spin_density
 _atom_site_pbe_cm5_charge
 _atom_site_pbe_ddec_charge
 _atom_site_pbe_ddec_spin_density
 _atom_site_pbe_ddec_sum_bond_order
 _atom_site_pbe_magmom
Zn  Zn0  1  0.63942707  0.48386059  0.50048392  1  1.280814  0  0.665644  0.812529  0  2.429559  0
Zn  Zn1  1  0.35553351  0.48514125  0.50072905  1  1.274291  0  0.669564  0.816171  0  2.439814  0
H  H2  1  0.70541552  0.62368828  0.87721077  1  0.07049  0  0.10453  0.107432  0  0.990734  0
H  H3  1  0.28462675  0.09813087  0.46899446  1  0.109401  0  0.105101  0.112026  0  1.006686  0
H  H4  1  0.79708592  0.09297814  0.57345087  1  0.101314  0  0.105217  0.086509  0  0.957921  0
H  H5  1  0.83776190  0.87882237  0.46319314  1  0.064628  0  0.092848  0.109032  0  1.003427  0
H  H6  1  0.80724456  0.86525294  0.56226266  1  0.04249  0  0.099402  0.119142  0  0.973418  0
H  H7  1  0.12944480  0.38288268  0.60022128  1  0.127516  0  0.137391  0.121486  0  0.964642  0
H  H8  1  0.86917442  0.38077100  0.59968100  1  0.138833  0  0.136817  0.119202  0  0.961782  0
H  H9  1  0.86556062  0.55418144  0.32907254  1  0.117624  0  0.11267  0.137559  0  0.972368  0
H  H10  1  0.86244078  0.69266410  0.38274388  1  0.095184  0  0.109603  0.130406  0  0.983907  0
H  H11  1  0.12779930  0.55941927  0.33010760  1  0.081643  0  0.111928  0.138453  0  0.972913  0
H  H12  1  0.71000575  0.57824806  0.73849494  1  0.094607  0  0.104069  0.108546  0  1.001418  0
H  H13  1  0.12435633  0.69657211  0.38440817  1  0.087007  0  0.113545  0.13591  0  0.964426  0
H  H14  1  0.27465650  0.51328505  0.73886028  1  0.118279  0  0.103818  0.106997  0  1.003946  0
H  H15  1  0.26799356  0.55705470  0.87767399  1  0.066854  0  0.104051  0.106133  0  0.991131  0
H  H16  1  0.62739621  0.71990810  0.14702830  1  0.079763  0  0.111006  0.112955  0  0.979481  0
H  H17  1  0.63214993  0.66492872  0.28255362  1  0.072213  0  0.109334  0.112215  0  0.992606  0
H  H18  1  0.33984873  0.42986978  0.10196067  1  0.066336  0  0.106967  0.106334  0  1.000182  0
H  H19  1  0.28406409  0.87285789  0.47001832  1  0.083291  0  0.101217  0.103119  0  1.00758  0
H  H20  1  0.25428973  0.30881787  0.19439203  1  0.038906  0  0.09393  0.020151  0  0.965689  0
C  C21  1  0.50061504  0.72042366  0.49313518  1  1.570241  0  0.211717  0.592981  0  4.188029  0
C  C22  1  0.48673907  0.59126372  0.88697196  1  0.067649  0  0.000202  0.139886  0  4.117374  0
C  C23  1  0.48513053  0.60275847  0.96676700  1  -0.219507  0  -0.042947  -0.101741  0  4.117584  0
C  C24  1  0.48493898  0.60004284  0.03568379  1  -0.125673  0  -0.05064  -0.11848  0  4.118093  0
C  C25  1  0.56604436  0.64407989  0.16661559  1  -0.051487  0  -0.071277  -0.104128  0  3.926471  0
C  C26  1  0.56925320  0.61258121  0.24255264  1  -0.009149  0  -0.082401  -0.106463  0  3.988417  0
C  C27  1  0.49223725  0.51517203  0.26902302  1  0.037246  0  0.007308  -0.014377  0  3.889539  0
C  C28  1  0.40882864  0.44904117  0.21736158  1  -0.091879  0  -0.019194  -0.01178  0  4.012704  0
C  C29  1  0.40385157  0.48210348  0.14158837  1  0.045126  0  -0.070478  -0.146061  0  3.912006  0
C  C30  1  0.48406349  0.57815527  0.11436639  1  0.062281  0  -0.000734  0.139339  0  4.124359  0
C  C31  1  0.62308366  0.92233507  0.49530199  1  -0.049692  0  -0.004516  0.071206  0  3.899944  0
C  C32  1  0.49364294  0.49123743  0.35245161  1  1.605613  0  0.216957  0.593828  0  4.205972  0
C  C33  1  0.50233016  0.85494031  0.48770180  1  0.030286  0  -0.013653  -0.070583  0  3.969704  0
C  C34  1  0.38057800  0.92222769  0.47723780  1  -0.012957  0  -0.080516  -0.092023  0  3.976836  0
C  C35  1  0.38053309  0.04866168  0.47724312  1  -0.02784  0  -0.078414  -0.092373  0  3.95592  0
C  C36  1  0.50191145  0.11616810  0.48960840  1  -0.046053  0  -0.004646  -0.041391  0  3.940358  0
C  C37  1  0.62242039  0.04870065  0.49728651  1  0.014498  0  -0.011067  0.000959  0  3.890746  0
C  C38  1  0.77413582  0.05541175  0.51710592  1  0.13211  0  -0.039027  0.07185  0  3.811718  0
C  C39  1  0.77631647  0.91280169  0.51076606  1  -0.051086  0  -0.153578  -0.247293  0  3.878356  0
C  C40  1  0.06822140  0.53452598  0.44867105  1  0.55789  0  0.148809  0.200843  0  3.8567  0
C  C41  1  0.07020305  0.42684827  0.55585432  1  0.452314  0  0.066388  0.042628  0  3.871484  0
C  C42  1  0.92652390  0.42575812  0.55551599  1  0.527296  0  0.065599  0.042988  0  3.885322  0
C  C43  1  0.49847729  0.25074029  0.49694236  1  1.570567  0  0.21899  0.601126  0  4.168234  0
C  C44  1  0.92475937  0.53313386  0.44827756  1  0.579727  0  0.149316  0.203153  0  3.858154  0
C  C45  1  0.91327807  0.60441326  0.37637888  1  -0.098625  0  -0.138658  -0.231166  0  3.820656  0
C  C46  1  0.07720949  0.60677564  0.37714281  1  0.029145  0  -0.13605  -0.223649  0  3.814745  0
C  C47  1  0.49671209  0.50943445  0.64806651  1  1.57356  0  0.211638  0.59032  0  4.175436  0
C  C48  1  0.61119271  0.59960942  0.84673197  1  -0.074989  0  -0.085266  -0.130516  0  3.957292  0
C  C49  1  0.61392749  0.57392007  0.76970699  1  -0.020812  0  -0.084186  -0.090626  0  3.994954  0
C  C50  1  0.49310470  0.54063642  0.73071736  1  -0.010124  0  -0.016123  -0.028695  0  3.953752  0
C  C51  1  0.36831465  0.53697799  0.76994595  1  -0.041689  0  -0.083798  -0.088229  0  3.99488  0
C  C52  1  0.36461178  0.56176430  0.84699004  1  -0.002843  0  -0.085566  -0.130174  0  3.958135  0
C  C53  1  0.33208497  0.33849912  0.23793950  1  0.941724  0  0.096345  0.265634  0  3.997332  0
N  N54  1  0.14424700  0.48286948  0.50173221  1  -1.219771  0  -0.286006  -0.173662  0  3.464231  0
N  N55  1  0.85056724  0.48060724  0.50108765  1  -1.221274  0  -0.287643  -0.177548  0  3.475442  0
Cl  Cl56  1  0.88675886  0.13171794  0.45331586  1  -0.27219  0  -0.084006  -0.166393  0  1.311469  0
O  O57  1  0.61593518  0.66658688  0.48448188  1  -1.161354  0  -0.316871  -0.543275  0  2.312634  0
O  O58  1  0.38582133  0.67018502  0.50692239  1  -1.161227  0  -0.318254  -0.545642  0  2.312458  0
O  O59  1  0.60896956  0.46707827  0.38275661  1  -1.158606  0  -0.31217  -0.540891  0  2.284847  0
O  O60  1  0.37924358  0.50591505  0.38554677  1  -1.154348  0  -0.309301  -0.541641  0  2.34001  0
O  O61  1  0.61332754  0.30289361  0.51098505  1  -1.153344  0  -0.317451  -0.546936  0  2.33824  0
O  O62  1  0.38246759  0.30283636  0.48997026  1  -1.158289  0  -0.311082  -0.533537  0  2.328216  0
O  O63  1  0.61302823  0.51491523  0.61540702  1  -1.177086  0  -0.321033  -0.555295  0  2.311208  0
O  O64  1  0.38287242  0.48003039  0.61635941  1  -1.1755  0  -0.322022  -0.557313  0  2.320788  0
O  O65  1  0.35089404  0.27973716  0.29501813  1  -1.061362  0  -0.253348  -0.327166  0  2.125828  0
