# generated using pymatgen
data_Zn2H13C22N2ClO13
_symmetry_space_group_name_H-M   'P 1'
_cell_length_a   9.90582424
_cell_length_b   11.15372563
_cell_length_c   16.01690993
_cell_angle_alpha   90.75179719
_cell_angle_beta   93.56045443
_cell_angle_gamma   89.50525856
_symmetry_Int_Tables_number   1
_chemical_formula_structural   Zn2H13C22N2ClO13
_chemical_formula_sum   'Zn2 H13 C22 N2 Cl1 O13'
_cell_volume   1766.03585084
_cell_formula_units_Z   1
loop_
 _symmetry_equiv_pos_site_id
 _symmetry_equiv_pos_as_xyz
  1  'x, y, z'
loop_
 _atom_site_type_symbol
 _atom_site_label
 _atom_site_symmetry_multiplicity
 _atom_site_fract_x
 _atom_site_fract_y
 _atom_site_fract_z
 _atom_site_occupancy
 _atom_site_pbe_bader_charge
 _atom_site_pbe_bader_spin_density
 _atom_site_pbe_cm5_charge
 _atom_site_pbe_ddec_charge
 _atom_site_pbe_ddec_spin_density
 _atom_site_pbe_ddec_sum_bond_order
 _atom_site_pbe_magmom
Zn  Zn0  1  0.63297173  0.48466156  0.52033948  1  1.297042  0  0.681363  0.835186  0  2.378726  0
Zn  Zn1  1  0.34856591  0.47976859  0.48645657  1  1.280523  0  0.677478  0.861565  0  2.367401  0
H  H2  1  0.41924288  0.69047666  0.07083461  1  0.079573  0  0.104868  0.093853  0  0.985022  0
H  H3  1  0.14892640  0.49037787  0.60890013  1  0.168618  0  0.13209  0.10672  0  1.004774  0
H  H4  1  0.07757698  0.47666171  0.42967563  1  0.509657  0  0.316965  0.302026  0  0.941094  0
H  H5  1  0.62533481  0.68749313  0.95571649  1  0.054528  0  0.104034  0.092589  0  0.987003  0
H  H6  1  0.26373541  0.53249746  0.96400757  1  0.054853  0  0.100156  0.086665  0  0.993292  0
H  H7  1  0.38828899  0.33428810  0.04924675  1  0.044988  0  0.105003  0.093233  0  0.98509  0
H  H8  1  0.59357947  0.33131912  0.93335823  1  0.080045  0  0.105981  0.094948  0  0.983414  0
H  H9  1  0.74944888  0.48890400  0.04051649  1  0.09455  0  0.101585  0.089133  0  0.992496  0
H  H10  1  0.67652637  0.81870717  0.46006754  1  0.626412  0  0.320467  0.360289  0  0.901824  0
H  H11  1  0.97375853  0.50039349  0.68086287  1  0.625294  0  0.361643  0.388724  0  0.847197  0
H  H12  1  0.78310710  0.45989401  0.39142672  1  0.655258  0  0.321959  0.35874  0  0.955225  0
H  H13  1  0.20730874  0.02518596  0.48126148  1  0.628157  0  0.327448  0.362945  0  0.900438  0
H  H14  1  0.28306921  0.78186831  0.51562227  1  0.632529  0  0.302208  0.358987  0  0.968626  0
C  C15  1  0.49092896  0.71615928  0.48862468  1  1.514731  0  0.201176  0.53909  0  4.209308  0
C  C16  1  0.52661959  0.50075753  0.08762099  1  0.102032  0  0.007346  0.118625  0  3.797597  0
C  C17  1  0.55553739  0.41083043  0.96519230  1  -0.030285  0  -0.065863  -0.070943  0  3.622063  0
C  C18  1  0.48644951  0.52102310  0.91689925  1  0.101291  0  0.006963  0.123765  0  3.798412  0
C  C19  1  0.44003183  0.41285984  0.02715557  1  0.010495  0  -0.066  -0.070675  0  3.623163  0
C  C20  1  0.37169174  0.52265253  0.98148182  1  0.005881  0  -0.071561  -0.082366  0  3.640712  0
C  C21  1  0.53736116  0.48930521  0.17559650  1  -0.477417  0  -0.029041  -0.036928  0  4.09044  0
C  C22  1  0.47116071  0.52649234  0.82865403  1  -0.475075  0  -0.037111  -0.054554  0  4.104688  0
C  C23  1  0.39013434  0.05101293  0.51450010  1  0.537684  0  0.083957  0.220201  0  4.023141  0
C  C24  1  0.49428624  0.12655807  0.54000040  1  0.141551  0  -0.020645  -0.120885  0  3.913563  0
C  C25  1  0.39552446  0.91972118  0.51312634  1  0.539193  0  0.058397  0.113026  0  4.067974  0
C  C26  1  0.52050342  0.47129298  0.33982752  1  1.674407  0  0.227195  0.689062  0  4.207605  0
C  C27  1  0.50066775  0.84774118  0.49027030  1  0.564891  0  0.042303  0.014818  0  4.082266  0
C  C28  1  0.93718190  0.48785200  0.56186891  1  1.20304  0  0.225757  0.342364  0  4.058703  0
C  C29  1  0.08272732  0.48642789  0.55112822  1  0.671159  0  0.107183  0.099593  0  3.882366  0
C  C30  1  0.49419405  0.25717220  0.52526975  1  1.592145  0  0.202185  0.59744  0  4.197366  0
C  C31  1  0.46979725  0.51912092  0.66262672  1  1.662865  0  0.218243  0.672818  0  4.236009  0
C  C32  1  0.57313608  0.60873158  0.97719148  1  0.001993  0  -0.068399  -0.075872  0  3.628732  0
C  C33  1  0.45762388  0.61079797  0.03934155  1  -0.029729  0  -0.066611  -0.072961  0  3.626041  0
C  C34  1  0.53512314  0.47944707  0.25128279  1  0.150668  0  -0.060668  -0.222903  0  4.006074  0
C  C35  1  0.46445129  0.52704842  0.75236401  1  0.155842  0  -0.060662  -0.210447  0  4.00918  0
C  C36  1  0.64150761  0.49891335  0.02307248  1  -0.042621  0  -0.071113  -0.082742  0  3.640671  0
N  N37  1  0.83937627  0.48178080  0.50411847  1  -0.590266  0  -0.226145  -0.112539  0  3.40246  0
N  N38  1  0.14219990  0.48154467  0.48218239  1  -1.215165  0  -0.439656  -0.371707  0  3.225113  0
Cl  Cl39  1  0.63400543  0.07069946  0.59656584  1  -0.184949  0  -0.033919  -0.070016  0  1.61032  0
O  O40  1  0.60025818  0.65911177  0.47587562  1  -1.167012  0  -0.316634  -0.548749  0  2.330279  0
O  O41  1  0.37603579  0.66681085  0.49936854  1  -1.164305  0  -0.306938  -0.53771  0  2.359127  0
O  O42  1  0.62461666  0.44201986  0.38739902  1  -1.172802  0  -0.307994  -0.568167  0  2.318526  0
O  O43  1  0.40384748  0.49392620  0.36491881  1  -1.140978  0  -0.305037  -0.523312  0  2.235726  0
O  O44  1  0.60153173  0.31440863  0.54912556  1  -1.157485  0  -0.331186  -0.554931  0  2.371072  0
O  O45  1  0.38859999  0.30384365  0.48868331  1  -1.149713  0  -0.321011  -0.532401  0  2.349971  0
O  O46  1  0.58302415  0.54559111  0.63402180  1  -1.135438  0  -0.313915  -0.527189  0  2.269856  0
O  O47  1  0.36379756  0.48516011  0.61983744  1  -1.157663  0  -0.313242  -0.563795  0  2.282265  0
O  O48  1  0.62032879  0.89115230  0.46676690  1  -1.121592  0  -0.355146  -0.405397  0  2.369354  0
O  O49  1  0.89582787  0.49752727  0.64074285  1  -1.090221  0  -0.314011  -0.422083  0  2.253873  0
O  O50  1  0.87530796  0.47219172  0.42295545  1  -0.726728  0  -0.23523  -0.31676  0  2.204014  0
O  O51  1  0.26629888  0.09543867  0.48855948  1  -1.096483  0  -0.338445  -0.39727  0  2.27693  0
O  O52  1  0.27149953  0.87106403  0.52532215  1  -1.135968  0  -0.36777  -0.463105  0  2.288808  0
