# generated using pymatgen
data_MnH7C8S2N3O
_symmetry_space_group_name_H-M   'P 1'
_cell_length_a   7.78094915
_cell_length_b   7.85720611
_cell_length_c   18.42929044
_cell_angle_alpha   94.74031641
_cell_angle_beta   89.99974059
_cell_angle_gamma   90.00008413
_symmetry_Int_Tables_number   1
_chemical_formula_structural   MnH7C8S2N3O
_chemical_formula_sum   'Mn4 H28 C32 S8 N12 O4'
_cell_volume   1122.84880179
_cell_formula_units_Z   4
loop_
 _symmetry_equiv_pos_site_id
 _symmetry_equiv_pos_as_xyz
  1  'x, y, z'
loop_
 _atom_site_type_symbol
 _atom_site_label
 _atom_site_symmetry_multiplicity
 _atom_site_fract_x
 _atom_site_fract_y
 _atom_site_fract_z
 _atom_site_occupancy
 _atom_site_hle17_ddec_charge
 _atom_site_hle17_ddec_spin_density
 _atom_site_hle17_ddec_sum_bond_order
 _atom_site_hle17_magmom
 _atom_site_hse06_10hf_ddec_charge
 _atom_site_hse06_10hf_ddec_spin_density
 _atom_site_hse06_10hf_ddec_sum_bond_order
 _atom_site_hse06_10hf_magmom
 _atom_site_hse06_ddec_charge
 _atom_site_hse06_ddec_spin_density
 _atom_site_hse06_ddec_sum_bond_order
 _atom_site_hse06_magmom
 _atom_site_pbe_cm5_charge
 _atom_site_pbe_ddec_charge
 _atom_site_pbe_ddec_spin_density
 _atom_site_pbe_ddec_sum_bond_order
 _atom_site_pbe_magmom
Mn  Mn0  1  0.66123216  0.66177629  0.00017364  1  1.016344  -4.739481  2.123848  -4.6  0.864664  -4.639837  2.657151  -4.43  0.925481  -4.707699  2.584293  -4.523  0.56547  0.815162  -4.566585  2.712138  -4.334
Mn  Mn1  1  0.16123496  0.33822785  0.49982271  1  1.016293  -4.739506  2.123849  -4.6  0.864566  -4.639861  2.657227  -4.43  0.925417  -4.707723  2.584303  -4.523  0.56545  0.815102  -4.566614  2.712137  -4.334
Mn  Mn2  1  0.33876203  0.33822900  0.99982427  1  1.016307  -4.739496  2.123839  -4.6  0.864585  -4.639857  2.657203  -4.43  0.925427  -4.707718  2.584296  -4.523  0.565467  0.815114  -4.566603  2.712142  -4.334
Mn  Mn3  1  0.83876437  0.66177486  0.50017727  1  1.016299  -4.739505  2.12384  -4.6  0.864574  -4.639869  2.657215  -4.43  0.925428  -4.707724  2.584289  -4.523  0.565458  0.815112  -4.566619  2.712133  -4.334
H  H4  1  0.78104360  0.22190313  0.97332301  1  0.120278  0.001177  0.930956  0.001  0.127877  0.000541  0.993325  0.0  0.130466  0.000639  0.99118  0.0  0.135854  0.125689  0.000403  0.995367  0.0
H  H5  1  0.28104444  0.77810068  0.52667646  1  0.120285  0.001177  0.930884  0.001  0.127875  0.000541  0.993286  0.0  0.130465  0.00064  0.991139  0.0  0.135842  0.125683  0.000403  0.99533  0.0
H  H6  1  0.21896087  0.77809320  0.02667564  1  0.120283  0.001177  0.930917  0.001  0.127905  0.000541  0.99326  0.0  0.130495  0.000639  0.991111  0.0  0.135852  0.125714  0.000403  0.995311  0.0
H  H7  1  0.71895490  0.22190202  0.47332406  1  0.120293  0.001177  0.930946  0.001  0.127878  0.000541  0.993313  0.0  0.130468  0.00064  0.991166  0.0  0.13585  0.125685  0.000403  0.995363  0.0
H  H8  1  0.36150834  0.44690804  0.82642549  1  0.139031  -8.4e-05  0.939824  -0.001  0.158302  -0.000174  0.999279  -0.001  0.160121  -1.5e-05  0.998797  -0.001  0.101511  0.156737  -0.000395  0.99985  -0.001
H  H9  1  0.86150480  0.55308947  0.67357468  1  0.139081  -8.4e-05  0.939862  -0.001  0.158359  -0.000174  0.999298  -0.001  0.160178  -1.6e-05  0.998817  -0.001  0.101515  0.156796  -0.000395  0.999866  -0.001
H  H10  1  0.63849613  0.55309211  0.17357494  1  0.139065  -8.4e-05  0.939854  -0.001  0.158344  -0.000174  0.999302  -0.001  0.160163  -1.5e-05  0.99882  -0.001  0.101511  0.156781  -0.000395  0.999867  -0.001
H  H11  1  0.13849453  0.44690939  0.32642624  1  0.139062  -8.4e-05  0.939851  -0.001  0.158322  -0.000174  0.999315  -0.001  0.160141  -1.5e-05  0.998833  -0.001  0.101511  0.156758  -0.000395  0.999886  -0.001
H  H12  1  0.46947764  0.46715678  0.74166555  1  0.116848  -9.9e-05  0.978554  0.0  0.134395  -0.000342  1.043241  0.0  0.135615  -0.000222  1.043967  0.0  0.085636  0.133411  -0.000468  1.04276  0.0
H  H13  1  0.96947573  0.53284213  0.75833393  1  0.116867  -9.9e-05  0.978567  0.0  0.1344  -0.000342  1.043258  0.0  0.13562  -0.000222  1.043984  0.0  0.085642  0.133413  -0.000468  1.042788  0.0
H  H14  1  0.53052554  0.53284337  0.25833487  1  0.116825  -9.9e-05  0.978519  0.0  0.134385  -0.000342  1.043207  0.0  0.135605  -0.000223  1.043933  0.0  0.085637  0.133396  -0.000468  1.042731  0.0
H  H15  1  0.03052489  0.46715802  0.24166650  1  0.116833  -9.9e-05  0.978601  0.0  0.134394  -0.000342  1.043274  0.0  0.135614  -0.000222  1.044001  0.0  0.085637  0.1334  -0.000468  1.042803  0.0
H  H16  1  0.52534067  0.60003882  0.82242904  1  0.13736  -0.000163  0.937838  -0.001  0.156596  -0.000269  0.997813  -0.001  0.158248  -0.000104  0.997544  -0.001  0.101212  0.155194  -0.000502  0.998167  -0.001
H  H17  1  0.02533804  0.39996217  0.67757082  1  0.137386  -0.000163  0.937822  -0.001  0.156597  -0.00027  0.997825  -0.001  0.158247  -0.000104  0.99756  -0.001  0.10122  0.155198  -0.000502  0.998174  -0.001
H  H18  1  0.47466508  0.39996261  0.17757143  1  0.137333  -0.000162  0.937818  -0.001  0.156581  -0.000269  0.997792  -0.001  0.15823  -0.000104  0.997526  -0.001  0.101197  0.155179  -0.000502  0.998143  -0.001
H  H19  1  0.97466258  0.60003926  0.32242966  1  0.137358  -0.000163  0.937851  -0.001  0.156593  -0.00027  0.997832  -0.001  0.158245  -0.000104  0.997563  -0.001  0.101228  0.155189  -0.000502  0.998186  -0.001
H  H20  1  0.95080214  0.02483124  0.88499967  1  0.102614  1.9e-05  1.000658  -0.001  0.107352  0.0002  1.069318  0.0  0.110859  0.000285  1.068656  0.0  0.093842  0.104545  7.9e-05  1.070279  0.0
H  H21  1  0.45080103  0.97516891  0.61500206  1  0.102537  2e-05  1.00067  -0.001  0.107277  0.0002  1.069333  0.0  0.110785  0.000285  1.068669  0.0  0.093797  0.104468  7.9e-05  1.070297  0.0
H  H22  1  0.04920104  0.97516509  0.11499953  1  0.102561  2e-05  1.000659  -0.001  0.107297  0.0002  1.069334  0.0  0.110804  0.000285  1.06867  0.0  0.093821  0.104489  7.9e-05  1.070294  0.0
H  H23  1  0.54919830  0.02483123  0.38499945  1  0.102543  2e-05  1.000636  -0.001  0.107282  0.0002  1.069312  0.0  0.11079  0.000284  1.068646  0.0  0.093803  0.104476  7.9e-05  1.070273  0.0
H  H24  1  0.89288192  0.03504716  0.75014717  1  0.095843  0.000543  0.957513  0.001  0.103266  -0.000485  1.023233  0.0  0.106487  -0.000256  1.020492  0.0  0.099569  0.100635  -0.000761  1.025711  0.0
H  H25  1  0.39287549  0.96495165  0.74985408  1  0.095845  0.000543  0.95758  0.001  0.103273  -0.000485  1.023288  0.0  0.106495  -0.000257  1.020547  0.0  0.099561  0.100636  -0.000761  1.025776  0.0
H  H26  1  0.10711998  0.96495045  0.24985208  1  0.095857  0.000543  0.95755  0.001  0.103278  -0.000485  1.023267  0.0  0.106499  -0.000257  1.020526  0.0  0.099567  0.100643  -0.000761  1.025752  0.0
H  H27  1  0.60712384  0.03504721  0.25014739  1  0.095863  0.000543  0.957543  0.001  0.103287  -0.000485  1.023255  0.0  0.106509  -0.000256  1.020514  0.0  0.09958  0.100651  -0.000761  1.025737  0.0
H  H28  1  0.67519547  0.24230089  0.71105660  1  0.115272  -0.000753  0.95829  -0.001  0.120143  -0.001138  1.024464  0.0  0.123447  -0.000867  1.024082  0.0  0.103583  0.117497  -0.001411  1.025231  0.0
H  H29  1  0.17518960  0.75769769  0.78894397  1  0.115308  -0.000753  0.958232  -0.001  0.120141  -0.001138  1.024436  0.0  0.123445  -0.000866  1.024055  0.0  0.103583  0.117494  -0.001411  1.025216  0.0
H  H30  1  0.32480643  0.75769798  0.28894324  1  0.115301  -0.000752  0.958274  -0.001  0.120113  -0.001139  1.024495  0.0  0.123417  -0.000866  1.024113  0.0  0.103571  0.117466  -0.001411  1.025267  0.0
H  H31  1  0.82481102  0.24230245  0.21105754  1  0.115335  -0.000753  0.958234  -0.001  0.120152  -0.001138  1.024449  0.0  0.123457  -0.000866  1.024068  0.0  0.103592  0.117506  -0.001411  1.025225  0.0
C  C32  1  0.42795766  0.92963634  0.92173142  1  0.320539  -0.025104  3.985949  -0.024  0.305256  -0.033637  4.281716  -0.03  0.327785  -0.029785  4.298279  -0.027  0.165185  0.289054  -0.037735  4.269004  -0.032
C  C33  1  0.92796471  0.07036890  0.57826891  1  0.320468  -0.02511  3.985929  -0.024  0.305185  -0.033643  4.2817  -0.03  0.327715  -0.029792  4.298266  -0.027  0.165212  0.288977  -0.037743  4.268993  -0.032
C  C34  1  0.57203396  0.07036891  0.07826919  1  0.32039  -0.025111  3.986106  -0.024  0.305106  -0.033641  4.281875  -0.03  0.327636  -0.02979  4.298442  -0.027  0.165171  0.28889  -0.037741  4.269179  -0.032
C  C35  1  0.07203848  0.92962874  0.42172762  1  0.320589  -0.025099  3.985932  -0.024  0.305313  -0.033632  4.281692  -0.03  0.327843  -0.029784  4.298256  -0.027  0.165225  0.289098  -0.037732  4.268999  -0.032
C  C36  1  0.05446439  0.55593113  0.92153750  1  0.315954  -0.025078  3.986986  -0.024  0.299063  -0.033599  4.285208  -0.03  0.321652  -0.029692  4.301188  -0.027  0.164409  0.282822  -0.037713  4.273047  -0.032
C  C37  1  0.55446685  0.44406731  0.57846384  1  0.315927  -0.025073  3.98695  -0.024  0.299038  -0.033597  4.285177  -0.03  0.321626  -0.029693  4.30116  -0.027  0.164438  0.282803  -0.037709  4.273004  -0.032
C  C38  1  0.94551952  0.44406647  0.07846229  1  0.316099  -0.025091  3.98675  -0.024  0.29922  -0.033608  4.284945  -0.03  0.321811  -0.029701  4.300916  -0.027  0.164436  0.282968  -0.037724  4.272793  -0.032
C  C39  1  0.44553505  0.55593156  0.42153654  1  0.315936  -0.025076  3.987006  -0.024  0.299052  -0.033601  4.285221  -0.03  0.321641  -0.029696  4.301204  -0.027  0.164428  0.282809  -0.037715  4.273051  -0.032
C  C40  1  0.76692996  0.21863721  0.91461709  1  0.04292  -0.017272  3.584028  -0.015  -0.00214  -0.016707  3.851162  -0.014  0.006513  -0.013427  3.864003  -0.012  0.053694  -0.008852  -0.021493  3.844454  -0.017
C  C41  1  0.26692759  0.78136658  0.58538350  1  0.042959  -0.01727  3.583924  -0.015  -0.002139  -0.016708  3.851111  -0.014  0.00651  -0.013442  3.863956  -0.012  0.053723  -0.008847  -0.021494  3.844392  -0.017
C  C42  1  0.23307451  0.78135912  0.08538211  1  0.042873  -0.017264  3.584002  -0.015  -0.002212  -0.016708  3.851148  -0.014  0.00644  -0.013434  3.86399  -0.012  0.053707  -0.008928  -0.021493  3.844441  -0.017
C  C43  1  0.73307174  0.21863612  0.41461756  1  0.042882  -0.017267  3.584135  -0.015  -0.002127  -0.016707  3.851227  -0.014  0.006526  -0.013433  3.864071  -0.012  0.053722  -0.008839  -0.021491  3.844516  -0.017
C  C44  1  0.48575169  0.47132013  0.80079390  1  -0.371303  0.00126  3.714374  0.001  -0.449949  -0.000237  3.946315  0.0  -0.452959  0.000203  3.952451  0.0  -0.239554  -0.447469  -0.000707  3.942602  0.0
C  C45  1  0.98574784  0.52867750  0.69920659  1  -0.371411  0.001261  3.714486  0.001  -0.450015  -0.000236  3.946474  0.0  -0.453024  0.000204  3.952612  0.0  -0.239547  -0.447541  -0.000708  3.942762  0.0
C  C46  1  0.51425278  0.52867873  0.19920702  1  -0.371286  0.00126  3.714416  0.001  -0.449951  -0.000236  3.946385  0.0  -0.452961  0.000204  3.952526  0.0  -0.239525  -0.447473  -0.000708  3.942665  0.0
C  C47  1  0.01425149  0.47132264  0.30079438  1  -0.371288  0.00126  3.714555  0.001  -0.44994  -0.000236  3.946474  0.0  -0.45295  0.000204  3.952612  0.0  -0.239551  -0.447453  -0.000708  3.942772  0.0
C  C48  1  0.61508276  0.34288030  0.81913022  1  0.220502  -0.016243  3.667447  -0.015  0.217519  -0.015372  3.922948  -0.013  0.227373  -0.012851  3.939834  -0.011  0.124548  0.210371  -0.019039  3.912492  -0.016
C  C49  1  0.11507790  0.65712333  0.68087011  1  0.220598  -0.016244  3.667434  -0.015  0.217561  -0.015373  3.922981  -0.013  0.227414  -0.012864  3.93987  -0.011  0.124501  0.210411  -0.01904  3.912528  -0.016
C  C50  1  0.38492171  0.65712114  0.18086971  1  0.220511  -0.016236  3.667469  -0.015  0.217495  -0.015372  3.923015  -0.013  0.227348  -0.012859  3.939904  -0.011  0.124493  0.210354  -0.019038  3.912549  -0.016
C  C51  1  0.88492271  0.34287809  0.31913037  1  0.220431  -0.016242  3.66743  -0.015  0.217473  -0.015375  3.922902  -0.013  0.227329  -0.012855  3.939791  -0.011  0.124473  0.210325  -0.019042  3.912446  -0.016
C  C52  1  0.85711066  0.11229136  0.86488104  1  -0.089248  0.014603  3.740555  0.01  -0.100479  0.007494  3.99208  0.005  -0.107794  0.008622  4.010874  0.006  -0.080934  -0.096304  0.00678  3.98136  0.005
C  C53  1  0.35710535  0.88771253  0.63511938  1  -0.089202  0.014602  3.740479  0.01  -0.100405  0.007492  3.992011  0.005  -0.107721  0.008625  4.010805  0.006  -0.080882  -0.096233  0.00678  3.981288  0.005
C  C54  1  0.14289253  0.88770625  0.13511821  1  -0.089093  0.014592  3.740496  0.01  -0.100315  0.007493  3.99201  0.005  -0.107631  0.008624  4.010806  0.006  -0.080867  -0.096141  0.00678  3.981284  0.005
C  C55  1  0.64289398  0.11228889  0.36488217  1  -0.089161  0.014601  3.740464  0.01  -0.100409  0.007492  3.991982  0.005  -0.107723  0.008627  4.010775  0.006  -0.08088  -0.096234  0.00678  3.981257  0.005
C  C56  1  0.82532831  0.11909222  0.79068044  1  0.000499  -0.019097  3.704315  -0.016  -0.024137  -0.019486  3.956059  -0.015  -0.016649  -0.015367  3.96942  -0.012  -0.070922  -0.029946  -0.025593  3.948583  -0.019
C  C57  1  0.32531962  0.88091035  0.70932054  1  0.000491  -0.019099  3.704311  -0.016  -0.024149  -0.019482  3.956025  -0.015  -0.016659  -0.01536  3.969384  -0.012  -0.070977  -0.029959  -0.025596  3.948559  -0.019
C  C58  1  0.17467745  0.88090538  0.20931881  1  0.00046  -0.019087  3.704334  -0.016  -0.024177  -0.019483  3.956059  -0.015  -0.016688  -0.015363  3.96942  -0.012  -0.070963  -0.029984  -0.025592  3.948584  -0.019
C  C59  1  0.67468228  0.11909107  0.29068048  1  0.000474  -0.019096  3.704302  -0.016  -0.024163  -0.01948  3.956038  -0.015  -0.016675  -0.015365  3.969399  -0.012  -0.070998  -0.029973  -0.025595  3.948568  -0.019
C  C60  1  0.70408238  0.23469615  0.76855043  1  -0.15475  0.013698  3.7105  0.01  -0.168226  0.005657  3.957652  0.004  -0.176294  0.007323  3.976824  0.005  -0.079224  -0.163528  0.004276  3.946315  0.004
C  C61  1  0.20407328  0.76530503  0.73144964  1  -0.154825  0.013699  3.710462  0.01  -0.168243  0.005653  3.95763  0.004  -0.176313  0.007326  3.976803  0.005  -0.07913  -0.163554  0.004277  3.946315  0.004
C  C62  1  0.29592209  0.76530401  0.23144946  1  -0.154829  0.013687  3.710448  0.01  -0.16823  0.005655  3.957612  0.004  -0.176299  0.007327  3.976786  0.005  -0.079174  -0.163541  0.004276  3.946284  0.004
C  C63  1  0.79592476  0.23469384  0.26855128  1  -0.154785  0.013694  3.710391  0.01  -0.168217  0.005652  3.957554  0.004  -0.176288  0.007323  3.976728  0.005  -0.07915  -0.163531  0.004276  3.946238  0.004
S  S64  1  0.29637810  0.07484982  0.89731606  1  -0.342334  -0.044694  2.187905  -0.026  -0.314934  -0.061427  2.5202  -0.032  -0.337806  -0.051209  2.513003  -0.026  -0.104206  -0.295174  -0.072195  2.524065  -0.039
S  S65  1  0.79637844  0.92515529  0.60268344  1  -0.342347  -0.044695  2.187956  -0.026  -0.314946  -0.061429  2.52025  -0.032  -0.337822  -0.051209  2.513056  -0.026  -0.104213  -0.295185  -0.072198  2.524105  -0.039
S  S66  1  0.70361867  0.92515545  0.10268348  1  -0.342305  -0.044694  2.187963  -0.026  -0.314904  -0.061427  2.520249  -0.032  -0.337775  -0.051204  2.513061  -0.026  -0.104189  -0.29513  -0.0722  2.524107  -0.039
S  S67  1  0.20362346  0.07484616  0.39731432  1  -0.342411  -0.044692  2.187842  -0.026  -0.314997  -0.061425  2.520105  -0.032  -0.337871  -0.051206  2.512908  -0.026  -0.104243  -0.29523  -0.072194  2.523968  -0.039
S  S68  1  0.90650334  0.68653554  0.89811443  1  -0.336622  -0.044408  2.193937  -0.026  -0.307543  -0.060888  2.526203  -0.031  -0.32943  -0.050867  2.517951  -0.025  -0.099915  -0.288756  -0.071441  2.530969  -0.038
S  S69  1  0.40650139  0.31346200  0.60188675  1  -0.336611  -0.044404  2.193891  -0.026  -0.30753  -0.060885  2.526174  -0.031  -0.329425  -0.050864  2.517918  -0.025  -0.099942  -0.288765  -0.071441  2.530931  -0.038
S  S70  1  0.09348442  0.31346718  0.10188447  1  -0.336744  -0.04441  2.194016  -0.026  -0.307669  -0.060894  2.526298  -0.031  -0.329564  -0.050868  2.518042  -0.025  -0.099981  -0.288879  -0.071447  2.531045  -0.038
S  S71  1  0.59349794  0.68653685  0.39811526  1  -0.336628  -0.044405  2.193901  -0.026  -0.307543  -0.060887  2.52617  -0.031  -0.329438  -0.050864  2.517918  -0.025  -0.099955  -0.288769  -0.071439  2.530929  -0.038
N  N72  1  0.52315410  0.82321758  0.93988692  1  -0.552716  -0.023718  2.983962  -0.004  -0.49937  -0.029083  3.282888  -0.003  -0.524804  -0.021604  3.285216  0.003  -0.394623  -0.479657  -0.036238  3.281069  -0.01
N  N73  1  0.02316396  0.17678853  0.56011151  1  -0.552625  -0.023712  2.983938  -0.004  -0.499264  -0.029078  3.282853  -0.003  -0.524698  -0.021597  3.285169  0.003  -0.394625  -0.479558  -0.036233  3.281038  -0.01
N  N74  1  0.47683624  0.17678898  0.06011157  1  -0.552589  -0.023709  2.984063  -0.004  -0.499235  -0.029078  3.282985  -0.003  -0.524659  -0.021602  3.285282  0.003  -0.39461  -0.479524  -0.036231  3.281176  -0.01
N  N75  1  0.97684180  0.82321166  0.43988512  1  -0.55271  -0.02372  2.984021  -0.004  -0.499361  -0.029087  3.28295  -0.003  -0.524799  -0.021603  3.285277  0.003  -0.394622  -0.479648  -0.036238  3.281135  -0.01
N  N76  1  0.16279548  0.46131601  0.93897710  1  -0.550088  -0.023406  2.98192  -0.003  -0.496263  -0.028979  3.281627  -0.003  -0.521487  -0.021577  3.283943  0.003  -0.392899  -0.476794  -0.036086  3.2799  -0.009
N  N77  1  0.66279827  0.53868128  0.56102399  1  -0.550079  -0.023409  2.981903  -0.003  -0.496248  -0.028979  3.281589  -0.003  -0.521473  -0.021573  3.283906  0.003  -0.392911  -0.476788  -0.036085  3.279852  -0.009
N  N78  1  0.83718585  0.53868927  0.06102189  1  -0.550164  -0.023398  2.981759  -0.003  -0.496357  -0.028975  3.281488  -0.003  -0.521579  -0.021572  3.283798  0.003  -0.392871  -0.476876  -0.036083  3.279755  -0.009
N  N79  1  0.33720363  0.46131503  0.43897684  1  -0.550054  -0.02341  2.981987  -0.003  -0.496236  -0.028978  3.281695  -0.003  -0.521461  -0.021573  3.284013  0.003  -0.392884  -0.476764  -0.036085  3.279948  -0.009
N  N80  1  0.64952032  0.32953965  0.89129814  1  0.198079  0.007384  3.641731  0.007  0.241215  -0.000656  3.90119  -0.001  0.238269  0.003486  3.924628  0.003  -0.112589  0.241769  -0.005376  3.884916  -0.005
N  N81  1  0.14951497  0.67046402  0.60870159  1  0.198092  0.007382  3.641619  0.007  0.241268  -0.000652  3.901092  -0.001  0.238317  0.003499  3.924539  0.003  -0.112612  0.241824  -0.005377  3.884809  -0.005
N  N82  1  0.35048415  0.67045922  0.10870224  1  0.19815  0.007375  3.641608  0.007  0.241292  -0.000656  3.901081  -0.001  0.238342  0.003491  3.924524  0.003  -0.112571  0.241845  -0.005378  3.884802  -0.005
N  N83  1  0.85048307  0.32953740  0.39129889  1  0.198184  0.00738  3.6416  0.007  0.241289  -0.000655  3.901057  -0.001  0.238337  0.003493  3.924504  0.003  -0.112557  0.241847  -0.005377  3.88478  -0.005
O  O84  1  0.56186116  0.42895267  0.94097722  1  -0.545012  -0.059067  2.038462  -0.039  -0.472582  -0.071553  2.328791  -0.047  -0.505085  -0.065004  2.322122  -0.042  -0.219633  -0.446376  -0.07777  2.332429  -0.053
O  O85  1  0.06185877  0.57104964  0.55902153  1  -0.545025  -0.059062  2.038376  -0.039  -0.472585  -0.071551  2.328674  -0.047  -0.505084  -0.064997  2.322004  -0.042  -0.219651  -0.44638  -0.07777  2.332299  -0.053
O  O86  1  0.43814331  0.57104365  0.05902306  1  -0.545016  -0.059067  2.038375  -0.039  -0.472583  -0.071553  2.328698  -0.047  -0.505077  -0.065001  2.322023  -0.042  -0.21967  -0.446377  -0.077774  2.332331  -0.053
O  O87  1  0.93814185  0.42895178  0.44097894  1  -0.545056  -0.059068  2.038389  -0.039  -0.472625  -0.071555  2.328732  -0.047  -0.505129  -0.065004  2.322066  -0.042  -0.219684  -0.446422  -0.077774  2.332363  -0.053
