# generated using pymatgen
data_ZnH3C3(N2O)2
_symmetry_space_group_name_H-M   'P 1'
_cell_length_a   7.97153937
_cell_length_b   10.35259240
_cell_length_c   18.26436254
_cell_angle_alpha   104.23055663
_cell_angle_beta   89.99980850
_cell_angle_gamma   90.00006963
_symmetry_Int_Tables_number   1
_chemical_formula_structural   ZnH3C3(N2O)2
_chemical_formula_sum   'Zn8 H24 C24 N32 O16'
_cell_volume   1461.03455616
_cell_formula_units_Z   8
loop_
 _symmetry_equiv_pos_site_id
 _symmetry_equiv_pos_as_xyz
  1  'x, y, z'
loop_
 _atom_site_type_symbol
 _atom_site_label
 _atom_site_symmetry_multiplicity
 _atom_site_fract_x
 _atom_site_fract_y
 _atom_site_fract_z
 _atom_site_occupancy
 _atom_site_pbe_bader_charge
 _atom_site_pbe_bader_spin_density
 _atom_site_pbe_cm5_charge
 _atom_site_pbe_ddec_charge
 _atom_site_pbe_ddec_spin_density
 _atom_site_pbe_ddec_sum_bond_order
 _atom_site_pbe_magmom
Zn  Zn0  1  0.56175911  0.96162558  0.34382274  1  1.255592  0  0.702488  0.713527  0  2.438482  0
Zn  Zn1  1  0.06174500  0.53837165  0.65617950  1  1.255553  0  0.702534  0.71348  0  2.438585  0
Zn  Zn2  1  0.43824406  0.03837065  0.65618001  1  1.255514  0  0.702531  0.713527  0  2.438338  0
Zn  Zn3  1  0.93826695  0.46162751  0.34382251  1  1.255759  0  0.702564  0.713601  0  2.43877  0
Zn  Zn4  1  0.44012648  0.07015479  0.15657667  1  1.252946  0  0.706057  0.708821  0  2.477712  0
Zn  Zn5  1  0.94011406  0.42984148  0.84342726  1  1.253022  0  0.706  0.708838  0  2.477604  0
Zn  Zn6  1  0.55987544  0.92984437  0.84342535  1  1.252947  0  0.706068  0.708845  0  2.47764  0
Zn  Zn7  1  0.05988033  0.57015463  0.15657329  1  1.253066  0  0.705969  0.70885  0  2.477516  0
H  H8  1  0.21985865  0.81307240  0.09101644  1  0.176508  0  0.139486  0.113837  0  0.990901  0
H  H9  1  0.71984160  0.68692701  0.90898804  1  0.176611  0  0.139471  0.113807  0  0.990905  0
H  H10  1  0.78015330  0.18692489  0.90898754  1  0.176383  0  0.139464  0.113831  0  0.990947  0
H  H11  1  0.28015279  0.31307006  0.09101208  1  0.1765  0  0.139453  0.113805  0  0.990956  0
H  H12  1  0.31566338  0.75579996  0.36217332  1  0.501936  0  0.30226  0.322988  0  0.974217  0
H  H13  1  0.81563725  0.74418135  0.63782497  1  0.501859  0  0.302209  0.323001  0  0.974136  0
H  H14  1  0.68433602  0.24419630  0.63782998  1  0.501977  0  0.302299  0.323051  0  0.97412  0
H  H15  1  0.18436592  0.25581862  0.36217385  1  0.50191  0  0.302182  0.322986  0  0.974141  0
H  H16  1  0.22512643  0.61788609  0.30203959  1  0.444666  0  0.303593  0.300727  0  0.98408  0
H  H17  1  0.72509751  0.88209705  0.69795687  1  0.444733  0  0.303537  0.300632  0  0.984237  0
H  H18  1  0.77487424  0.38210803  0.69796071  1  0.444713  0  0.303555  0.300645  0  0.984137  0
H  H19  1  0.27490691  0.11790090  0.30204116  1  0.444711  0  0.303551  0.300698  0  0.984132  0
H  H20  1  0.74266440  0.24162428  0.41516751  1  0.153478  0  0.13858  0.110835  0  0.990034  0
H  H21  1  0.24264740  0.25837657  0.58483178  1  0.153461  0  0.138606  0.110826  0  0.990087  0
H  H22  1  0.25734505  0.75837058  0.58482850  1  0.153446  0  0.138625  0.110871  0  0.990002  0
H  H23  1  0.75736205  0.74163043  0.41516900  1  0.153353  0  0.138582  0.110778  0  0.990131  0
H  H24  1  0.71330481  0.24911360  0.13186717  1  0.504907  0  0.305294  0.325606  0  0.963784  0
H  H25  1  0.21327931  0.25088328  0.86813223  1  0.504953  0  0.305304  0.325591  0  0.963733  0
H  H26  1  0.28669962  0.75089147  0.86813447  1  0.504816  0  0.305275  0.325537  0  0.963775  0
H  H27  1  0.78670128  0.74911276  0.13186722  1  0.504938  0  0.305273  0.325584  0  0.963812  0
H  H28  1  0.79347114  0.39546181  0.18896357  1  0.476361  0  0.304847  0.304695  0  0.981166  0
H  H29  1  0.29344086  0.10453390  0.81103173  1  0.476167  0  0.304821  0.30451  0  0.981198  0
H  H30  1  0.20652702  0.60454529  0.81103887  1  0.476415  0  0.304862  0.304615  0  0.981169  0
H  H31  1  0.70654600  0.89546408  0.18896685  1  0.476044  0  0.304836  0.30459  0  0.981261  0
C  C32  1  0.26342843  0.81298850  0.14720831  1  0.990815  0  0.147169  0.169885  0  3.988109  0
C  C33  1  0.76340806  0.68700981  0.85279378  1  0.990002  0  0.14734  0.17009  0  3.988242  0
C  C34  1  0.73657850  0.18700869  0.85279401  1  0.990801  0  0.147254  0.169886  0  3.988155  0
C  C35  1  0.23659260  0.31298627  0.14720622  1  0.990023  0  0.147364  0.170075  0  3.988647  0
C  C36  1  0.30297869  0.76375275  0.25331025  1  1.476721  0  0.325145  0.5382  0  4.074481  0
C  C37  1  0.80295420  0.73624050  0.74668953  1  1.476305  0  0.325094  0.537973  0  4.07456  0
C  C38  1  0.69701821  0.23624753  0.74669409  1  1.476165  0  0.325155  0.538136  0  4.074305  0
C  C39  1  0.19704395  0.26375044  0.25330710  1  1.476009  0  0.325204  0.538137  0  4.074301  0
C  C40  1  0.71398509  0.23129410  0.35602147  1  1.015114  0  0.14859  0.175188  0  3.981097  0
C  C41  1  0.21396263  0.26870176  0.64397725  1  1.01491  0  0.148629  0.175291  0  3.981201  0
C  C42  1  0.28602812  0.76869884  0.64397540  1  1.01484  0  0.148696  0.175295  0  3.980868  0
C  C43  1  0.78603051  0.73129021  0.35602005  1  1.013733  0  0.14863  0.175282  0  3.981253  0
C  C44  1  0.70391598  0.26047845  0.24385691  1  1.512081  0  0.326426  0.540901  0  4.078914  0
C  C45  1  0.20388507  0.23952033  0.75614109  1  1.51235  0  0.326518  0.541111  0  4.078793  0
C  C46  1  0.29608594  0.73952361  0.75614382  1  1.511998  0  0.326368  0.540767  0  4.079005  0
C  C47  1  0.79610556  0.76048356  0.24385712  1  1.51447  0  0.326517  0.541023  0  4.078832  0
C  C48  1  0.59167240  0.02392266  0.00929074  1  1.591791  0  0.199105  0.462352  0  4.237273  0
C  C49  1  0.09165130  0.47608802  0.99070887  1  1.566288  0  0.199145  0.462706  0  4.237161  0
C  C50  1  0.40834080  0.97608023  0.99070735  1  1.566137  0  0.19908  0.462473  0  4.237508  0
C  C51  1  0.90832177  0.52392094  0.00929160  1  1.591948  0  0.199128  0.462423  0  4.237209  0
C  C52  1  0.41446955  0.96473243  0.48929076  1  1.599588  0  0.200122  0.464354  0  4.236793  0
C  C53  1  0.91444912  0.53525598  0.51070991  1  1.576393  0  0.200202  0.464681  0  4.236414  0
C  C54  1  0.58553362  0.03525891  0.51071304  1  1.577411  0  0.200148  0.464482  0  4.23706  0
C  C55  1  0.08556534  0.46472205  0.48928569  1  1.598769  0  0.200189  0.464374  0  4.236909  0
N  N56  1  0.38792094  0.87758098  0.25671493  1  -0.775817  0  -0.274535  -0.341563  0  3.361997  0
N  N57  1  0.88789632  0.62241038  0.74328559  1  -0.775587  0  -0.27462  -0.341576  0  3.362197  0
N  N58  1  0.61208097  0.12241525  0.74328782  1  -0.775782  0  -0.274649  -0.341555  0  3.361982  0
N  N59  1  0.11209682  0.37758458  0.25671208  1  -0.775484  0  -0.274801  -0.341769  0  3.361958  0
N  N60  1  0.36159759  0.90745147  0.18749525  1  -0.842145  0  -0.278968  -0.224659  0  3.600676  0
N  N61  1  0.86157614  0.59254890  0.81250750  1  -0.841894  0  -0.279054  -0.224836  0  3.601237  0
N  N62  1  0.63840684  0.09254772  0.81250732  1  -0.842073  0  -0.278888  -0.224645  0  3.600958  0
N  N63  1  0.13842076  0.40744500  0.18748894  1  -0.841865  0  -0.278979  -0.224814  0  3.601244  0
N  N64  1  0.22336067  0.72115484  0.18551877  1  -1.23076  0  -0.369052  -0.409695  0  3.495004  0
N  N65  1  0.72333948  0.77884436  0.81448185  1  -1.229891  0  -0.368916  -0.409483  0  3.494906  0
N  N66  1  0.77664375  0.27884532  0.81448337  1  -1.230228  0  -0.369085  -0.409602  0  3.494912  0
N  N67  1  0.27665993  0.22115269  0.18551772  1  -1.229882  0  -0.369007  -0.409537  0  3.495235  0
N  N68  1  0.30380888  0.69681015  0.30858848  1  -1.247286  0  -0.589675  -0.654756  0  3.268175  0
N  N69  1  0.80377990  0.80317504  0.69140867  1  -1.247307  0  -0.58962  -0.654675  0  3.268206  0
N  N70  1  0.69619429  0.30318412  0.69141459  1  -1.247199  0  -0.58964  -0.654745  0  3.26817  0
N  N71  1  0.19621951  0.19681998  0.30859010  1  -1.247223  0  -0.589582  -0.654708  0  3.267948  0
N  N72  1  0.62531472  0.13068849  0.31531670  1  -0.840757  0  -0.275931  -0.221695  0  3.589372  0
N  N73  1  0.12529711  0.36931222  0.68468110  1  -0.840442  0  -0.275886  -0.221517  0  3.589455  0
N  N74  1  0.37468719  0.86930952  0.68468244  1  -0.840502  0  -0.275955  -0.221693  0  3.589243  0
N  N75  1  0.87470606  0.63069052  0.31531423  1  -0.839659  0  -0.275887  -0.221519  0  3.589302  0
N  N76  1  0.61778574  0.14795085  0.24231536  1  -0.782719  0  -0.278037  -0.342613  0  3.364543  0
N  N77  1  0.11776752  0.35205185  0.75768269  1  -0.783582  0  -0.27805  -0.342798  0  3.364813  0
N  N78  1  0.38221493  0.85205117  0.75768482  1  -0.78287  0  -0.278015  -0.342643  0  3.36463  0
N  N79  1  0.88222938  0.64795189  0.24231276  1  -0.785238  0  -0.278064  -0.342794  0  3.36469  0
N  N80  1  0.76590000  0.31531893  0.31436430  1  -1.239965  0  -0.367894  -0.416082  0  3.469605  0
N  N81  1  0.26587208  0.18467496  0.68563411  1  -1.239707  0  -0.367961  -0.416273  0  3.469607  0
N  N82  1  0.23410693  0.68467908  0.68563484  1  -1.239865  0  -0.367944  -0.416064  0  3.469516  0
N  N83  1  0.73412984  0.81532710  0.31436661  1  -1.239811  0  -0.367991  -0.41624  0  3.469738  0
N  N84  1  0.71849687  0.31467844  0.18367134  1  -1.300302  0  -0.587309  -0.657318  0  3.279511  0
N  N85  1  0.21847420  0.18532038  0.81632719  1  -1.300103  0  -0.587302  -0.657136  0  3.279314  0
N  N86  1  0.28150003  0.68532763  0.81633043  1  -1.300152  0  -0.58724  -0.657044  0  3.279518  0
N  N87  1  0.78151643  0.81467859  0.18367151  1  -1.299897  0  -0.587277  -0.657162  0  3.279562  0
O  O88  1  0.62563047  0.07221398  0.07922271  1  -1.170781  0  -0.315369  -0.50546  0  2.36233  0
O  O89  1  0.12561110  0.42780410  0.92078488  1  -1.170891  0  -0.315322  -0.505504  0  2.362804  0
O  O90  1  0.37437897  0.92779838  0.92078530  1  -1.171012  0  -0.315314  -0.505389  0  2.36287  0
O  O91  1  0.87436448  0.57222712  0.07922434  1  -1.17071  0  -0.315369  -0.50548  0  2.362314  0
O  O92  1  0.69241712  0.01213728  0.95539655  1  -1.158614  0  -0.299686  -0.48602  0  2.266973  0
O  O93  1  0.19241220  0.48788067  0.04460820  1  -1.158644  0  -0.299673  -0.486146  0  2.266528  0
O  O94  1  0.30758480  0.98787896  0.04461030  1  -1.158473  0  -0.299667  -0.486087  0  2.266716  0
O  O95  1  0.80757090  0.51213670  0.95540098  1  -1.158726  0  -0.299693  -0.486085  0  2.266849  0
O  O96  1  0.38251236  0.92717890  0.41862049  1  -1.178853  0  -0.311963  -0.503173  0  2.366344  0
O  O97  1  0.88252656  0.57281236  0.58137838  1  -1.178305  0  -0.311906  -0.503181  0  2.366921  0
O  O98  1  0.61747576  0.07282592  0.58137674  1  -1.178876  0  -0.311939  -0.503109  0  2.36708  0
O  O99  1  0.11749543  0.42719577  0.41860721  1  -1.178502  0  -0.311964  -0.503168  0  2.366948  0
O  O100  1  0.32086006  0.94985175  0.54181480  1  -1.160724  0  -0.300899  -0.489048  0  2.259676  0
O  O101  1  0.82086641  0.55013542  0.45816449  1  -1.159984  0  -0.301014  -0.489317  0  2.25946  0
O  O102  1  0.67913433  0.05014085  0.45817601  1  -1.160447  0  -0.300888  -0.48915  0  2.25933  0
O  O103  1  0.17915056  0.44985515  0.54182552  1  -1.160371  0  -0.300914  -0.489093  0  2.259838  0
