# generated using pymatgen
data_AlH15C24(NO2)3
_symmetry_space_group_name_H-M   'P 1'
_cell_length_a   4.01574172
_cell_length_b   28.97173493
_cell_length_c   28.97197230
_cell_angle_alpha   119.99794986
_cell_angle_beta   90.00162143
_cell_angle_gamma   89.99880088
_symmetry_Int_Tables_number   1
_chemical_formula_structural   AlH15C24(NO2)3
_chemical_formula_sum   'Al2 H30 C48 N6 O12'
_cell_volume   2919.16026887
_cell_formula_units_Z   2
loop_
 _symmetry_equiv_pos_site_id
 _symmetry_equiv_pos_as_xyz
  1  'x, y, z'
loop_
 _atom_site_type_symbol
 _atom_site_label
 _atom_site_symmetry_multiplicity
 _atom_site_fract_x
 _atom_site_fract_y
 _atom_site_fract_z
 _atom_site_occupancy
 _atom_site_pbe_bader_charge
 _atom_site_pbe_bader_spin_density
 _atom_site_pbe_cm5_charge
 _atom_site_pbe_ddec_charge
 _atom_site_pbe_ddec_spin_density
 _atom_site_pbe_ddec_sum_bond_order
 _atom_site_pbe_magmom
Al  Al0  1  0.99861445  0.50000262  0.49999950  1  2.506143  0  0.426034  1.598519  0  2.566835  0
Al  Al1  1  0.99759685  0.16666243  0.83333974  1  2.506147  0  0.42575  1.598984  0  2.566462  0
H  H2  1  0.14979499  0.17797475  0.70266168  1  0.09893  0  0.10745  0.112578  0  0.989022  0
H  H3  1  0.09120222  0.22517384  0.65086384  1  0.076035  0  0.101912  0.111643  0  0.997661  0
H  H4  1  0.69248295  0.35360126  0.76841245  1  0.051519  0  0.103909  0.118735  0  0.994916  0
H  H5  1  0.69225726  0.31303442  0.56489197  1  0.051391  0  0.103802  0.118534  0  0.994907  0
H  H6  1  0.15087898  0.48877004  0.63072292  1  0.09483  0  0.10762  0.112757  0  0.989434  0
H  H7  1  0.09177992  0.44155558  0.68249596  1  0.07605  0  0.101791  0.111546  0  0.997564  0
H  H8  1  0.14987961  0.02466942  0.82202254  1  0.100636  0  0.107459  0.112504  0  0.989251  0
H  H9  1  0.09134317  0.92567577  0.77482820  1  0.071134  0  0.101904  0.111634  0  0.997688  0
H  H10  1  0.69243111  0.91480603  0.64638524  1  0.048299  0  0.103828  0.118703  0  0.994714  0
H  H11  1  0.69229226  0.75185412  0.68696532  1  0.04834  0  0.103784  0.118539  0  0.994937  0
H  H12  1  0.15086408  0.64195896  0.51123411  1  0.103802  0  0.107678  0.112869  0  0.989427  0
H  H13  1  0.09178399  0.74094446  0.55844288  1  0.072522  0  0.101807  0.111572  0  0.997551  0
H  H14  1  0.14986474  0.29735621  0.97533838  1  0.086351  0  0.107472  0.11256  0  0.989156  0
H  H15  1  0.09126783  0.34914288  0.07432840  1  0.066771  0  0.101913  0.111682  0  0.997651  0
H  H16  1  0.69249624  0.23157956  0.08520352  1  0.042305  0  0.103909  0.118812  0  0.994837  0
H  H17  1  0.69233285  0.43511560  0.24814526  1  0.041727  0  0.103803  0.1186  0  0.994774  0
H  H18  1  0.15093873  0.36927840  0.35804526  1  0.086473  0  0.10768  0.112823  0  0.989583  0
H  H19  1  0.09192272  0.31749792  0.25905958  1  0.069411  0  0.101801  0.111567  0  0.997738  0
H  H20  1  0.88112242  0.28696786  0.84210534  1  0.483662  0  0.304395  0.315591  0  0.967852  0
H  H21  1  0.96481835  0.34031426  0.83321373  1  0.442677  0  0.306579  0.304158  0  0.939611  0
H  H22  1  0.88163762  0.37968038  0.49123527  1  0.486438  0  0.304579  0.315969  0  0.967818  0
H  H23  1  0.96479256  0.32629274  0.50008684  1  0.441355  0  0.306699  0.304354  0  0.939404  0
H  H24  1  0.88103955  0.05513059  0.71302471  1  0.486708  0  0.304451  0.31562  0  0.967898  0
H  H25  1  0.96472766  0.99289820  0.65967218  1  0.441135  0  0.30648  0.30404  0  0.93951  0
H  H26  1  0.88166570  0.61155363  0.62032477  1  0.487035  0  0.304585  0.315838  0  0.968065  0
H  H27  1  0.96483652  0.67378797  0.67370889  1  0.439748  0  0.306714  0.304466  0  0.939281  0
H  H28  1  0.88107423  0.15788851  0.94488083  1  0.477755  0  0.304458  0.315727  0  0.968033  0
H  H29  1  0.96474700  0.16676828  0.00711474  1  0.441499  0  0.306573  0.304311  0  0.93941  0
H  H30  1  0.88158620  0.50878685  0.38844783  1  0.519035  0  0.304584  0.315906  0  0.967934  0
H  H31  1  0.96473614  0.49993646  0.32621265  1  0.441023  0  0.306709  0.304293  0  0.939266  0
C  C32  1  0.49025527  0.45700401  0.41764904  1  1.524534  0  0.264858  0.653634  0  4.056699  0
C  C33  1  0.49025203  0.46065193  0.54299719  1  1.527891  0  0.264998  0.65377  0  4.056649  0
C  C34  1  0.49026537  0.58235055  0.53934845  1  1.480342  0  0.264948  0.653692  0  4.05648  0
C  C35  1  0.48927537  0.20605338  0.79037588  1  1.524471  0  0.264642  0.653913  0  4.056609  0
C  C36  1  0.48925953  0.08430666  0.79394226  1  1.476581  0  0.264875  0.6539  0  4.05661  0
C  C37  1  0.48930948  0.20963480  0.91570218  1  1.525231  0  0.264935  0.653977  0  4.056875  0
C  C38  1  0.46295410  0.23725771  0.76309293  1  -0.048361  0  -0.030229  -0.181687  0  3.937051  0
C  C39  1  0.27187309  0.21619154  0.71605649  1  0.039898  0  -0.081943  -0.06252  0  4.023548  0
C  C40  1  0.23868159  0.24217205  0.68723165  1  -0.045713  0  -0.103843  -0.174626  0  3.994072  0
C  C41  1  0.38970797  0.29272609  0.70676526  1  0.00349  0  0.00245  0.166089  0  4.144612  0
C  C42  1  0.57284269  0.31499865  0.75416990  1  0.051922  0  -0.102137  -0.266286  0  3.915761  0
C  C43  1  0.62127925  0.28774314  0.78251292  1  0.422603  0  0.108851  0.303511  0  4.086255  0
C  C44  1  0.36606877  0.32087675  0.67851633  1  -0.286334  0  -0.039229  -0.097417  0  4.083118  0
C  C45  1  0.36605725  0.34579835  0.65480799  1  -0.046059  0  -0.039153  -0.097196  0  4.082688  0
C  C46  1  0.38984391  0.37395563  0.62656421  1  0.004337  0  0.002572  0.165945  0  4.144413  0
C  C47  1  0.57290057  0.35166411  0.57915066  1  0.051643  0  -0.101932  -0.265938  0  3.915507  0
C  C48  1  0.62162913  0.37893298  0.55082682  1  0.419229  0  0.108894  0.304011  0  4.085265  0
C  C49  1  0.46364908  0.42944512  0.57026876  1  -0.053439  0  -0.030394  -0.181884  0  3.937505  0
C  C50  1  0.27263130  0.45052984  0.61730969  1  0.04373  0  -0.081919  -0.062679  0  4.023981  0
C  C51  1  0.23916264  0.42453954  0.64611940  1  -0.044807  0  -0.103769  -0.174485  0  3.9936  0
C  C52  1  0.46292438  0.02582479  0.76273546  1  0.0161  0  -0.030236  -0.181897  0  3.937507  0
C  C53  1  0.27190311  0.99985096  0.78380498  1  0.098844  0  -0.081768  -0.062123  0  4.023783  0
C  C54  1  0.23873011  0.94505076  0.75782625  1  -0.110425  0  -0.104053  -0.174947  0  3.994401  0
C  C55  1  0.38968593  0.91403330  0.70726740  1  -0.007179  0  0.002578  0.166231  0  4.144156  0
C  C56  1  0.57280135  0.93916747  0.68499167  1  -0.027858  0  -0.101977  -0.266086  0  3.91525  0
C  C57  1  0.62121692  0.99476360  0.71225023  1  0.448248  0  0.108776  0.30342  0  4.086268  0
C  C58  1  0.36605030  0.85763479  0.67911447  1  -0.208507  0  -0.039264  -0.097395  0  4.083052  0
C  C59  1  0.36605639  0.80900610  0.65419732  1  0.004446  0  -0.039228  -0.097373  0  4.082909  0
C  C60  1  0.38986405  0.75260713  0.62604284  1  -0.009114  0  0.002619  0.166014  0  4.144452  0
C  C61  1  0.57293752  0.72748299  0.64833586  1  -0.02732  0  -0.101887  -0.265879  0  3.915841  0
C  C62  1  0.62165718  0.67189422  0.62106936  1  0.440906  0  0.108931  0.303901  0  4.085745  0
C  C63  1  0.46367132  0.64082560  0.57055786  1  0.022614  0  -0.030332  -0.181837  0  3.937404  0
C  C64  1  0.27263922  0.66678467  0.54947320  1  0.090156  0  -0.082068  -0.062887  0  4.0243  0
C  C65  1  0.23917945  0.72157977  0.57545902  1  -0.105853  0  -0.103746  -0.174439  0  3.993775  0
C  C66  1  0.46303651  0.23692076  0.97418341  1  -0.011709  0  -0.030335  -0.181853  0  3.937552  0
C  C67  1  0.27196928  0.28395495  0.00015049  1  0.006056  0  -0.081705  -0.062083  0  4.023543  0
C  C68  1  0.23876563  0.31277743  0.05495461  1  -0.035576  0  -0.104044  -0.175076  0  3.993761  0
C  C69  1  0.38979563  0.29323289  0.08596899  1  0.061102  0  0.002645  0.16622  0  4.144011  0
C  C70  1  0.57291598  0.24582849  0.06083975  1  0.035333  0  -0.102147  -0.266347  0  3.915769  0
C  C71  1  0.62132966  0.21749117  0.00524262  1  0.396119  0  0.108992  0.303813  0  4.086243  0
C  C72  1  0.36616450  0.32148098  0.14237053  1  -0.481636  0  -0.039123  -0.097066  0  4.082938  0
C  C73  1  0.36618238  0.34519242  0.19099996  1  0.154061  0  -0.039406  -0.097677  0  4.083178  0
C  C74  1  0.38996715  0.37343870  0.24740060  1  0.059991  0  0.002622  0.165869  0  4.144659  0
C  C75  1  0.57298589  0.42085725  0.27252095  1  0.038512  0  -0.101751  -0.265712  0  3.915969  0
C  C76  1  0.62165514  0.44918294  0.32811186  1  0.38857  0  0.108825  0.303693  0  4.085997  0
C  C77  1  0.46367125  0.42973682  0.35917728  1  -0.00519  0  -0.030221  -0.181695  0  3.937477  0
C  C78  1  0.27270369  0.38269220  0.33322119  1  0.002528  0  -0.082029  -0.062748  0  4.024274  0
C  C79  1  0.23926959  0.35387977  0.27842696  1  -0.036477  0  -0.103909  -0.174522  0  3.993827  0
N  N80  1  0.80189368  0.31172284  0.82893319  1  -1.246239  0  -0.596382  -0.617968  0  3.310177  0
N  N81  1  0.80215347  0.35493174  0.50439744  1  -1.245764  0  -0.596614  -0.618702  0  3.309661  0
N  N82  1  0.80181669  0.01720660  0.68826685  1  -1.249502  0  -0.596342  -0.617869  0  3.309786  0
N  N83  1  0.80220057  0.64946336  0.64507118  1  -1.248102  0  -0.596708  -0.618701  0  3.309988  0
N  N84  1  0.80189104  0.17107077  0.98280838  1  -1.244475  0  -0.596464  -0.618403  0  3.310566  0
N  N85  1  0.80211377  0.49561823  0.35053754  1  -1.284312  0  -0.596619  -0.618443  0  3.309841  0
O  O86  1  0.73465616  0.55968937  0.54916723  1  -1.261403  0  -0.237779  -0.603514  0  2.39128  0
O  O87  1  0.73461096  0.48948677  0.44031362  1  -1.256693  0  -0.237809  -0.603604  0  2.391476  0
O  O88  1  0.73463288  0.45083225  0.51051828  1  -1.259545  0  -0.237745  -0.603525  0  2.391525  0
O  O89  1  0.26794127  0.55649126  0.50384992  1  -1.268419  0  -0.251175  -0.61498  0  2.363607  0
O  O90  1  0.26792286  0.49614985  0.55263405  1  -1.26256  0  -0.25126  -0.61514  0  2.363709  0
O  O91  1  0.26794084  0.44736923  0.44351094  1  -1.260777  0  -0.251164  -0.614975  0  2.363577  0
O  O92  1  0.73354597  0.17713154  0.89301308  1  -1.256115  0  -0.237654  -0.603893  0  2.39105  0
O  O93  1  0.73356390  0.21586706  0.82287309  1  -1.260128  0  -0.237543  -0.603812  0  2.391056  0
O  O94  1  0.73353812  0.10699476  0.78413163  1  -1.260171  0  -0.237581  -0.603743  0  2.390695  0
O  O95  1  0.26685178  0.21927111  0.88985826  1  -1.261923  0  -0.251379  -0.615214  0  2.364228  0
O  O96  1  0.26683391  0.11014382  0.82942514  1  -1.265862  0  -0.251178  -0.615056  0  2.364288  0
O  O97  1  0.26681497  0.17057277  0.78073294  1  -1.262824  0  -0.250951  -0.615135  0  2.364347  0
