# generated using pymatgen
data_HgH5C6I2N3
_symmetry_space_group_name_H-M   'P 1'
_cell_length_a   5.51368649
_cell_length_b   18.48465811
_cell_length_c   23.48716257
_cell_angle_alpha   90.00139886
_cell_angle_beta   89.99696023
_cell_angle_gamma   89.27141361
_symmetry_Int_Tables_number   1
_chemical_formula_structural   HgH5C6I2N3
_chemical_formula_sum   'Hg8 H40 C48 I16 N24'
_cell_volume   2393.58541359
_cell_formula_units_Z   8
loop_
 _symmetry_equiv_pos_site_id
 _symmetry_equiv_pos_as_xyz
  1  'x, y, z'
loop_
 _atom_site_type_symbol
 _atom_site_label
 _atom_site_symmetry_multiplicity
 _atom_site_fract_x
 _atom_site_fract_y
 _atom_site_fract_z
 _atom_site_occupancy
 _atom_site_pbe_bader_charge
 _atom_site_pbe_bader_spin_density
 _atom_site_pbe_cm5_charge
 _atom_site_pbe_ddec_charge
 _atom_site_pbe_ddec_spin_density
 _atom_site_pbe_ddec_sum_bond_order
 _atom_site_pbe_magmom
Hg  Hg0  1  0.20832832  0.83910161  0.78745286  1  0.42872  0  0.347788  0.376638  0  2.49291  0
Hg  Hg1  1  0.79170453  0.66089540  0.28742763  1  0.428671  0  0.347804  0.376656  0  2.49342  0
Hg  Hg2  1  0.79162518  0.16087813  0.21256095  1  0.428554  0  0.347899  0.376698  0  2.492736  0
Hg  Hg3  1  0.20828753  0.33910576  0.71257511  1  0.428719  0  0.347894  0.376755  0  2.493314  0
Hg  Hg4  1  0.86995808  0.92429808  0.42759924  1  0.480242  0  0.357221  0.411295  0  2.552889  0
Hg  Hg5  1  0.12991674  0.57571794  0.92758544  1  0.480144  0  0.357159  0.411195  0  2.552475  0
Hg  Hg6  1  0.12999393  0.07569626  0.57240520  1  0.480041  0  0.357143  0.411285  0  2.552514  0
Hg  Hg7  1  0.86998026  0.42433299  0.07240154  1  0.48038  0  0.357087  0.411166  0  2.552729  0
H  H8  1  0.63318625  0.94687602  0.85462281  1  0.075105  0  0.10269  0.072899  0  1.020418  0
H  H9  1  0.36691323  0.55313378  0.35462555  1  0.075483  0  0.102657  0.072752  0  1.020539  0
H  H10  1  0.36677701  0.05313503  0.14536758  1  0.074948  0  0.102727  0.072916  0  1.020688  0
H  H11  1  0.63320558  0.44685691  0.64537420  1  0.075131  0  0.102613  0.072665  0  1.020514  0
H  H12  1  0.82272688  0.96427842  0.95047678  1  0.158869  0  0.109264  0.120641  0  1.062398  0
H  H13  1  0.17737253  0.53571626  0.45047077  1  0.158978  0  0.109183  0.120502  0  1.062264  0
H  H14  1  0.17729437  0.03573014  0.04951659  1  0.158508  0  0.109286  0.120552  0  1.062622  0
H  H15  1  0.82272267  0.46427294  0.54951962  1  0.158458  0  0.109249  0.120599  0  1.062493  0
H  H16  1  0.23034833  0.84098261  0.02058792  1  0.061107  0  0.102595  0.097692  0  1.046089  0
H  H17  1  0.76963780  0.65901796  0.52057420  1  0.061299  0  0.102645  0.097716  0  1.046153  0
H  H18  1  0.76962079  0.15904789  0.97942588  1  0.061064  0  0.10259  0.097692  0  1.04625  0
H  H19  1  0.23041179  0.34095906  0.47943195  1  0.061438  0  0.10258  0.097647  0  1.046288  0
H  H20  1  0.06848112  0.83027061  0.92351212  1  0.107447  0  0.092578  0.070888  0  1.051417  0
H  H21  1  0.93153884  0.66974174  0.42350810  1  0.107216  0  0.092572  0.070754  0  1.051519  0
H  H22  1  0.93144232  0.16974500  0.07649871  1  0.10773  0  0.092655  0.070971  0  1.051527  0
H  H23  1  0.06853451  0.33024380  0.57650443  1  0.107501  0  0.092654  0.070947  0  1.051464  0
H  H24  1  0.12567715  0.97993838  0.30885329  1  0.119264  0  0.086141  0.072259  0  1.062958  0
H  H25  1  0.87424457  0.52008279  0.80883739  1  0.117897  0  0.086254  0.072501  0  1.062707  0
H  H26  1  0.87437979  0.02004347  0.69115668  1  0.120119  0  0.086122  0.072157  0  1.06318  0
H  H27  1  0.12570812  0.47994294  0.19114874  1  0.118869  0  0.086239  0.072376  0  1.062679  0
H  H28  1  0.10630606  0.97563949  0.20300965  1  0.100262  0  0.103703  0.109705  0  1.029279  0
H  H29  1  0.89368678  0.52436175  0.70300072  1  0.10007  0  0.103827  0.110011  0  1.029337  0
H  H30  1  0.89370595  0.02436155  0.79699394  1  0.100187  0  0.103721  0.10979  0  1.029222  0
H  H31  1  0.10632518  0.47563713  0.29699052  1  0.10025  0  0.103657  0.109723  0  1.029347  0
H  H32  1  0.46205574  0.84578978  0.21917588  1  0.149329  0  0.099333  0.107796  0  1.061954  0
H  H33  1  0.53789865  0.65421108  0.71916619  1  0.148865  0  0.099349  0.107958  0  1.06202  0
H  H34  1  0.53791094  0.15421206  0.78082217  1  0.149426  0  0.099331  0.107744  0  1.062213  0
H  H35  1  0.46210935  0.34577213  0.28082292  1  0.148734  0  0.099332  0.107791  0  1.061871  0
H  H36  1  0.50797018  0.85681776  0.32455438  1  0.091309  0  0.088878  0.075059  0  1.047714  0
H  H37  1  0.49193119  0.64319095  0.82454282  1  0.091712  0  0.088913  0.075243  0  1.047526  0
H  H38  1  0.49204134  0.14316056  0.67544878  1  0.091203  0  0.088856  0.075049  0  1.047658  0
H  H39  1  0.50805720  0.35680806  0.17544118  1  0.091576  0  0.088887  0.075154  0  1.047486  0
H  H40  1  0.37590664  0.80566166  0.10058725  1  0.454691  0  0.315887  0.285511  0  0.931301  0
H  H41  1  0.62409283  0.69434709  0.60057249  1  0.454208  0  0.315703  0.285392  0  0.931362  0
H  H42  1  0.62407139  0.19436176  0.89941932  1  0.454087  0  0.315742  0.285305  0  0.931351  0
H  H43  1  0.37595685  0.30563426  0.39942940  1  0.453849  0  0.31575  0.285168  0  0.931662  0
H  H44  1  0.23830825  0.88726951  0.11397151  1  0.497735  0  0.293069  0.253911  0  1.058577  0
H  H45  1  0.76171363  0.61272507  0.61396286  1  0.497642  0  0.292978  0.253938  0  1.058497  0
H  H46  1  0.76168411  0.11274516  0.88603123  1  0.49772  0  0.293024  0.253986  0  1.058664  0
H  H47  1  0.23834669  0.38724539  0.38603009  1  0.498  0  0.293039  0.254012  0  1.05874  0
C  C48  1  0.67045355  0.91028856  0.04880080  1  0.924729  0  0.221983  0.168695  0  3.986643  0
C  C49  1  0.32957018  0.58971588  0.54878023  1  0.925541  0  0.222393  0.169142  0  3.98543  0
C  C50  1  0.32953522  0.08972830  0.95120918  1  0.923456  0  0.22218  0.168831  0  3.985713  0
C  C51  1  0.67047409  0.41026712  0.45120292  1  0.924199  0  0.222238  0.169078  0  3.986195  0
C  C52  1  0.77595100  0.91179962  0.13958483  1  0.876648  0  0.230418  0.194437  0  3.963502  0
C  C53  1  0.22401179  0.58820058  0.63958050  1  0.877132  0  0.230411  0.194421  0  3.96242  0
C  C54  1  0.22399788  0.08821801  0.86041237  1  0.878546  0  0.230412  0.194753  0  3.96191  0
C  C55  1  0.77600877  0.41177660  0.36041628  1  0.878334  0  0.230427  0.194681  0  3.962675  0
C  C56  1  0.54915038  0.92501501  0.89295123  1  0.483352  0  0.032451  0.082321  0  3.988078  0
C  C57  1  0.45091278  0.57498776  0.39294581  1  0.482961  0  0.03241  0.082458  0  3.989257  0
C  C58  1  0.45078755  0.07499943  0.10704725  1  0.519457  0  0.032295  0.082124  0  3.989442  0
C  C59  1  0.54918211  0.42498738  0.60705140  1  0.483994  0  0.03248  0.082472  0  3.988755  0
C  C60  1  0.65578625  0.93394602  0.94593736  1  -0.000146  0  -0.082379  -0.158557  0  3.907911  0
C  C61  1  0.34427533  0.56604543  0.44591884  1  0.000888  0  -0.08223  -0.158459  0  3.90899  0
C  C62  1  0.34417712  0.06607044  0.05406793  1  -0.035631  0  -0.082204  -0.158262  0  3.908707  0
C  C63  1  0.65581594  0.43392973  0.55406602  1  7.8e-05  0  -0.082275  -0.15847  0  3.908215  0
C  C64  1  0.54598588  0.90272732  0.99425962  1  -0.043127  0  0.010271  0.071779  0  3.992053  0
C  C65  1  0.45408210  0.59726932  0.49422766  1  -0.043905  0  0.010205  0.071828  0  3.991913  0
C  C66  1  0.45402113  0.09729431  0.00575929  1  -0.04346  0  0.010337  0.07186  0  3.99164  0
C  C67  1  0.54601286  0.40270852  0.50574996  1  -0.043054  0  0.010424  0.071811  0  3.991973  0
C  C68  1  0.32832203  0.86615873  0.98601751  1  -0.008446  0  -0.086049  -0.150501  0  3.959642  0
C  C69  1  0.67173918  0.63384904  0.48599481  1  -0.007969  0  -0.086005  -0.15035  0  3.9596  0
C  C70  1  0.67167248  0.13387217  0.01399544  1  -0.009572  0  -0.086271  -0.150575  0  3.959977  0
C  C71  1  0.32835416  0.36613801  0.51400069  1  -0.009835  0  -0.086193  -0.150327  0  3.95969  0
C  C72  1  0.23432506  0.86042127  0.93114855  1  0.553413  0  0.039644  0.107502  0  3.959727  0
C  C73  1  0.76572769  0.63959539  0.43113659  1  0.552889  0  0.039606  0.107572  0  3.960414  0
C  C74  1  0.76562755  0.13960120  0.06886014  1  0.55489  0  0.039545  0.107245  0  3.960586  0
C  C75  1  0.23436029  0.36039547  0.56886827  1  0.554944  0  0.039522  0.107136  0  3.960208  0
C  C76  1  0.98203041  0.95045628  0.28720514  1  0.447634  0  0.031917  0.08956  0  3.980718  0
C  C77  1  0.01785600  0.54955829  0.78718870  1  0.450272  0  0.031692  0.089243  0  3.981089  0
C  C78  1  0.01798309  0.04953015  0.71280313  1  0.448583  0  0.032  0.089812  0  3.981392  0
C  C79  1  0.98210004  0.45045442  0.21279530  1  0.449075  0  0.031754  0.089467  0  3.980641  0
C  C80  1  0.97136937  0.94771872  0.22832540  1  0.00906  0  -0.0835  -0.154057  0  3.936173  0
C  C81  1  0.02855539  0.55228544  0.72831944  1  0.008425  0  -0.083594  -0.154451  0  3.937173  0
C  C82  1  0.02861895  0.05227759  0.77167393  1  0.008763  0  -0.08357  -0.154308  0  3.936912  0
C  C83  1  0.97143112  0.44771034  0.27167095  1  0.009498  0  -0.083536  -0.15431  0  3.936324  0
C  C84  1  0.78203444  0.91001437  0.20178866  1  0.020624  0  0.011262  0.070553  0  3.98807  0
C  C85  1  0.21791183  0.58998801  0.70179655  1  0.020458  0  0.011393  0.070886  0  3.987481  0
C  C86  1  0.21793956  0.08999013  0.79819747  1  0.020434  0  0.011281  0.0706  0  3.987687  0
C  C87  1  0.78210346  0.40999732  0.29820704  1  0.01989  0  0.011517  0.070917  0  3.987283  0
C  C88  1  0.61186062  0.87598381  0.23700767  1  0.006959  0  -0.087842  -0.161607  0  3.933113  0
C  C89  1  0.38810547  0.62402316  0.73700453  1  0.007429  0  -0.087965  -0.162095  0  3.93344  0
C  C90  1  0.38814945  0.12401129  0.76298740  1  0.007056  0  -0.087825  -0.161556  0  3.933695  0
C  C91  1  0.61191903  0.37596807  0.26299097  1  0.007701  0  -0.087917  -0.161767  0  3.932717  0
C  C92  1  0.63730157  0.88229235  0.29582939  1  0.493744  0  0.035738  0.092421  0  3.974603  0
C  C93  1  0.36264405  0.61771194  0.79581813  1  0.493647  0  0.035953  0.092529  0  3.974744  0
C  C94  1  0.36272455  0.11769022  0.70417292  1  0.50151  0  0.035897  0.092584  0  3.975115  0
C  C95  1  0.63736067  0.38228697  0.20417099  1  0.49279  0  0.035723  0.092441  0  3.97413  0
I  I96  1  0.85453835  0.75758770  0.82956838  1  -0.262367  0  -0.150587  -0.250152  0  1.664292  0
I  I97  1  0.14542798  0.74243011  0.32951299  1  -0.262422  0  -0.150575  -0.250161  0  1.664312  0
I  I98  1  0.14541549  0.24240826  0.17046075  1  -0.262327  0  -0.150606  -0.250209  0  1.663947  0
I  I99  1  0.85457494  0.25756990  0.67048761  1  -0.262412  0  -0.150581  -0.250173  0  1.664364  0
I  I100  1  0.49295092  0.89809784  0.70973837  1  -0.246933  0  -0.181455  -0.26263  0  1.553765  0
I  I101  1  0.50713431  0.60187638  0.20973424  1  -0.246848  0  -0.181435  -0.262623  0  1.554237  0
I  I102  1  0.50703306  0.10186549  0.29027543  1  -0.246779  0  -0.181531  -0.262725  0  1.553911  0
I  I103  1  0.49282731  0.39814334  0.79026935  1  -0.246896  0  -0.181472  -0.262665  0  1.554154  0
I  I104  1  0.21060541  0.02601733  0.42467291  1  -0.243146  0  -0.163118  -0.233515  0  1.670438  0
I  I105  1  0.78932381  0.47397473  0.92466126  1  -0.243258  0  -0.163093  -0.233525  0  1.670109  0
I  I106  1  0.78924361  0.97399600  0.57534388  1  -0.243264  0  -0.163109  -0.233586  0  1.670167  0
I  I107  1  0.21056058  0.52608005  0.07532700  1  -0.243622  0  -0.163126  -0.233572  0  1.670052  0
I  I108  1  0.55556247  0.82220013  0.45744511  1  -0.283315  0  -0.189992  -0.275896  0  1.512362  0
I  I109  1  0.44433305  0.67782824  0.95740195  1  -0.283146  0  -0.189933  -0.275786  0  1.512624  0
I  I110  1  0.44437539  0.17781161  0.54258019  1  -0.283154  0  -0.189931  -0.275819  0  1.512445  0
I  I111  1  0.55561276  0.32221483  0.04258929  1  -0.283001  0  -0.189857  -0.275722  0  1.512558  0
N  N112  1  0.95237955  0.94161392  0.10887906  1  -0.700412  0  -0.219918  -0.246991  0  3.311735  0
N  N113  1  0.04759028  0.55837959  0.60887229  1  -0.701002  0  -0.219979  -0.246969  0  3.31134  0
N  N114  1  0.04756932  0.05840317  0.89112623  1  -0.701014  0  -0.219874  -0.247036  0  3.311078  0
N  N115  1  0.95243198  0.44159218  0.39112065  1  -0.701143  0  -0.219855  -0.246987  0  3.311396  0
N  N116  1  0.88731144  0.94059665  0.05301367  1  -0.679765  0  -0.208513  -0.214148  0  3.264478  0
N  N117  1  0.11271559  0.55940089  0.55300175  1  -0.679737  0  -0.208764  -0.214598  0  3.264451  0
N  N118  1  0.11267008  0.05942080  0.94699375  1  -0.67877  0  -0.208738  -0.214568  0  3.264412  0
N  N119  1  0.88734303  0.44057445  0.44698779  1  -0.67894  0  -0.208818  -0.214667  0  3.264233  0
N  N120  1  0.59690378  0.88965752  0.10297359  1  -0.846589  0  -0.132449  0.096515  0  3.722644  0
N  N121  1  0.40308885  0.61033921  0.60296451  1  -0.846499  0  -0.132585  0.096141  0  3.722378  0
N  N122  1  0.40306132  0.11035515  0.89702575  1  -0.846922  0  -0.132521  0.096206  0  3.722193  0
N  N123  1  0.59694435  0.38963519  0.39702972  1  -0.848103  0  -0.132532  0.096144  0  3.722413  0
N  N124  1  0.34153679  0.88856859  0.88533116  1  -1.222836  0  -0.318486  -0.218217  0  3.466702  0
N  N125  1  0.65847924  0.61143808  0.38533926  1  -1.223705  0  -0.3185  -0.218211  0  3.46788  0
N  N126  1  0.65837747  0.11144167  0.11466178  1  -1.223239  0  -0.318387  -0.217902  0  3.467892  0
N  N127  1  0.34158499  0.38854535  0.61467497  1  -1.223827  0  -0.318491  -0.218023  0  3.467644  0
N  N128  1  0.81721750  0.91868819  0.32047876  1  -1.214183  0  -0.318047  -0.206471  0  3.514335  0
N  N129  1  0.18268230  0.58132689  0.82044759  1  -1.214976  0  -0.318097  -0.206343  0  3.51453  0
N  N130  1  0.18281578  0.08129001  0.67953845  1  -1.223658  0  -0.318113  -0.206596  0  3.514837  0
N  N131  1  0.81728462  0.41868576  0.17952789  1  -1.21479  0  -0.317993  -0.206479  0  3.514331  0
N  N132  1  0.38857831  0.85420622  0.12104965  1  -0.788945  0  -0.490528  -0.495275  0  3.168973  0
N  N133  1  0.61143510  0.64580201  0.62104734  1  -0.788368  0  -0.490298  -0.495203  0  3.168597  0
N  N134  1  0.61140876  0.14581552  0.87894925  1  -0.788422  0  -0.490397  -0.495146  0  3.168705  0
N  N135  1  0.38862356  0.35417495  0.37895582  1  -0.787884  0  -0.490411  -0.494982  0  3.169097  0
