# generated using pymatgen
data_ZnP2H12C9O4
_symmetry_space_group_name_H-M   'P 1'
_cell_length_a   5.37696192
_cell_length_b   8.57386710
_cell_length_c   13.12401362
_cell_angle_alpha   89.71486410
_cell_angle_beta   101.86403586
_cell_angle_gamma   90.30953124
_symmetry_Int_Tables_number   1
_chemical_formula_structural   ZnP2H12C9O4
_chemical_formula_sum   'Zn2 P4 H24 C18 O8'
_cell_volume   592.09695760
_cell_formula_units_Z   2
loop_
 _symmetry_equiv_pos_site_id
 _symmetry_equiv_pos_as_xyz
  1  'x, y, z'
loop_
 _atom_site_type_symbol
 _atom_site_label
 _atom_site_symmetry_multiplicity
 _atom_site_fract_x
 _atom_site_fract_y
 _atom_site_fract_z
 _atom_site_occupancy
 _atom_site_hle17_bader_spin_density
 _atom_site_hle17_ddec_charge
 _atom_site_hle17_ddec_spin_density
 _atom_site_hle17_ddec_sum_bond_order
 _atom_site_hle17_magmom
 _atom_site_hse06_10hf_bader_spin_density
 _atom_site_hse06_10hf_ddec_charge
 _atom_site_hse06_10hf_ddec_spin_density
 _atom_site_hse06_10hf_ddec_sum_bond_order
 _atom_site_hse06_10hf_magmom
 _atom_site_hse06_bader_spin_density
 _atom_site_hse06_ddec_charge
 _atom_site_hse06_ddec_spin_density
 _atom_site_hse06_ddec_sum_bond_order
 _atom_site_hse06_magmom
 _atom_site_pbe_bader_spin_density
 _atom_site_pbe_cm5_charge
 _atom_site_pbe_ddec_charge
 _atom_site_pbe_ddec_spin_density
 _atom_site_pbe_ddec_sum_bond_order
 _atom_site_pbe_magmom
Zn  Zn0  1  0.24219417  0.36141208  0.96614773  1  0  1.23359  0  1.757881  0  0  1.072066  0  2.230461  0  0  1.115047  0  2.168493  0  0  0.723176  1.041603  0  2.27331  0
Zn  Zn1  1  0.77118013  0.85862302  0.03136047  1  0  1.23487  0  1.751423  0  0  1.074895  0  2.222638  0  0  1.117765  0  2.1608  0  0  0.724657  1.044461  0  2.26542  0
P  P2  1  0.72842302  0.53294312  0.93614309  1  0  1.532966  0  4.931256  0  0  1.380519  0  5.420563  0  0  1.430854  0  5.383961  0  0  0.332687  1.345382  0  5.445083  0
P  P3  1  0.28548924  0.03140153  0.06218753  1  0  1.542035  0  4.895202  0  0  1.39216  0  5.379684  0  0  1.443334  0  5.341597  0  0  0.339989  1.356396  0  5.405266  0
P  P4  1  0.82787759  0.30988200  0.76539484  1  0  1.076927  0  4.299986  0  0  0.97991  0  4.736457  0  0  1.009626  0  4.727828  0  0  0.247812  0.959266  0  4.742246  0
P  P5  1  0.17159536  0.81028259  0.23452539  1  0  1.078007  0  4.314828  0  0  0.980491  0  4.749795  0  0  1.010386  0  4.741313  0  0  0.244462  0.959719  0  4.755476  0
H  H6  1  0.46267147  0.46843746  0.76813711  1  0  0.181759  0  0.949312  0  0  0.192493  0  1.007513  0  0  0.196321  0  1.005789  0  0  0.114392  0.18975  0  1.008825  0
H  H7  1  0.73719244  0.58116213  0.75560381  1  0  0.173033  0  0.937896  0  0  0.189137  0  0.98523  0  0  0.192211  0  0.984489  0  0  0.117167  0.186957  0  0.98582  0
H  H8  1  0.54779942  0.95604243  0.22959660  1  0  0.185078  0  0.957851  0  0  0.194696  0  1.017656  0  0  0.198478  0  1.016163  0  0  0.114343  0.192029  0  1.018744  0
H  H9  1  0.28967844  0.07883055  0.24509924  1  0  0.17448  0  0.943029  0  0  0.189368  0  0.992461  0  0  0.19247  0  0.991681  0  0  0.115343  0.187179  0  0.993073  0
H  H10  1  0.70248390  0.14883024  0.89144275  1  0  0.156359  0  0.936428  0  0  0.168686  0  0.995264  0  0  0.171546  0  0.994681  0  0  0.118625  0.166528  0  0.995941  0
H  H11  1  0.47182290  0.14687147  0.77559199  1  0  0.128574  0  0.934336  0  0  0.145099  0  0.988273  0  0  0.14736  0  0.988015  0  0  0.106029  0.143479  0  0.988557  0
H  H12  1  0.28825386  0.64832418  0.10971881  1  0  0.155691  0  0.941459  0  0  0.168887  0  0.998308  0  0  0.17187  0  0.997447  0  0  0.118393  0.166646  0  0.99917  0
H  H13  1  0.51776554  0.63812097  0.22774060  1  0  0.124032  0  0.938626  0  0  0.139295  0  0.995839  0  0  0.141463  0  0.995617  0  0  0.103722  0.137763  0  0.996026  0
H  H14  1  0.71094555  0.88732831  0.80802819  1  0  0.110533  0  0.957395  0  0  0.132962  0  1.016558  0  0  0.134612  0  1.016051  0  0  0.092443  0.131676  0  1.017012  0
H  H15  1  0.99946155  0.98464150  0.80603960  1  0  0.115035  0  0.938703  0  0  0.137404  0  0.993854  0  0  0.13946  0  0.993026  0  0  0.093479  0.135848  0  0.994547  0
H  H16  1  0.75704551  0.97475739  0.69019568  1  0  0.067934  0  1.003246  0  0  0.085133  0  1.078416  0  0  0.085642  0  1.079861  0  0  0.073997  0.084774  0  1.077385  0
H  H17  1  0.24090831  0.38650288  0.18675552  1  0  0.115961  0  0.963288  0  0  0.138039  0  1.02096  0  0  0.13997  0  1.02026  0  0  0.092451  0.13655  0  1.02158  0
H  H18  1  0.97106497  0.49762388  0.19303336  1  0  0.109549  0  0.939368  0  0  0.1323  0  0.996673  0  0  0.134198  0  0.995934  0  0  0.093367  0.130876  0  0.997267  0
H  H19  1  0.21290948  0.47147960  0.30733712  1  0  0.067375  0  1.003822  0  0  0.085555  0  1.07811  0  0  0.086088  0  1.079517  0  0  0.07403  0.08516  0  1.077125  0
H  H20  1  0.11304838  0.45151629  0.62604186  1  0  0.090707  0  0.958164  0  0  0.100782  0  1.022139  0  0  0.103475  0  1.020976  0  0  0.102043  0.098828  0  1.023046  0
H  H21  1  0.05131803  0.46450674  0.43430794  1  0  0.08434  0  0.983774  0  0  0.094117  0  1.047501  0  0  0.096268  0  1.04806  0  0  0.09769  0.092554  0  1.04723  0
H  H22  1  0.68626384  0.32513451  0.32252954  1  0  0.100473  0  0.932362  0  0  0.117398  0  0.979537  0  0  0.119774  0  0.979057  0  0  0.111589  0.115653  0  0.98  0
H  H23  1  0.37670543  0.17898765  0.40608341  1  0  0.084061  0  0.965305  0  0  0.094536  0  1.027089  0  0  0.096752  0  1.027333  0  0  0.098851  0.09294  0  1.027036  0
H  H24  1  0.43277700  0.17003928  0.59687613  1  0  0.089124  0  0.962135  0  0  0.101088  0  1.023483  0  0  0.103079  0  1.023867  0  0  0.103099  0.099632  0  1.023308  0
H  H25  1  0.56037129  0.66711044  0.40280064  1  0  0.088752  0  0.965029  0  0  0.099391  0  1.02824  0  0  0.1015  0  1.028428  0  0  0.102089  0.097911  0  1.0281  0
H  H26  1  0.61188125  0.66816868  0.59329935  1  0  0.08408  0  0.968822  0  0  0.094006  0  1.031766  0  0  0.096071  0  1.032262  0  0  0.098292  0.092472  0  1.031576  0
H  H27  1  0.30362888  0.81107099  0.67739734  1  0  0.100936  0  0.933453  0  0  0.117534  0  0.981258  0  0  0.120048  0  0.980592  0  0  0.111051  0.11568  0  0.98186  0
H  H28  1  0.94544868  0.95626424  0.56643298  1  0  0.083913  0  0.97833  0  0  0.094146  0  1.041213  0  0  0.096322  0  1.041615  0  0  0.097678  0.092574  0  1.041025  0
H  H29  1  0.88797738  0.95154639  0.37451809  1  0  0.091523  0  0.956074  0  0  0.102268  0  1.018387  0  0  0.104969  0  1.017282  0  0  0.102524  0.100294  0  1.019293  0
C  C30  1  0.66850861  0.48331007  0.79691901  1  0  -0.719489  0  3.599185  0  0  -0.717637  0  3.838972  0  0  -0.732682  0  3.840484  0  0  -0.177746  -0.707167  0  3.837915  0
C  C31  1  0.34362797  0.97901047  0.20237520  1  0  -0.720277  0  3.573144  0  0  -0.718454  0  3.810477  0  0  -0.733419  0  3.811077  0  0  -0.180477  -0.708073  0  3.810044  0
C  C32  1  0.67807564  0.13906366  0.80619612  1  0  -0.357575  0  3.65484  0  0  -0.369825  0  3.90277  0  0  -0.377922  0  3.914609  0  0  -0.164071  -0.364278  0  3.894867  0
C  C33  1  0.31226904  0.63673480  0.19484155  1  0  -0.361466  0  3.666325  0  0  -0.375434  0  3.916371  0  0  -0.38345  0  3.928173  0  0  -0.166481  -0.369904  0  3.908419  0
C  C34  1  0.79391984  0.98824411  0.77511220  1  0  -0.2469  0  3.704661  0  0  -0.324755  0  3.951962  0  0  -0.326081  0  3.962299  0  0  -0.244824  -0.323523  0  3.944826  0
C  C35  1  0.17698579  0.48993709  0.22278666  1  0  -0.245713  0  3.705266  0  0  -0.324138  0  3.952017  0  0  -0.325491  0  3.962365  0  0  -0.245606  -0.3229  0  3.944915  0
C  C36  1  0.77830583  0.30970995  0.62472524  1  0  -0.207235  0  3.758479  0  0  -0.167671  0  4.000447  0  0  -0.176134  0  4.025297  0  0  -0.027624  -0.161996  0  3.98368  0
C  C37  1  0.21892953  0.80856462  0.37525450  1  0  -0.204241  0  3.755274  0  0  -0.163996  0  3.995959  0  0  -0.172421  0  4.020915  0  0  -0.026611  -0.158362  0  3.979157  0
C  C38  1  0.95088801  0.39250537  0.57769188  1  0  -0.05565  0  3.757751  0  0  -0.077239  0  4.001525  0  0  -0.077326  0  4.022763  0  0  -0.082114  -0.077055  0  3.987096  0
C  C39  1  0.42350938  0.72994713  0.43779924  1  0  -0.061763  0  3.763125  0  0  -0.081505  0  4.003559  0  0  -0.082098  0  4.026466  0  0  -0.08255  -0.080988  0  3.98801  0
C  C40  1  0.91664869  0.39885105  0.46952915  1  0  -0.072442  0  3.765902  0  0  -0.083169  0  4.011845  0  0  -0.086393  0  4.034067  0  0  -0.088209  -0.080992  0  3.996754  0
C  C41  1  0.45288776  0.73081998  0.54597125  1  0  -0.071424  0  3.761367  0  0  -0.083042  0  4.011166  0  0  -0.086247  0  4.033551  0  0  -0.089277  -0.080884  0  3.996013  0
C  C42  1  0.71157446  0.32119604  0.40719098  1  0  -0.06191  0  3.742451  0  0  -0.075911  0  3.986619  0  0  -0.076418  0  4.006791  0  0  -0.082832  -0.075434  0  3.972884  0
C  C43  1  0.28059096  0.81112252  0.59280273  1  0  -0.064504  0  3.744949  0  0  -0.079023  0  3.990123  0  0  -0.079518  0  4.010176  0  0  -0.083596  -0.078545  0  3.976433  0
C  C44  1  0.53849775  0.23920297  0.45373460  1  0  -0.071696  0  3.762338  0  0  -0.083599  0  4.012525  0  0  -0.086831  0  4.034824  0  0  -0.088591  -0.081454  0  3.997396  0
C  C45  1  0.07940627  0.89202912  0.53080272  1  0  -0.070901  0  3.765638  0  0  -0.0813  0  4.011578  0  0  -0.084411  0  4.033682  0  0  -0.088338  -0.0792  0  3.996532  0
C  C46  1  0.57038174  0.23386882  0.56199318  1  0  -0.058136  0  3.75938  0  0  -0.078768  0  4.000045  0  0  -0.079231  0  4.022892  0  0  -0.081336  -0.078308  0  3.984515  0
C  C47  1  0.04761661  0.89022811  0.42260479  1  0  -0.055149  0  3.753308  0  0  -0.07707  0  3.996914  0  0  -0.077105  0  4.017962  0  0  -0.082117  -0.076934  0  3.982627  0
O  O48  1  0.01690086  0.53590109  0.97526028  1  0  -0.864939  0  2.02932  0  0  -0.767696  0  2.315492  0  0  -0.796701  0  2.291221  0  0  -0.372572  -0.747211  0  2.331686  0
O  O49  1  0.10363863  0.90861417  0.00311714  1  0  -0.873291  0  2.021857  0  0  -0.779222  0  2.308153  0  0  -0.808094  0  2.28403  0  0  -0.376172  -0.758761  0  2.324156  0
O  O50  1  0.17105751  0.19545344  0.05635654  1  0  -0.865804  0  2.004344  0  0  -0.77341  0  2.293465  0  0  -0.802423  0  2.267991  0  0  -0.379918  -0.752804  0  2.310396  0
O  O51  1  0.61044328  0.69492687  0.93985005  1  0  -0.859099  0  1.977999  0  0  -0.769048  0  2.267954  0  0  -0.797281  0  2.241825  0  0  -0.381041  -0.748983  0  2.285331  0
O  O52  1  0.59963661  0.40558562  0.98979933  1  0  -0.861336  0  2.000112  0  0  -0.767617  0  2.291708  0  0  -0.796091  0  2.266208  0  0  -0.379757  -0.747418  0  2.308632  0
O  O53  1  0.54290567  0.03137501  0.02948603  1  0  -0.861424  0  2.016279  0  0  -0.768043  0  2.307897  0  0  -0.796923  0  2.28175  0  0  -0.377113  -0.747515  0  2.325301  0
O  O54  1  0.11435453  0.31518095  0.81013433  1  0  -0.783913  0  1.972591  0  0  -0.703312  0  2.252735  0  0  -0.727927  0  2.234079  0  0  -0.357888  -0.685941  0  2.265166  0
O  O55  1  0.88544382  0.81827012  0.18947907  1  0  -0.785419  0  1.973526  0  0  -0.703474  0  2.250552  0  0  -0.728339  0  2.232645  0  0  -0.358609  -0.685956  0  2.262458  0
