# generated using pymatgen
data_FeAg2H4(C4N3)2
_symmetry_space_group_name_H-M   'P 1'
_cell_length_a   6.68695613
_cell_length_b   7.17478598
_cell_length_c   8.42443670
_cell_angle_alpha   80.46717396
_cell_angle_beta   69.18904909
_cell_angle_gamma   62.19975877
_symmetry_Int_Tables_number   1
_chemical_formula_structural   FeAg2H4(C4N3)2
_chemical_formula_sum   'Fe1 Ag2 H4 C8 N6'
_cell_volume   334.20582610
_cell_formula_units_Z   1
loop_
 _symmetry_equiv_pos_site_id
 _symmetry_equiv_pos_as_xyz
  1  'x, y, z'
loop_
 _atom_site_type_symbol
 _atom_site_label
 _atom_site_symmetry_multiplicity
 _atom_site_fract_x
 _atom_site_fract_y
 _atom_site_fract_z
 _atom_site_occupancy
 _atom_site_hle17_bader_spin_density
 _atom_site_hle17_ddec_charge
 _atom_site_hle17_ddec_spin_density
 _atom_site_hle17_ddec_sum_bond_order
 _atom_site_hle17_magmom
 _atom_site_hse06_10hf_bader_spin_density
 _atom_site_hse06_10hf_ddec_charge
 _atom_site_hse06_10hf_ddec_spin_density
 _atom_site_hse06_10hf_ddec_sum_bond_order
 _atom_site_hse06_10hf_magmom
 _atom_site_hse06_bader_spin_density
 _atom_site_hse06_ddec_charge
 _atom_site_hse06_ddec_spin_density
 _atom_site_hse06_ddec_sum_bond_order
 _atom_site_hse06_magmom
 _atom_site_pbe_bader_spin_density
 _atom_site_pbe_cm5_charge
 _atom_site_pbe_ddec_charge
 _atom_site_pbe_ddec_spin_density
 _atom_site_pbe_ddec_sum_bond_order
 _atom_site_pbe_magmom
Fe  Fe0  1  0.29781751  0.00002178  0.08399462  1  0  0.581209  0  3.538417  0  0  0.576831  0  3.993125  0  0  0.598263  0  3.957064  0  0  0.924686  0.569819  0  4.008764  0
Ag  Ag1  1  0.79848004  0.49887673  0.58470340  1  0  0.282542  0  1.963037  0  0  0.172913  0  2.435925  0  0  0.18987  0  2.386418  0  0  0.312801  0.161656  0  2.470851  0
Ag  Ag2  1  0.29624365  0.50137515  0.58478152  1  0  0.283089  0  1.96112  0  0  0.173547  0  2.433815  0  0  0.190392  0  2.384472  0  0  0.312781  0.162129  0  2.46904  0
H  H3  1  0.82163373  0.32760883  0.08266433  1  0  0.10471  0  0.94107  0  0  0.109683  0  1.005704  0  0  0.110952  0  1.005428  0  0  0.129675  0.10886  0  1.005965  0
H  H4  1  0.14990955  0.67225350  0.08209837  1  0  0.10443  0  0.941925  0  0  0.109534  0  1.00639  0  0  0.110847  0  1.006022  0  0  0.129055  0.1087  0  1.006712  0
H  H5  1  0.44573592  0.32745439  0.08528532  1  0  0.103991  0  0.944012  0  0  0.109929  0  1.0075  0  0  0.111175  0  1.007287  0  0  0.129267  0.10915  0  1.007679  0
H  H6  1  0.77382921  0.67230384  0.08482753  1  0  0.104306  0  0.942204  0  0  0.110252  0  1.005502  0  0  0.111496  0  1.005258  0  0  0.129653  0.109441  0  1.00575  0
C  C7  1  0.00041140  0.32103013  0.37257265  1  0  -0.072247  0  3.418949  0  0  -0.04561  0  3.768055  0  0  -0.042281  0  3.773665  0  0  -0.031849  -0.047869  0  3.764515  0
C  C8  1  0.32059358  0.67930894  0.37267265  1  0  -0.071545  0  3.418027  0  0  -0.04497  0  3.767155  0  0  -0.041681  0  3.77285  0  0  -0.03208  -0.047292  0  3.763776  0
C  C9  1  0.59707332  0.67719590  0.79672394  1  0  -0.070958  0  3.419693  0  0  -0.044564  0  3.769374  0  0  -0.041235  0  3.774938  0  0  -0.0315  -0.046831  0  3.765891  0
C  C10  1  0.27339339  0.32288489  0.79668349  1  0  -0.071623  0  3.417259  0  0  -0.045099  0  3.766717  0  0  -0.041828  0  3.772381  0  0  -0.031717  -0.047417  0  3.763366  0
C  C11  1  0.81080509  0.18120678  0.08308408  1  0  0.074174  0  3.639628  0  0  0.048009  0  3.888564  0  0  0.052768  0  3.902184  0  0  0.060911  0.044207  0  3.880362  0
C  C12  1  0.99234774  0.81863197  0.08281945  1  0  0.072659  0  3.64025  0  0  0.046833  0  3.888302  0  0  0.051515  0  3.902072  0  0  0.061721  0.04302  0  3.880069  0
C  C13  1  0.60334421  0.18118140  0.08451962  1  0  0.071847  0  3.641972  0  0  0.045209  0  3.890269  0  0  0.050071  0  3.903377  0  0  0.061369  0.041444  0  3.882179  0
C  C14  1  0.78489742  0.81859556  0.08428220  1  0  0.072954  0  3.641193  0  0  0.046306  0  3.889624  0  0  0.051275  0  3.902582  0  0  0.060988  0.042563  0  3.881473  0
N  N15  1  0.11568330  0.20651147  0.25599231  1  0  -0.313885  0  3.4032  0  0  -0.287105  0  3.683891  0  0  -0.304469  0  3.707026  0  0  -0.388017  -0.276478  0  3.666921  0
N  N16  1  0.32211160  0.79355908  0.25596050  1  0  -0.314436  0  3.403847  0  0  -0.287574  0  3.684567  0  0  -0.304964  0  3.707711  0  0  -0.387408  -0.276928  0  3.66759  0
N  N17  1  0.48070253  0.79295316  0.91243997  1  0  -0.315946  0  3.404355  0  0  -0.289068  0  3.685209  0  0  -0.30636  0  3.70824  0  0  -0.388498  -0.278486  0  3.668291  0
N  N18  1  0.27323184  0.20719608  0.91244513  1  0  -0.314769  0  3.400178  0  0  -0.287845  0  3.680806  0  0  -0.30515  0  3.703848  0  0  -0.387518  -0.277266  0  3.663926  0
N  N19  1  0.00727610  0.99994184  0.08248809  1  0  -0.156084  0  3.352149  0  0  -0.109267  0  3.610364  0  0  -0.121157  0  3.62658  0  0  -0.31687  -0.101746  0  3.598411  0
N  N20  1  0.58838776  0.99989826  0.08495978  1  0  -0.154417  0  3.354514  0  0  -0.107942  0  3.613035  0  0  -0.119498  0  3.628908  0  0  -0.31745  -0.100677  0  3.601373  0
