# generated using pymatgen
data_SmPH15C7NO7
_symmetry_space_group_name_H-M   'P 1'
_cell_length_a   5.48393130
_cell_length_b   12.17016926
_cell_length_c   20.36420553
_cell_angle_alpha   89.99993721
_cell_angle_beta   88.83324152
_cell_angle_gamma   90.00032539
_symmetry_Int_Tables_number   1
_chemical_formula_structural   SmPH15C7NO7
_chemical_formula_sum   'Sm4 P4 H60 C28 N4 O28'
_cell_volume   1358.83286304
_cell_formula_units_Z   4
loop_
 _symmetry_equiv_pos_site_id
 _symmetry_equiv_pos_as_xyz
  1  'x, y, z'
loop_
 _atom_site_type_symbol
 _atom_site_label
 _atom_site_symmetry_multiplicity
 _atom_site_fract_x
 _atom_site_fract_y
 _atom_site_fract_z
 _atom_site_occupancy
 _atom_site_pbe_bader_charge
 _atom_site_pbe_bader_spin_density
 _atom_site_pbe_cm5_charge
 _atom_site_pbe_ddec_charge
 _atom_site_pbe_ddec_spin_density
 _atom_site_pbe_ddec_sum_bond_order
 _atom_site_pbe_magmom
Sm  Sm0  1  0.36648709  0.85008296  0.02571085  1  2.213721  0  1.539361  2.165437  0  2.109482  0
Sm  Sm1  1  0.63351365  0.35008578  0.47429032  1  2.2137  0  1.539359  2.165473  0  2.109454  0
Sm  Sm2  1  0.63349155  0.14991244  0.97429115  1  2.213528  0  1.539351  2.165412  0  2.109605  0
Sm  Sm3  1  0.36651009  0.64991456  0.52570690  1  2.213503  0  1.539357  2.165502  0  2.109445  0
P  P4  1  0.12422191  0.97548151  0.91020878  1  3.33266  0  0.323208  1.337506  0  5.412272  0
P  P5  1  0.87577777  0.47549255  0.58978982  1  3.332431  0  0.323324  1.33767  0  5.412217  0
P  P6  1  0.87577091  0.02451225  0.08978801  1  3.332404  0  0.323247  1.337572  0  5.411944  0
P  P7  1  0.12422997  0.52450860  0.41021259  1  3.332349  0  0.323287  1.337616  0  5.41191  0
H  H8  1  0.79264309  0.81401100  0.93364896  1  0.650987  0  0.301223  0.418603  0  0.911987  0
H  H9  1  0.20735720  0.31402096  0.56635083  1  0.651032  0  0.30118  0.41852  0  0.912079  0
H  H10  1  0.20735803  0.18597536  0.06635089  1  0.650973  0  0.301218  0.418528  0  0.912076  0
H  H11  1  0.79265771  0.68597526  0.43364528  1  0.650928  0  0.301208  0.418607  0  0.911984  0
H  H12  1  0.56304790  0.80852612  0.88747650  1  0.602448  0  0.316901  0.395056  0  0.914398  0
H  H13  1  0.43694800  0.30853230  0.61252569  1  0.602369  0  0.316909  0.395132  0  0.914321  0
H  H14  1  0.43693580  0.19146189  0.11252705  1  0.602333  0  0.316945  0.395157  0  0.914296  0
H  H15  1  0.56307809  0.69145489  0.38746959  1  0.60137  0  0.316947  0.395151  0  0.914278  0
H  H16  1  0.19690759  0.61472946  0.05203430  1  0.620215  0  0.331271  0.414972  0  0.873501  0
H  H17  1  0.80308820  0.11473095  0.44797055  1  0.62034  0  0.331249  0.414888  0  0.873608  0
H  H18  1  0.80305283  0.38527251  0.94797434  1  0.620045  0  0.331242  0.414882  0  0.873616  0
H  H19  1  0.19695038  0.88527349  0.55201900  1  0.620085  0  0.331207  0.414835  0  0.873655  0
H  H20  1  0.95336645  0.68538811  0.04075914  1  0.675273  0  0.297541  0.407507  0  0.927554  0
H  H21  1  0.04663302  0.18538751  0.45924321  1  0.67527  0  0.29754  0.407563  0  0.927479  0
H  H22  1  0.04658580  0.31461058  0.95924594  1  0.675194  0  0.297511  0.407453  0  0.927653  0
H  H23  1  0.95341218  0.81461282  0.54074889  1  0.675006  0  0.297499  0.407444  0  0.927672  0
H  H24  1  0.28784539  0.04156371  0.80961625  1  0.113142  0  0.12173  0.137918  0  1.003668  0
H  H25  1  0.71216568  0.54156868  0.69038748  1  0.113284  0  0.121703  0.137889  0  1.003719  0
H  H26  1  0.71215690  0.95843826  0.19038608  1  0.113128  0  0.121717  0.137918  0  1.003736  0
H  H27  1  0.28782622  0.45843576  0.30961274  1  0.113117  0  0.121726  0.137937  0  1.003728  0
H  H28  1  0.39337603  0.90760105  0.82280149  1  0.026985  0  0.099667  0.085932  0  1.036158  0
H  H29  1  0.60663079  0.40760087  0.67720025  1  0.027048  0  0.099672  0.085955  0  1.036138  0
H  H30  1  0.60660832  0.09240093  0.17719961  1  0.026867  0  0.099709  0.08596  0  1.036052  0
H  H31  1  0.39339100  0.59239782  0.32279744  1  0.026913  0  0.099706  0.085979  0  1.03605  0
H  H32  1  0.23982653  0.93130075  0.69153162  1  0.027951  0  0.08548  0.047098  0  0.997157  0
H  H33  1  0.76018525  0.43130478  0.80846671  1  0.028074  0  0.085469  0.047123  0  0.997251  0
H  H34  1  0.76018005  0.06871191  0.30846832  1  0.027909  0  0.085452  0.047062  0  0.997302  0
H  H35  1  0.23979430  0.56870295  0.19153186  1  0.028157  0  0.085425  0.047024  0  0.997278  0
H  H36  1  0.07778969  0.05160043  0.71690397  1  0.009461  0  0.103765  0.081542  0  1.003837  0
H  H37  1  0.92224066  0.55159989  0.78309657  1  0.009317  0  0.103727  0.081512  0  1.003821  0
H  H38  1  0.92220155  0.94841059  0.28309870  1  0.009392  0  0.103675  0.081376  0  1.004001  0
H  H39  1  0.07775838  0.44840455  0.21690424  1  0.009394  0  0.103646  0.081434  0  1.003934  0
H  H40  1  0.88191506  0.96020478  0.62204055  1  0.042564  0  0.09427  0.089762  0  0.995208  0
H  H41  1  0.11809722  0.46019946  0.87795775  1  0.042739  0  0.094284  0.089751  0  0.995175  0
H  H42  1  0.11809218  0.03980213  0.37795693  1  0.042734  0  0.094285  0.089744  0  0.995203  0
H  H43  1  0.88186775  0.53980170  0.12204751  1  0.042963  0  0.094296  0.089801  0  0.995315  0
H  H44  1  0.68501276  0.96548552  0.69207799  1  0.035044  0  0.093199  0.091927  0  0.987379  0
H  H45  1  0.31499726  0.46547732  0.80792224  1  0.034692  0  0.093225  0.09197  0  0.987371  0
H  H46  1  0.31498720  0.03451645  0.30791939  1  0.035019  0  0.093229  0.091936  0  0.987372  0
H  H47  1  0.68498395  0.53452220  0.19208374  1  0.034794  0  0.093318  0.092065  0  0.987333  0
H  H48  1  0.00393579  0.76767590  0.65418597  1  0.064182  0  0.113958  0.097443  0  0.991714  0
H  H49  1  0.99606409  0.26766878  0.84581240  1  0.064297  0  0.113926  0.097421  0  0.991687  0
H  H50  1  0.99609014  0.23233429  0.34581669  1  0.064018  0  0.113921  0.097415  0  0.991598  0
H  H51  1  0.00390974  0.73233320  0.15418708  1  0.064469  0  0.113939  0.097446  0  0.991493  0
H  H52  1  0.76850828  0.67540989  0.74538219  1  -0.016955  0  0.091638  0.08588  0  1.035705  0
H  H53  1  0.23149445  0.17540572  0.75461338  1  -0.016989  0  0.091635  0.085903  0  1.035597  0
H  H54  1  0.23150014  0.32459701  0.25461087  1  -0.017034  0  0.091608  0.08582  0  1.03559  0
H  H55  1  0.76850535  0.82460119  0.24539139  1  -0.016949  0  0.091605  0.085793  0  1.035558  0
H  H56  1  0.62141744  0.80062577  0.76374094  1  0.041951  0  0.085708  0.072949  0  1.032361  0
H  H57  1  0.37857703  0.30062514  0.73625928  1  0.04199  0  0.085703  0.07295  0  1.032436  0
H  H58  1  0.37857421  0.19937210  0.23625337  1  0.041847  0  0.085663  0.072889  0  1.032531  0
H  H59  1  0.62142523  0.69937601  0.26374994  1  0.041756  0  0.085667  0.072914  0  1.032484  0
H  H60  1  0.98722290  0.77428539  0.83478299  1  0.062456  0  0.103729  0.085877  0  1.005283  0
H  H61  1  0.01278060  0.27428671  0.66521591  1  0.062332  0  0.103724  0.085863  0  1.005308  0
H  H62  1  0.01277120  0.22571576  0.16521579  1  0.062506  0  0.103771  0.085954  0  1.005255  0
H  H63  1  0.98723663  0.72571938  0.33478515  1  0.062464  0  0.103766  0.085939  0  1.005235  0
H  H64  1  0.17574942  0.75952079  0.76324100  1  0.026245  0  0.090268  0.062625  0  0.987711  0
H  H65  1  0.82425032  0.25952337  0.73675738  1  0.026294  0  0.090281  0.062648  0  0.987718  0
H  H66  1  0.82425249  0.24048118  0.23675592  1  0.025942  0  0.090261  0.062611  0  0.987764  0
H  H67  1  0.17574911  0.74047861  0.26324196  1  0.025932  0  0.090267  0.062617  0  0.987767  0
C  C68  1  0.22602492  0.95934875  0.82487072  1  -0.214017  0  -0.063816  -0.353583  0  3.940522  0
C  C69  1  0.77398708  0.45935214  0.67512856  1  -0.21411  0  -0.0638  -0.353644  0  3.9404  0
C  C70  1  0.77396827  0.04065076  0.17513149  1  -0.213713  0  -0.063895  -0.353706  0  3.940327  0
C  C71  1  0.22602614  0.54064984  0.32486703  1  -0.213668  0  -0.063953  -0.35386  0  3.940291  0
C  C72  1  0.06666103  0.96169951  0.71479355  1  0.303081  0  -0.067717  -0.045907  0  3.936948  0
C  C73  1  0.93334569  0.46169728  0.78520516  1  0.303307  0  -0.067663  -0.04592  0  3.937066  0
C  C74  1  0.93333645  0.03830821  0.28520626  1  0.303325  0  -0.067578  -0.045616  0  3.937207  0
C  C75  1  0.06663827  0.53830387  0.21479741  1  0.303326  0  -0.067455  -0.045656  0  3.937134  0
C  C76  1  0.85412053  0.92825858  0.67211802  1  -0.033073  0  -0.159045  -0.181656  0  3.935036  0
C  C77  1  0.14589888  0.42825090  0.82787894  1  -0.033227  0  -0.159085  -0.18169  0  3.935156  0
C  C78  1  0.14588515  0.07174750  0.32787845  1  -0.033438  0  -0.159093  -0.181737  0  3.934988  0
C  C79  1  0.85408885  0.57174615  0.17212319  1  -0.033342  0  -0.159226  -0.181939  0  3.935369  0
C  C80  1  0.82910319  0.80260213  0.67239916  1  -0.010714  0  -0.089798  -0.117438  0  3.884759  0
C  C81  1  0.17089508  0.30259695  0.82760062  1  -0.0103  0  -0.08975  -0.117338  0  3.884697  0
C  C82  1  0.17091457  0.19740395  0.32759994  1  -0.009994  0  -0.089778  -0.117289  0  3.884096  0
C  C83  1  0.82908588  0.69739927  0.17240634  1  -0.010852  0  -0.089704  -0.117197  0  3.884303  0
C  C84  1  0.79067507  0.76479404  0.74316124  1  -0.008999  0  -0.164643  -0.178295  0  3.945321  0
C  C85  1  0.20932672  0.26479147  0.75683667  1  -0.009033  0  -0.164665  -0.178383  0  3.945193  0
C  C86  1  0.20933127  0.23520958  0.25683278  1  -0.008673  0  -0.164569  -0.178166  0  3.944806  0
C  C87  1  0.79067074  0.73520886  0.24317003  1  -0.008714  0  -0.164596  -0.178246  0  3.944894  0
C  C88  1  0.00856035  0.80048063  0.78342032  1  0.296237  0  -0.07343  -0.06545  0  3.921665  0
C  C89  1  0.99144595  0.30048269  0.71657662  1  0.296193  0  -0.073448  -0.065485  0  3.921725  0
C  C90  1  0.99143117  0.19952299  0.21657448  1  0.296381  0  -0.073496  -0.065582  0  3.921668  0
C  C91  1  0.00856334  0.69952422  0.28342679  1  0.296492  0  -0.073515  -0.065576  0  3.921608  0
C  C92  1  0.64152026  0.76304956  0.62446130  1  1.520826  0  0.201841  0.588567  0  4.166488  0
C  C93  1  0.35849826  0.26303395  0.87553536  1  1.520725  0  0.201966  0.588571  0  4.166847  0
C  C94  1  0.35849932  0.23694996  0.37553783  1  1.520093  0  0.201966  0.588672  0  4.166443  0
C  C95  1  0.64150441  0.73695406  0.12446550  1  1.520365  0  0.201923  0.588509  0  4.166273  0
N  N96  1  0.03578470  0.92035492  0.78188900  1  -1.044197  0  -0.338518  -0.096801  0  3.485894  0
N  N97  1  0.96423183  0.42035774  0.71811138  1  -1.04421  0  -0.338526  -0.096757  0  3.485866  0
N  N98  1  0.96421851  0.07964953  0.21810990  1  -1.044191  0  -0.338526  -0.096815  0  3.485992  0
N  N99  1  0.03576876  0.57964752  0.28189044  1  -1.044269  0  -0.338589  -0.096747  0  3.485863  0
O  O100  1  0.34911614  0.01444081  0.94926326  1  -1.473259  0  -0.524414  -0.969904  0  2.388858  0
O  O101  1  0.65087005  0.51444090  0.55073621  1  -1.473296  0  -0.524448  -0.969986  0  2.388967  0
O  O102  1  0.65084794  0.98555624  0.05073854  1  -1.473247  0  -0.524474  -0.969978  0  2.388721  0
O  O103  1  0.34915551  0.48555532  0.44926103  1  -1.473284  0  -0.524473  -0.969986  0  2.38873  0
O  O104  1  0.06130233  0.86120201  0.94008877  1  -1.464215  0  -0.434128  -0.844413  0  2.210644  0
O  O105  1  0.93871189  0.36121155  0.55990968  1  -1.46421  0  -0.434236  -0.844459  0  2.21042  0
O  O106  1  0.93869997  0.13878928  0.05990667  1  -1.464219  0  -0.434122  -0.844385  0  2.210635  0
O  O107  1  0.06130405  0.63879043  0.44008940  1  -1.464107  0  -0.434151  -0.844394  0  2.210561  0
O  O108  1  0.91591311  0.05772254  0.91169498  1  -1.463774  0  -0.477897  -0.85105  0  2.262994  0
O  O109  1  0.08407173  0.55773808  0.58830540  1  -1.46363  0  -0.477898  -0.851059  0  2.263168  0
O  O110  1  0.08404760  0.94226300  0.08830578  1  -1.463932  0  -0.477835  -0.85094  0  2.263099  0
O  O111  1  0.91594979  0.44226307  0.41169326  1  -1.463979  0  -0.477834  -0.850963  0  2.263153  0
O  O112  1  0.68031769  0.78428351  0.56257098  1  -1.202632  0  -0.377302  -0.654644  0  2.224179  0
O  O113  1  0.31969118  0.28427517  0.93742897  1  -1.202501  0  -0.37747  -0.654771  0  2.223961  0
O  O114  1  0.31972646  0.21571272  0.43742505  1  -1.202485  0  -0.377299  -0.654687  0  2.224495  0
O  O115  1  0.68028640  0.71572106  0.06257696  1  -1.202324  0  -0.377299  -0.654573  0  2.224423  0
O  O116  1  0.45549090  0.70841581  0.64235103  1  -1.186365  0  -0.357285  -0.60835  0  2.186169  0
O  O117  1  0.54448171  0.20840217  0.85764999  1  -1.186732  0  -0.357228  -0.60822  0  2.187113  0
O  O118  1  0.54454233  0.29158699  0.35764485  1  -1.186297  0  -0.357395  -0.608491  0  2.185908  0
O  O119  1  0.45546052  0.79159077  0.14235840  1  -1.186633  0  -0.357346  -0.608412  0  2.18586  0
O  O120  1  0.61676284  0.78752972  0.93092508  1  -1.25596  0  -0.632301  -0.843367  0  1.984093  0
O  O121  1  0.38324166  0.28753832  0.56907776  1  -1.255926  0  -0.632268  -0.843381  0  1.984129  0
O  O122  1  0.38324398  0.21245747  0.06908076  1  -1.255806  0  -0.632355  -0.843402  0  1.984211  0
O  O123  1  0.61676702  0.71245215  0.43091433  1  -1.254864  0  -0.632353  -0.843495  0  1.984035  0
O  O124  1  0.13414347  0.67790932  0.02870215  1  -1.29106  0  -0.634422  -0.855744  0  2.000743  0
O  O125  1  0.86585405  0.17791417  0.47130018  1  -1.291158  0  -0.634396  -0.85569  0  2.000808  0
O  O126  1  0.86581671  0.32208444  0.97130058  1  -1.290748  0  -0.634379  -0.855597  0  2.001057  0
O  O127  1  0.13418582  0.82208452  0.52869136  1  -1.290582  0  -0.634311  -0.855553  0  2.001011  0
