# generated using pymatgen
data_CuH16C25N3
_symmetry_space_group_name_H-M   'P 1'
_cell_length_a   8.80407726
_cell_length_b   15.12787257
_cell_length_c   18.28857129
_cell_angle_alpha   90.00484442
_cell_angle_beta   90.00561818
_cell_angle_gamma   90.00975082
_symmetry_Int_Tables_number   1
_chemical_formula_structural   CuH16C25N3
_chemical_formula_sum   'Cu4 H64 C100 N12'
_cell_volume   2435.79913689
_cell_formula_units_Z   4
loop_
 _symmetry_equiv_pos_site_id
 _symmetry_equiv_pos_as_xyz
  1  'x, y, z'
loop_
 _atom_site_type_symbol
 _atom_site_label
 _atom_site_symmetry_multiplicity
 _atom_site_fract_x
 _atom_site_fract_y
 _atom_site_fract_z
 _atom_site_occupancy
 _atom_site_pbe_bader_charge
 _atom_site_pbe_bader_spin_density
 _atom_site_pbe_cm5_charge
 _atom_site_pbe_ddec_charge
 _atom_site_pbe_ddec_spin_density
 _atom_site_pbe_ddec_sum_bond_order
 _atom_site_pbe_magmom
Cu  Cu0  1  0.39677444  0.21438014  0.94590261  1  0.719266  0  0.529907  0.285845  0  3.04087  0
Cu  Cu1  1  0.10318098  0.78562551  0.44592013  1  0.720047  0  0.530148  0.286173  0  3.041411  0
Cu  Cu2  1  0.89680228  0.28560099  0.05409626  1  0.719339  0  0.530135  0.286065  0  3.041029  0
Cu  Cu3  1  0.60319701  0.71438476  0.55409279  1  0.719742  0  0.530098  0.286268  0  3.041045  0
H  H4  1  0.37622367  0.59690710  0.62629423  1  0.092747  0  0.11601  0.087047  0  0.982601  0
H  H5  1  0.12383245  0.40308988  0.12629759  1  0.092211  0  0.116011  0.087162  0  0.982525  0
H  H6  1  0.87623198  0.90306787  0.37368128  1  0.09253  0  0.116032  0.087126  0  0.982602  0
H  H7  1  0.62374838  0.09693051  0.87368509  1  0.09257  0  0.115977  0.08707  0  0.982569  0
H  H8  1  0.34220725  0.43611651  0.65449413  1  0.082201  0  0.103494  0.107513  0  1.020808  0
H  H9  1  0.15783532  0.56388850  0.15449795  1  0.081692  0  0.103447  0.107483  0  1.020725  0
H  H10  1  0.84215644  0.06385594  0.34550467  1  0.082096  0  0.10349  0.107417  0  1.021035  0
H  H11  1  0.65780455  0.93613111  0.84551011  1  0.082091  0  0.103527  0.107475  0  1.02081  0
H  H12  1  0.77916704  0.55009355  0.51676226  1  0.103072  0  0.114505  0.088174  0  1.003902  0
H  H13  1  0.72081789  0.44986148  0.01676266  1  0.102856  0  0.114432  0.08821  0  1.003801  0
H  H14  1  0.27921378  0.94996509  0.48323707  1  0.102556  0  0.114475  0.088141  0  1.004027  0
H  H15  1  0.22077758  0.05005409  0.98320878  1  0.102848  0  0.114527  0.08819  0  1.003865  0
H  H16  1  0.75680399  0.38651383  0.53522594  1  0.104576  0  0.10578  0.115176  0  1.025271  0
H  H17  1  0.74317212  0.61344761  0.03523025  1  0.096268  0  0.105874  0.115347  0  1.025291  0
H  H18  1  0.25682176  0.11353617  0.46477963  1  0.102059  0  0.105811  0.115263  0  1.025256  0
H  H19  1  0.24318750  0.88647793  0.96475191  1  0.103045  0  0.105883  0.115397  0  1.025282  0
H  H20  1  0.29438502  0.21044600  0.67088372  1  0.110264  0  0.106135  0.116444  0  1.017782  0
H  H21  1  0.20563645  0.78954326  0.17091246  1  0.110439  0  0.106107  0.116473  0  1.01797  0
H  H22  1  0.79438204  0.28953498  0.32908598  1  0.110546  0  0.106124  0.11652  0  1.01804  0
H  H23  1  0.70557619  0.71045329  0.82910994  1  0.110506  0  0.106145  0.116517  0  1.017964  0
H  H24  1  0.24220607  0.18806086  0.80424017  1  0.102995  0  0.115929  0.083909  0  0.985277  0
H  H25  1  0.25781575  0.81194813  0.30427503  1  0.104203  0  0.116056  0.084048  0  0.985349  0
H  H26  1  0.74218663  0.31192226  0.19573053  1  0.104182  0  0.115995  0.083877  0  0.985277  0
H  H27  1  0.75774627  0.68806015  0.69575074  1  0.100771  0  0.115963  0.083985  0  0.985352  0
H  H28  1  0.63307949  0.32094118  0.86413107  1  0.137604  0  0.118258  0.097839  0  0.99235  0
H  H29  1  0.86695114  0.67905759  0.36413156  1  0.137954  0  0.118275  0.097882  0  0.992175  0
H  H30  1  0.13301890  0.17909996  0.13586247  1  0.138797  0  0.118376  0.098094  0  0.992218  0
H  H31  1  0.36692676  0.82091118  0.63586317  1  0.137965  0  0.118274  0.097954  0  0.992148  0
H  H32  1  0.69562200  0.35627070  0.73322818  1  0.096895  0  0.107389  0.11712  0  1.001162  0
H  H33  1  0.80439801  0.64370479  0.23322395  1  0.096924  0  0.107317  0.116973  0  1.001232  0
H  H34  1  0.19556275  0.14375874  0.26676262  1  0.097717  0  0.107393  0.117017  0  1.001268  0
H  H35  1  0.30441397  0.85624924  0.76677023  1  0.097349  0  0.107354  0.116976  0  1.001328  0
H  H36  1  0.46222646  0.38061985  0.46092885  1  0.065566  0  0.101354  0.107167  0  1.018945  0
H  H37  1  0.03776405  0.61938171  0.96093505  1  0.065494  0  0.101339  0.10715  0  1.018905  0
H  H38  1  0.96216124  0.11940274  0.53904320  1  0.065049  0  0.101387  0.107226  0  1.019006  0
H  H39  1  0.53778933  0.88064924  0.03906969  1  0.064837  0  0.101373  0.107088  0  1.019121  0
H  H40  1  0.43407372  0.35832728  0.32831746  1  0.064633  0  0.097908  0.095861  0  1.004484  0
H  H41  1  0.06589520  0.64164741  0.82832562  1  0.065589  0  0.097928  0.095927  0  1.004514  0
H  H42  1  0.93404459  0.14162975  0.67165811  1  0.065206  0  0.097965  0.096011  0  1.004426  0
H  H43  1  0.56592643  0.85841804  0.17168435  1  0.064304  0  0.097945  0.095932  0  1.004694  0
H  H44  1  0.48069517  0.21130615  0.27197859  1  0.023373  0  0.101308  0.098547  0  0.994335  0
H  H45  1  0.01927819  0.78865577  0.77198538  1  0.023253  0  0.101259  0.098426  0  0.994089  0
H  H46  1  0.98067085  0.28864488  0.72801571  1  0.023449  0  0.101314  0.098522  0  0.994082  0
H  H47  1  0.51929233  0.71140310  0.22802117  1  0.02328  0  0.101228  0.098189  0  0.994266  0
H  H48  1  0.54905625  0.08226092  0.35030373  1  0.046926  0  0.099734  0.099497  0  1.002362  0
H  H49  1  0.95094095  0.91770380  0.85030339  1  0.047478  0  0.099788  0.099522  0  1.002615  0
H  H50  1  0.04899273  0.41772238  0.64971899  1  0.047099  0  0.099762  0.099491  0  1.00248  0
H  H51  1  0.45100114  0.58232612  0.14970428  1  0.048003  0  0.099694  0.099328  0  1.002822  0
H  H52  1  0.59993399  0.12721659  0.69364035  1  0.042358  0  0.094003  0.093718  0  1.040663  0
H  H53  1  0.90006726  0.87277473  0.19363994  1  0.042224  0  0.094065  0.093769  0  1.040573  0
H  H54  1  0.09996213  0.37279750  0.30637481  1  0.042815  0  0.093905  0.093562  0  1.040692  0
H  H55  1  0.40006858  0.62722374  0.80635560  1  0.042514  0  0.094011  0.093727  0  1.040516  0
H  H56  1  0.65946295  0.96805431  0.68704433  1  0.057091  0  0.093077  0.090903  0  1.014483  0
H  H57  1  0.84052968  0.03193458  0.18706763  1  0.056811  0  0.093108  0.09089  0  1.014256  0
H  H58  1  0.15955377  0.53197340  0.31298176  1  0.057493  0  0.093049  0.090767  0  1.014327  0
H  H59  1  0.34051849  0.46804234  0.81293721  1  0.056442  0  0.093117  0.090876  0  1.014424  0
H  H60  1  0.66968818  0.88992670  0.56722421  1  0.104242  0  0.093333  0.091462  0  1.059359  0
H  H61  1  0.83025449  0.11006258  0.06725448  1  0.104565  0  0.093367  0.091584  0  1.059352  0
H  H62  1  0.16976680  0.61010201  0.43280343  1  0.103852  0  0.093247  0.091422  0  1.059294  0
H  H63  1  0.33028047  0.38992259  0.93276685  1  0.104071  0  0.093313  0.091471  0  1.059417  0
H  H64  1  0.62238639  0.97203667  0.45241276  1  0.035637  0  0.101869  0.101738  0  1.002305  0
H  H65  1  0.87757225  0.02796435  0.95243721  1  0.03635  0  0.101786  0.101614  0  1.002357  0
H  H66  1  0.12241699  0.52800193  0.54761038  1  0.035296  0  0.101727  0.10165  0  1.002359  0
H  H67  1  0.37764725  0.47202944  0.04759518  1  0.035584  0  0.101839  0.101717  0  1.002192  0
C  C68  1  0.45912059  0.54785319  0.60819233  1  0.473893  0  0.041104  0.088488  0  3.959857  0
C  C69  1  0.04091951  0.45213811  0.10818781  1  0.473896  0  0.041132  0.088386  0  3.959824  0
C  C70  1  0.95912870  0.95214117  0.39179612  1  0.473844  0  0.041014  0.088243  0  3.960175  0
C  C71  1  0.54085291  0.04786224  0.89178904  1  0.473844  0  0.041058  0.088294  0  3.960061  0
C  C72  1  0.44005254  0.45858384  0.62305249  1  -0.052761  0  -0.085825  -0.179239  0  3.965924  0
C  C73  1  0.05998510  0.54141458  0.12304731  1  -0.05151  0  -0.085704  -0.17915  0  3.965411  0
C  C74  1  0.94003297  0.04141146  0.37694108  1  -0.052255  0  -0.085755  -0.179  0  3.966019  0
C  C75  1  0.55994657  0.95859012  0.87694248  1  -0.0523  0  -0.085841  -0.179072  0  3.966083  0
C  C76  1  0.68251520  0.52148774  0.54574054  1  0.440834  0  0.042356  0.085048  0  3.943659  0
C  C77  1  0.81748377  0.47848472  0.04573643  1  0.44142  0  0.042336  0.084967  0  3.943488  0
C  C78  1  0.18255064  0.97855017  0.45425254  1  0.442609  0  0.042227  0.084843  0  3.943637  0
C  C79  1  0.31744031  0.02146415  0.95423143  1  0.44169  0  0.042199  0.085001  0  3.943209  0
C  C80  1  0.66967148  0.43085792  0.55617712  1  0.0256  0  -0.082411  -0.172961  0  3.951659  0
C  C81  1  0.83032305  0.56911629  0.05617627  1  0.033519  0  -0.082662  -0.173519  0  3.951434  0
C  C82  1  0.16969183  0.06917823  0.44381500  1  0.027915  0  -0.082248  -0.172674  0  3.951441  0
C  C83  1  0.33030923  0.93083567  0.94380020  1  0.02671  0  -0.082382  -0.173009  0  3.951585  0
C  C84  1  0.54581230  0.39729658  0.59585339  1  -0.045112  0  0.007535  0.106776  0  4.000431  0
C  C85  1  0.95419195  0.60269090  0.09585502  1  -0.045204  0  0.007561  0.107042  0  3.999877  0
C  C86  1  0.04580783  0.10271682  0.40414201  1  -0.045759  0  0.007397  0.106573  0  4.000522  0
C  C87  1  0.45418578  0.89728843  0.90414003  1  -0.045381  0  0.007528  0.106751  0  4.000612  0
C  C88  1  0.53204486  0.30234942  0.61295803  1  -0.01848  0  0.00578  -0.009356  0  3.895263  0
C  C89  1  0.96796020  0.69764291  0.11295700  1  -0.018692  0  0.005863  -0.009394  0  3.895005  0
C  C90  1  0.03203122  0.19766130  0.38704078  1  -0.017822  0  0.005939  -0.009281  0  3.894762  0
C  C91  1  0.46798204  0.80234108  0.88704997  1  -0.018192  0  0.005855  -0.009287  0  3.89518  0
C  C92  1  0.54409888  0.23627696  0.56203955  1  0.05618  0  -0.0003  -0.019243  0  3.951615  0
C  C93  1  0.95588237  0.76371475  0.06204794  1  0.056302  0  -0.00031  -0.019137  0  3.951519  0
C  C94  1  0.04411034  0.26373362  0.43796188  1  0.056273  0  -0.000256  -0.019296  0  3.951739  0
C  C95  1  0.45593355  0.73626938  0.93796022  1  0.056185  0  -0.000179  -0.019025  0  3.951939  0
C  C96  1  0.50171337  0.28405315  0.69094817  1  -0.036409  0  0.006208  0.10547  0  4.009631  0
C  C97  1  0.99830031  0.71593904  0.19094842  1  -0.036449  0  0.006238  0.105552  0  4.00942  0
C  C98  1  0.00167605  0.21595062  0.30904817  1  -0.036767  0  0.006207  0.105646  0  4.008986  0
C  C99  1  0.49828315  0.78404198  0.80905937  1  -0.036799  0  0.006121  0.105408  0  4.009634  0
C  C100  1  0.37235729  0.23612113  0.71195197  1  -0.063999  0  -0.084523  -0.177865  0  3.970901  0
C  C101  1  0.12765635  0.76387238  0.21197091  1  -0.063461  0  -0.084791  -0.178236  0  3.970561  0
C  C102  1  0.87234435  0.26386950  0.28802634  1  -0.063814  0  -0.084869  -0.178486  0  3.970882  0
C  C103  1  0.62761262  0.73611849  0.78804288  1  -0.06469  0  -0.084607  -0.178138  0  3.971053  0
C  C104  1  0.34329667  0.22333890  0.78574283  1  0.444626  0  0.038225  0.076731  0  3.97  0
C  C105  1  0.15672712  0.77665773  0.28576785  1  0.442935  0  0.038166  0.076663  0  3.969312  0
C  C106  1  0.84327053  0.27665482  0.21423410  1  0.442965  0  0.038316  0.077108  0  3.969092  0
C  C107  1  0.65666492  0.72333334  0.71424842  1  0.447995  0  0.038238  0.076712  0  3.969645  0
C  C108  1  0.56028638  0.29921631  0.81924954  1  0.476852  0  0.0424  0.086461  0  3.942662  0
C  C109  1  0.93974129  0.70078088  0.31925212  1  0.476513  0  0.042403  0.086544  0  3.942324  0
C  C110  1  0.06024196  0.20081569  0.18074355  1  0.475862  0  0.042301  0.08624  0  3.942709  0
C  C111  1  0.43971120  0.79918910  0.68074689  1  0.476316  0  0.042443  0.086351  0  3.94238  0
C  C112  1  0.59490120  0.31764611  0.74668518  1  -0.06502  0  -0.08534  -0.183408  0  3.963465  0
C  C113  1  0.90512594  0.68233957  0.24668103  1  -0.065008  0  -0.08521  -0.183234  0  3.963287  0
C  C114  1  0.09485756  0.18238599  0.25330980  1  -0.064888  0  -0.085352  -0.183285  0  3.96346  0
C  C115  1  0.40511998  0.81762437  0.75331719  1  -0.06481  0  -0.085368  -0.183234  0  3.963372  0
C  C116  1  0.53086565  0.24497469  0.48166548  1  -0.028663  0  -0.013111  0.017422  0  3.977724  0
C  C117  1  0.96908898  0.75501074  0.98168058  1  -0.027946  0  -0.013392  0.016919  0  3.978523  0
C  C118  1  0.03091490  0.25503327  0.51833224  1  -0.029262  0  -0.013132  0.017479  0  3.978027  0
C  C119  1  0.46915106  0.74499055  0.01832692  1  -0.028609  0  -0.013485  0.016733  0  3.978446  0
C  C120  1  0.48637101  0.31595632  0.43762868  1  0.016122  0  -0.087179  -0.112547  0  3.975029  0
C  C121  1  0.01359777  0.68403670  0.93764055  1  0.015109  0  -0.08697  -0.112086  0  3.974896  0
C  C122  1  0.98637043  0.18404947  0.56235409  1  0.016754  0  -0.087101  -0.112333  0  3.975246  0
C  C123  1  0.51362573  0.81599055  0.06236605  1  0.016172  0  -0.087094  -0.112181  0  3.974907  0
C  C124  1  0.46949310  0.30294272  0.36236848  1  -0.109356  0  -0.098373  -0.094451  0  4.033228  0
C  C125  1  0.03047282  0.69703304  0.86238052  1  -0.109755  0  -0.098555  -0.094977  0  4.033389  0
C  C126  1  0.96948443  0.19702638  0.63761444  1  -0.11048  0  -0.09854  -0.094864  0  4.033312  0
C  C127  1  0.53050664  0.80301900  0.13762921  1  -0.110599  0  -0.098422  -0.094845  0  4.034179  0
C  C128  1  0.49447475  0.21986155  0.33082522  1  0.007879  0  -0.095447  -0.091619  0  4.052246  0
C  C129  1  0.00549529  0.78010827  0.83083356  1  0.007559  0  -0.095185  -0.09091  0  4.051689  0
C  C130  1  0.99446941  0.28010539  0.66916841  1  0.008271  0  -0.095331  -0.091278  0  4.051723  0
C  C131  1  0.50554253  0.71994066  0.16917311  1  0.008282  0  -0.095439  -0.090766  0  4.052513  0
C  C132  1  0.53487557  0.14770635  0.37446177  1  -0.085755  0  -0.096951  -0.140462  0  4.025357  0
C  C133  1  0.96510513  0.85226441  0.87447498  1  -0.085212  0  -0.097044  -0.140792  0  4.026034  0
C  C134  1  0.03487061  0.35227754  0.62554247  1  -0.08538  0  -0.097072  -0.140734  0  4.025569  0
C  C135  1  0.46517383  0.64776624  0.12553475  1  -0.085052  0  -0.09673  -0.140352  0  4.026188  0
C  C136  1  0.55225428  0.16019444  0.44957652  1  -0.046238  0  -0.012875  0.021595  0  4.015675  0
C  C137  1  0.94770196  0.83978297  0.94958793  1  -0.046318  0  -0.012864  0.021831  0  4.016125  0
C  C138  1  0.05229396  0.33981298  0.55042812  1  -0.046707  0  -0.012957  0.02157  0  4.015712  0
C  C139  1  0.44778289  0.66021623  0.05041867  1  -0.046277  0  -0.012817  0.021567  0  4.016038  0
C  C140  1  0.58189645  0.09649984  0.50799022  1  -0.005478  0  -0.01542  0.012843  0  4.018577  0
C  C141  1  0.91805618  0.90348479  0.00799589  1  -0.006117  0  -0.015538  0.012147  0  4.019187  0
C  C142  1  0.08191298  0.40352173  0.49202127  1  -0.004961  0  -0.015382  0.012738  0  4.018541  0
C  C143  1  0.41818452  0.59648968  0.99201152  1  -0.0066  0  -0.015441  0.013077  0  4.018367  0
C  C144  1  0.57287698  0.14140634  0.57617111  1  -0.056983  0  -0.015433  0.015843  0  3.986134  0
C  C145  1  0.92709125  0.85857981  0.07617393  1  -0.0571  0  -0.015236  0.016321  0  3.986374  0
C  C146  1  0.07287717  0.35860839  0.42383991  1  -0.056866  0  -0.015431  0.015977  0  3.986264  0
C  C147  1  0.42719791  0.64139290  0.92382902  1  -0.055824  0  -0.015427  0.015903  0  3.986347  0
C  C148  1  0.60287851  0.09466772  0.64063414  1  -0.041221  0  -0.094497  -0.125506  0  4.01118  0
C  C149  1  0.89711275  0.90531801  0.14063676  1  -0.04128  0  -0.094613  -0.125739  0  4.011482  0
C  C150  1  0.10291032  0.40534930  0.35938208  1  -0.042146  0  -0.094516  -0.125536  0  4.011646  0
C  C151  1  0.39716898  0.59466100  0.85935770  1  -0.042066  0  -0.094514  -0.125676  0  4.011298  0
C  C152  1  0.63758920  0.00462141  0.63672222  1  -0.0541  0  -0.099908  -0.097246  0  4.028199  0
C  C153  1  0.86239806  0.99536631  0.13674108  1  -0.054163  0  -0.099829  -0.096889  0  4.028189  0
C  C154  1  0.13763565  0.49540300  0.36330190  1  -0.054294  0  -0.099838  -0.096834  0  4.028106  0
C  C155  1  0.36244085  0.50460863  0.86326463  1  -0.052972  0  -0.09992  -0.097001  0  4.028131  0
C  C156  1  0.64362933  0.96041140  0.56948509  1  0.027712  0  -0.08782  -0.060608  0  3.979297  0
C  C157  1  0.85634501  0.03957826  0.06951008  1  0.039905  0  -0.087925  -0.061234  0  3.980016  0
C  C158  1  0.14366686  0.53961806  0.43053950  1  0.027394  0  -0.087693  -0.060672  0  3.97904  0
C  C159  1  0.35640325  0.46040352  0.93050336  1  0.027066  0  -0.087907  -0.060869  0  3.979626  0
C  C160  1  0.61618361  0.00658378  0.50465844  1  -0.097685  0  -0.089943  -0.121307  0  3.985261  0
C  C161  1  0.88378230  0.99340426  0.00467651  1  -0.110185  0  -0.089863  -0.120639  0  3.985254  0
C  C162  1  0.11620200  0.49344645  0.49536423  1  -0.096939  0  -0.08984  -0.121248  0  3.985155  0
C  C163  1  0.38389018  0.50656750  0.99534267  1  -0.096521  0  -0.089811  -0.121225  0  3.985258  0
C  C164  1  0.70802500  0.26168743  0.01397501  1  0.685415  0  -0.090677  -0.17776  0  3.987253  0
C  C165  1  0.79195528  0.73831076  0.51399946  1  0.684249  0  -0.090926  -0.178208  0  3.985803  0
C  C166  1  0.20802322  0.23828902  0.98601131  1  0.684213  0  -0.090858  -0.177931  0  3.986389  0
C  C167  1  0.29194439  0.76170088  0.48600633  1  0.683765  0  -0.090811  -0.178041  0  3.985521  0
N  N168  1  0.43623233  0.25272682  0.83910726  1  -1.194685  0  -0.34678  -0.196926  0  3.61494  0
N  N169  1  0.06378683  0.74727942  0.33912690  1  -1.19484  0  -0.346805  -0.197001  0  3.614653  0
N  N170  1  0.93618967  0.24728264  0.16087103  1  -1.19562  0  -0.346915  -0.197057  0  3.615209  0
N  N171  1  0.56375382  0.75271508  0.66087871  1  -1.195462  0  -0.346819  -0.196913  0  3.614873  0
N  N172  1  0.57892963  0.57973286  0.57078031  1  -1.214251  0  -0.343754  -0.191559  0  3.608374  0
N  N173  1  0.92109186  0.42024843  0.07077875  1  -1.214518  0  -0.34368  -0.191471  0  3.608614  0
N  N174  1  0.07895719  0.92028098  0.42920876  1  -1.215042  0  -0.343666  -0.19156  0  3.608233  0
N  N175  1  0.42103963  0.07972715  0.92920241  1  -1.214598  0  -0.343676  -0.19156  0  3.607899  0
N  N176  1  0.58840210  0.24699052  0.98789944  1  -1.428297  0  -0.456955  -0.342533  0  3.730201  0
N  N177  1  0.91159507  0.75301645  0.48790139  1  -1.427763  0  -0.456893  -0.342425  0  3.728666  0
N  N178  1  0.08840471  0.25299401  0.01210050  1  -1.427298  0  -0.456865  -0.342575  0  3.729011  0
N  N179  1  0.41160281  0.74697588  0.51208092  1  -1.427379  0  -0.457081  -0.342704  0  3.727979  0
