# generated using pymatgen
data_AgH4(CN)3
_symmetry_space_group_name_H-M   'P 1'
_cell_length_a   3.70403044
_cell_length_b   11.02739788
_cell_length_c   11.06341184
_cell_angle_alpha   90.00007755
_cell_angle_beta   90.00008588
_cell_angle_gamma   89.99941884
_symmetry_Int_Tables_number   1
_chemical_formula_structural   AgH4(CN)3
_chemical_formula_sum   'Ag4 H16 C12 N12'
_cell_volume   451.89410051
_cell_formula_units_Z   4
loop_
 _symmetry_equiv_pos_site_id
 _symmetry_equiv_pos_as_xyz
  1  'x, y, z'
loop_
 _atom_site_type_symbol
 _atom_site_label
 _atom_site_symmetry_multiplicity
 _atom_site_fract_x
 _atom_site_fract_y
 _atom_site_fract_z
 _atom_site_occupancy
 _atom_site_hle17_bader_spin_density
 _atom_site_hle17_ddec_charge
 _atom_site_hle17_ddec_spin_density
 _atom_site_hle17_ddec_sum_bond_order
 _atom_site_hle17_magmom
 _atom_site_hse06_10hf_bader_spin_density
 _atom_site_hse06_10hf_ddec_charge
 _atom_site_hse06_10hf_ddec_spin_density
 _atom_site_hse06_10hf_ddec_sum_bond_order
 _atom_site_hse06_10hf_magmom
 _atom_site_hse06_bader_spin_density
 _atom_site_hse06_ddec_charge
 _atom_site_hse06_ddec_spin_density
 _atom_site_hse06_ddec_sum_bond_order
 _atom_site_hse06_magmom
 _atom_site_pbe_bader_spin_density
 _atom_site_pbe_cm5_charge
 _atom_site_pbe_ddec_charge
 _atom_site_pbe_ddec_spin_density
 _atom_site_pbe_ddec_sum_bond_order
 _atom_site_pbe_magmom
Ag  Ag0  1  0.48826198  0.59582432  0.11863843  1  0  0.455355  0  1.527352  0  0  0.293761  0  2.003609  0  0  0.324071  0  1.956959  0  0  0.447672  0.272819  0  2.035529  0
Ag  Ag1  1  0.98824641  0.40417043  0.88136425  1  0  0.455371  0  1.527307  0  0  0.29378  0  2.003553  0  0  0.324095  0  1.9569  0  0  0.44768  0.272842  0  2.035477  0
Ag  Ag2  1  0.48824494  0.90416938  0.61863630  1  0  0.455361  0  1.527337  0  0  0.293772  0  2.003596  0  0  0.32408  0  1.956932  0  0  0.447665  0.272813  0  2.035498  0
Ag  Ag3  1  0.98822296  0.09582900  0.38136548  1  0  0.455366  0  1.527323  0  0  0.293788  0  2.003591  0  0  0.324094  0  1.95694  0  0  0.447607  0.272832  0  2.035499  0
H  H4  1  0.84513100  0.61283534  0.65321142  1  0  0.065625  0  0.97436  0  0  0.083172  0  1.034195  0  0  0.083802  0  1.033427  0  0  0.121182  0.082629  0  1.034825  0
H  H5  1  0.34507845  0.38716261  0.34678216  1  0  0.065737  0  0.974594  0  0  0.083253  0  1.034429  0  0  0.083892  0  1.033629  0  0  0.121207  0.08271  0  1.035065  0
H  H6  1  0.84509591  0.88716446  0.15321214  1  0  0.065689  0  0.974266  0  0  0.083139  0  1.034198  0  0  0.083769  0  1.033431  0  0  0.121165  0.082597  0  1.034829  0
H  H7  1  0.34511083  0.11283077  0.84678505  1  0  0.06565  0  0.974453  0  0  0.083174  0  1.034301  0  0  0.08381  0  1.033519  0  0  0.121203  0.082634  0  1.034923  0
H  H8  1  0.25492037  0.83547230  0.02754820  1  0  0.117568  0  0.967602  0  0  0.135874  0  1.036178  0  0  0.137805  0  1.034731  0  0  0.093769  0.134458  0  1.037211  0
H  H9  1  0.75495038  0.16453230  0.97245709  1  0  0.117596  0  0.967664  0  0  0.135824  0  1.036338  0  0  0.137753  0  1.03489  0  0  0.093726  0.134407  0  1.037374  0
H  H10  1  0.25492958  0.66453294  0.52754664  1  0  0.117607  0  0.967543  0  0  0.13583  0  1.03624  0  0  0.137761  0  1.034792  0  0  0.093751  0.134417  0  1.037267  0
H  H11  1  0.75492768  0.33546713  0.47245955  1  0  0.117667  0  0.967572  0  0  0.135912  0  1.036232  0  0  0.137842  0  1.034785  0  0  0.093786  0.134497  0  1.037266  0
H  H12  1  0.10048973  0.89428483  0.88538846  1  0  0.121575  0  0.966353  0  0  0.141022  0  1.031757  0  0  0.142445  0  1.031695  0  0  0.096088  0.139972  0  1.031835  0
H  H13  1  0.60047698  0.10571485  0.11460501  1  0  0.121592  0  0.966381  0  0  0.141039  0  1.031746  0  0  0.142463  0  1.031682  0  0  0.096095  0.139987  0  1.03183  0
H  H14  1  0.10046867  0.60571687  0.38539421  1  0  0.121563  0  0.966331  0  0  0.141012  0  1.03173  0  0  0.142434  0  1.031669  0  0  0.096056  0.139959  0  1.03182  0
H  H15  1  0.60047374  0.39428462  0.61461100  1  0  0.121539  0  0.966403  0  0  0.140996  0  1.031782  0  0  0.142418  0  1.031722  0  0  0.096066  0.139947  0  1.031864  0
H  H16  1  0.52561258  0.93901728  0.94352888  1  0  0.107464  0  0.966999  0  0  0.132134  0  1.027653  0  0  0.132817  0  1.02804  0  0  0.091695  0.13171  0  1.027247  0
H  H17  1  0.02561454  0.06098628  0.05646364  1  0  0.10744  0  0.967001  0  0  0.132095  0  1.027658  0  0  0.132775  0  1.028049  0  0  0.091692  0.131675  0  1.027245  0
H  H18  1  0.52559829  0.56098307  0.44353458  1  0  0.107411  0  0.967054  0  0  0.132066  0  1.027728  0  0  0.132747  0  1.028118  0  0  0.091688  0.131646  0  1.027321  0
H  H19  1  0.02559373  0.43901777  0.55646699  1  0  0.107442  0  0.967081  0  0  0.132139  0  1.027692  0  0  0.132822  0  1.028078  0  0  0.0917  0.131715  0  1.027288  0
C  C20  1  0.50695713  0.75840530  0.87357926  1  0  0.385712  0  3.766465  0  0  0.377543  0  4.012086  0  0  0.38992  0  4.032573  0  0  0.199843  0.369253  0  3.998117  0
C  C21  1  0.00694848  0.24159560  0.12641235  1  0  0.385732  0  3.766354  0  0  0.377575  0  4.011962  0  0  0.389948  0  4.032452  0  0  0.199907  0.369293  0  3.997987  0
C  C22  1  0.50695080  0.74159593  0.37357978  1  0  0.385704  0  3.766533  0  0  0.377543  0  4.012139  0  0  0.389917  0  4.032631  0  0  0.199859  0.369254  0  3.998164  0
C  C23  1  0.00695751  0.25840406  0.62641996  1  0  0.385796  0  3.76643  0  0  0.377634  0  4.012044  0  0  0.390007  0  4.032534  0  0  0.199873  0.369339  0  3.99808  0
C  C24  1  0.74216717  0.64629042  0.73851331  1  0  0.183983  0  3.790292  0  0  0.130128  0  4.055266  0  0  0.141897  0  4.073596  0  0  0.120058  0.122362  0  4.042686  0
C  C25  1  0.24216654  0.35371513  0.26150643  1  0  0.183689  0  3.789702  0  0  0.129862  0  4.05469  0  0  0.141631  0  4.073035  0  0  0.119869  0.1221  0  4.042102  0
C  C26  1  0.74216011  0.85370711  0.23851218  1  0  0.183898  0  3.790356  0  0  0.130102  0  4.05536  0  0  0.141873  0  4.073683  0  0  0.120057  0.122328  0  4.042778  0
C  C27  1  0.24216280  0.14629390  0.76148858  1  0  0.183848  0  3.790349  0  0  0.129996  0  4.055343  0  0  0.141766  0  4.073674  0  0  0.120008  0.122225  0  4.042757  0
C  C28  1  0.33659531  0.86255168  0.93616216  1  0  -0.382607  0  3.718923  0  0  -0.46646  0  3.952448  0  0  -0.469302  0  3.959775  0  0  -0.238564  -0.464286  0  3.947214  0
C  C29  1  0.83658674  0.13744630  0.06383593  1  0  -0.38258  0  3.719043  0  0  -0.466339  0  3.952587  0  0  -0.469179  0  3.959916  0  0  -0.238513  -0.464167  0  3.947353  0
C  C30  1  0.33659217  0.63744657  0.43616615  1  0  -0.382562  0  3.718875  0  0  -0.466339  0  3.952416  0  0  -0.469178  0  3.959743  0  0  -0.238525  -0.464168  0  3.947187  0
C  C31  1  0.83658988  0.36255685  0.56383917  1  0  -0.382686  0  3.718982  0  0  -0.466527  0  3.952506  0  0  -0.469367  0  3.959835  0  0  -0.238588  -0.464352  0  3.947277  0
N  N32  1  0.59723618  0.65446407  0.92794399  1  0  -0.319724  0  3.189328  0  0  -0.250193  0  3.47692  0  0  -0.267072  0  3.492568  0  0  -0.272998  -0.238895  0  3.466031  0
N  N33  1  0.09722950  0.34553652  0.07205579  1  0  -0.31965  0  3.189374  0  0  -0.25013  0  3.476985  0  0  -0.267007  0  3.492633  0  0  -0.272981  -0.238834  0  3.466093  0
N  N34  1  0.59721047  0.84553602  0.42794466  1  0  -0.319712  0  3.189352  0  0  -0.250186  0  3.476944  0  0  -0.267063  0  3.492589  0  0  -0.273007  -0.238886  0  3.466032  0
N  N35  1  0.09722551  0.15446276  0.57205603  1  0  -0.319805  0  3.189393  0  0  -0.250279  0  3.476999  0  0  -0.267156  0  3.492643  0  0  -0.273019  -0.238979  0  3.466092  0
N  N36  1  0.74812138  0.58155989  0.84033267  1  0  -0.269057  0  3.299745  0  0  -0.195171  0  3.606934  0  0  -0.211291  0  3.622774  0  0  -0.28098  -0.184038  0  3.595713  0
N  N37  1  0.24810748  0.41844201  0.15966176  1  0  -0.268902  0  3.299397  0  0  -0.195002  0  3.606554  0  0  -0.211121  0  3.62239  0  0  -0.280875  -0.183862  0  3.59533  0
N  N38  1  0.74810154  0.91844048  0.34033344  1  0  -0.269018  0  3.299592  0  0  -0.195116  0  3.606733  0  0  -0.211233  0  3.62257  0  0  -0.280944  -0.183971  0  3.595488  0
N  N39  1  0.24811923  0.08155870  0.65966552  1  0  -0.269002  0  3.299462  0  0  -0.195108  0  3.60665  0  0  -0.211223  0  3.622481  0  0  -0.28097  -0.183965  0  3.595403  0
N  N40  1  0.59489890  0.75737400  0.75414415  1  0  -0.465916  0  3.241397  0  0  -0.381816  0  3.535603  0  0  -0.405102  0  3.547669  0  0  -0.377755  -0.365987  0  3.527105  0
N  N41  1  0.09488000  0.24261662  0.24585202  1  0  -0.466004  0  3.240956  0  0  -0.381951  0  3.535216  0  0  -0.405239  0  3.547282  0  0  -0.377772  -0.366122  0  3.526728  0
N  N42  1  0.59489794  0.74262405  0.25414649  1  0  -0.46592  0  3.241573  0  0  -0.381823  0  3.53575  0  0  -0.405106  0  3.547816  0  0  -0.377754  -0.366  0  3.527265  0
N  N43  1  0.09489445  0.25737565  0.74585059  1  0  -0.465834  0  3.241603  0  0  -0.381727  0  3.535783  0  0  -0.405013  0  3.547853  0  0  -0.377721  -0.365906  0  3.527297  0
