# generated using pymatgen
data_ZnH8(C2O)4
_symmetry_space_group_name_H-M   'P 1'
_cell_length_a   4.87311844
_cell_length_b   6.71144037
_cell_length_c   12.96317864
_cell_angle_alpha   98.85170420
_cell_angle_beta   100.07682829
_cell_angle_gamma   95.38758075
_symmetry_Int_Tables_number   1
_chemical_formula_structural   ZnH8(C2O)4
_chemical_formula_sum   'Zn2 H16 C16 O8'
_cell_volume   409.26438813
_cell_formula_units_Z   2
loop_
 _symmetry_equiv_pos_site_id
 _symmetry_equiv_pos_as_xyz
  1  'x, y, z'
loop_
 _atom_site_type_symbol
 _atom_site_label
 _atom_site_symmetry_multiplicity
 _atom_site_fract_x
 _atom_site_fract_y
 _atom_site_fract_z
 _atom_site_occupancy
 _atom_site_pbe_bader_spin_density
 _atom_site_pbe_cm5_charge
 _atom_site_pbe_ddec_charge
 _atom_site_pbe_ddec_spin_density
 _atom_site_pbe_ddec_sum_bond_order
 _atom_site_pbe_magmom
Zn  Zn0  1  0.75930520  0.69791870  0.07885538  1  0  0.704561  0.959198  0  2.269437  0
Zn  Zn1  1  0.24069307  0.30208221  0.92114416  1  0  0.704579  0.959254  0  2.269337  0
H  H2  1  0.03826844  0.09915671  0.19957590  1  0  0.10941  0.113295  0  0.994661  0
H  H3  1  0.96173290  0.90085028  0.80042351  1  0  0.109393  0.113273  0  0.994729  0
H  H4  1  0.65257588  0.26088443  0.29855434  1  0  0.103667  0.095918  0  0.98162  0
H  H5  1  0.34742668  0.73911653  0.70144777  1  0  0.103669  0.09592  0  0.981626  0
H  H6  1  0.47509779  0.57850285  0.34923576  1  0  0.092443  0.088954  0  1.003785  0
H  H7  1  0.52490660  0.42149661  0.65076634  1  0  0.092428  0.088925  0  1.003747  0
H  H8  1  0.13597711  0.48963211  0.27362069  1  0  0.095925  0.109342  0  1.004131  0
H  H9  1  0.86402732  0.51036736  0.72638219  1  0  0.095946  0.10936  0  1.004123  0
H  H10  1  0.20203514  0.48510832  0.48167363  1  0  0.095216  0.089258  0  1.037852  0
H  H11  1  0.79797767  0.51489117  0.51833052  1  0  0.095235  0.089227  0  1.0379  0
H  H12  1  0.14601962  0.13148700  0.49948896  1  0  0.091282  0.084352  0  1.043069  0
H  H13  1  0.85397621  0.86851093  0.50051330  1  0  0.091283  0.08437  0  1.043246  0
H  H14  1  0.06300422  0.87990552  0.32962161  1  0  0.095472  0.095406  0  0.985064  0
H  H15  1  0.93698296  0.12009228  0.67037395  1  0  0.09547  0.095377  0  0.985023  0
H  H16  1  0.43026651  0.93584659  0.36939486  1  0  0.091793  0.087721  0  0.991695  0
H  H17  1  0.56972071  0.06415122  0.63060147  1  0  0.091797  0.087697  0  0.99162  0
C  C18  1  0.34662710  0.90962917  0.16207676  1  0  0.228503  0.628604  0  4.091565  0
C  C19  1  0.65337367  0.09037334  0.83792613  1  0  0.22853  0.628572  0  4.091699  0
C  C20  1  0.48211861  0.35003113  0.15287388  1  0  0.23538  0.644748  0  4.098964  0
C  C21  1  0.51788116  0.64996672  0.84712397  1  0  0.235468  0.644833  0  4.09892  0
C  C22  1  0.25125633  0.07599375  0.23576560  1  0  -0.092621  -0.149015  0  3.860671  0
C  C23  1  0.74874249  0.92401022  0.76423498  1  0  -0.092626  -0.149047  0  3.860692  0
C  C24  1  0.44320260  0.27743877  0.25518475  1  0  -0.085875  -0.123685  0  3.846967  0
C  C25  1  0.55679724  0.72255911  0.74481465  1  0  -0.085901  -0.123704  0  3.84691  0
C  C26  1  0.31908570  0.44266074  0.32279013  1  0  -0.161  -0.164007  0  3.942213  0
C  C27  1  0.68092560  0.55734324  0.67721041  1  0  -0.161017  -0.164046  0  3.942215  0
C  C28  1  0.23408180  0.36937545  0.41736563  1  0  -0.101409  -0.092587  0  3.991416  0
C  C29  1  0.76593126  0.63061340  0.58263695  1  0  -0.101323  -0.092348  0  3.991  0
C  C30  1  0.20175375  0.17317998  0.42686179  1  0  -0.10878  -0.116424  0  3.9858  0
C  C31  1  0.79824653  0.82683308  0.57313802  1  0  -0.108843  -0.116599  0  3.985822  0
C  C32  1  0.23775510  0.00326701  0.34229080  1  0  -0.153541  -0.14303  0  3.947213  0
C  C33  1  0.76223395  0.99672929  0.65770553  1  0  -0.15359  -0.142968  0  3.947163  0
O  O34  1  0.60788424  0.92576661  0.15820883  1  0  -0.306654  -0.54012  0  2.345885  0
O  O35  1  0.39211465  0.07423880  0.84178800  1  0  -0.306682  -0.540137  0  2.345951  0
O  O36  1  0.17736978  0.75608081  0.11082409  1  0  -0.314832  -0.557504  0  2.341771  0
O  O37  1  0.82263136  0.24392326  0.88918126  1  0  -0.31477  -0.557413  0  2.341876  0
O  O38  1  0.29346641  0.28263917  0.07083037  1  0  -0.305484  -0.544429  0  2.403096  0
O  O39  1  0.70653062  0.71735416  0.92916929  1  0  -0.305493  -0.544423  0  2.403043  0
O  O40  1  0.69631309  0.47871688  0.15864201  1  0  -0.313477  -0.566032  0  2.395008  0
O  O41  1  0.30368839  0.52127940  0.84135351  1  0  -0.313531  -0.566088  0  2.395031  0
