# generated using pymatgen
data_MnH16C24(NO2)2
_symmetry_space_group_name_H-M   'P 1'
_cell_length_a   7.20489438
_cell_length_b   11.86178415
_cell_length_c   12.21866065
_cell_angle_alpha   119.04276291
_cell_angle_beta   91.54389089
_cell_angle_gamma   89.97838550
_symmetry_Int_Tables_number   1
_chemical_formula_structural   MnH16C24(NO2)2
_chemical_formula_sum   'Mn2 H32 C48 N4 O8'
_cell_volume   912.50888575
_cell_formula_units_Z   2
loop_
 _symmetry_equiv_pos_site_id
 _symmetry_equiv_pos_as_xyz
  1  'x, y, z'
loop_
 _atom_site_type_symbol
 _atom_site_label
 _atom_site_symmetry_multiplicity
 _atom_site_fract_x
 _atom_site_fract_y
 _atom_site_fract_z
 _atom_site_occupancy
 _atom_site_hle17_ddec_charge
 _atom_site_hle17_ddec_spin_density
 _atom_site_hle17_ddec_sum_bond_order
 _atom_site_hle17_magmom
 _atom_site_hse06_10hf_ddec_charge
 _atom_site_hse06_10hf_ddec_spin_density
 _atom_site_hse06_10hf_ddec_sum_bond_order
 _atom_site_hse06_10hf_magmom
 _atom_site_hse06_ddec_charge
 _atom_site_hse06_ddec_spin_density
 _atom_site_hse06_ddec_sum_bond_order
 _atom_site_hse06_magmom
 _atom_site_pbe_cm5_charge
 _atom_site_pbe_ddec_charge
 _atom_site_pbe_ddec_spin_density
 _atom_site_pbe_ddec_sum_bond_order
 _atom_site_pbe_magmom
Mn  Mn0  1  0.74981070  0.87327051  0.00004414  1  1.172747  4.788848  1.833601  4.679  1.000636  4.702719  2.351921  4.527  1.058657  4.753041  2.277519  4.597  0.613348  0.958964  4.643475  2.406036  4.447
Mn  Mn1  1  0.25018818  0.12672653  0.99995787  1  1.172761  4.788833  1.833557  4.679  1.000688  4.702717  2.351829  4.527  1.058703  4.753046  2.277426  4.597  0.613364  0.959011  4.643457  2.40594  4.447
H  H2  1  0.60168316  0.43195172  0.31495168  1  0.09015  -0.000201  0.955604  0.0  0.100223  -4.7e-05  1.019892  0.0  0.103407  -0.000105  1.01783  0.0  0.099302  0.097824  3.7e-05  1.021567  0.0
H  H3  1  0.89836442  0.11708819  0.68494720  1  0.089971  -0.000199  0.95472  0.0  0.099936  -4.5e-05  1.019327  0.0  0.103167  -0.000103  1.017179  0.0  0.099242  0.097542  3.8e-05  1.021015  0.0
H  H4  1  0.39832709  0.56805204  0.68504883  1  0.090109  -0.000191  0.955565  0.0  0.100194  -4.7e-05  1.019852  0.0  0.103362  -0.000105  1.017804  0.0  0.099264  0.097795  3.7e-05  1.021527  0.0
H  H5  1  0.10163442  0.88290114  0.31503971  1  0.089913  -0.000188  0.954695  0.0  0.099899  -4.5e-05  1.019294  0.0  0.103129  -0.000103  1.017148  0.0  0.099216  0.097507  3.8e-05  1.020985  0.0
H  H6  1  0.81109759  0.09198222  0.30897133  1  0.088453  -0.000484  0.995486  0.0  0.095985  -0.00041  1.064735  0.0  0.098975  -0.000464  1.062474  0.0  0.103705  0.093766  -0.000325  1.066421  0.0
H  H7  1  0.68884311  0.78362207  0.69167232  1  0.088656  -0.000483  0.994845  0.0  0.095714  -0.000408  1.064728  0.0  0.098633  -0.000463  1.062574  0.0  0.103554  0.093518  -0.000322  1.066393  0.0
H  H8  1  0.18890849  0.90802251  0.69103200  1  0.088478  -0.00049  0.995468  0.0  0.096  -0.00041  1.064731  0.0  0.098987  -0.000464  1.062469  0.0  0.103734  0.093792  -0.000326  1.06638  0.0
H  H9  1  0.31116434  0.21637784  0.30832140  1  0.08861  -0.000482  0.994808  0.0  0.095745  -0.000408  1.064618  0.0  0.098665  -0.000463  1.062462  0.0  0.103565  0.093546  -0.000322  1.066284  0.0
H  H10  1  0.05387747  0.69101569  0.02594463  1  0.08589  -0.000199  0.959362  0.0  0.09049  0.000128  1.029434  0.0  0.093613  -2.6e-05  1.026727  0.0  0.115491  0.088186  0.000306  1.031485  0.0
H  H11  1  0.44580410  0.66497030  0.97422384  1  0.085574  -0.000204  0.959331  0.0  0.090777  0.000131  1.028691  0.0  0.09396  -2.4e-05  1.025909  0.0  0.115721  0.088385  0.00031  1.030854  0.0
H  H12  1  0.94612571  0.30898616  0.97405974  1  0.085905  -0.000213  0.9594  0.0  0.090498  0.000128  1.029478  0.0  0.093622  -2.6e-05  1.02677  0.0  0.115483  0.088188  0.000306  1.031523  0.0
H  H13  1  0.55417951  0.33502295  0.02576868  1  0.0856  -0.000199  0.959419  0.0  0.090771  0.000131  1.028831  0.0  0.093937  -2.4e-05  1.026066  0.0  0.115721  0.088381  0.00031  1.030985  0.0
H  H14  1  0.73040024  0.56512395  0.53110472  1  0.088743  4.1e-05  0.980799  0.0  0.099568  2.6e-05  1.046385  0.0  0.10168  2.1e-05  1.046634  0.0  0.098277  0.098049  3.8e-05  1.046295  0.0
H  H15  1  0.76943734  0.03380244  0.46885435  1  0.088164  3.8e-05  0.980862  0.0  0.09861  2.6e-05  1.046886  0.0  0.100834  2.1e-05  1.04693  0.0  0.097964  0.097027  3.8e-05  1.046929  0.0
H  H16  1  0.26960874  0.43488270  0.46889549  1  0.088738  3.8e-05  0.980898  0.0  0.099563  2.6e-05  1.04648  0.0  0.10168  2.1e-05  1.046729  0.0  0.098271  0.098044  3.8e-05  1.046387  0.0
H  H17  1  0.23056318  0.96619653  0.53113632  1  0.088156  4.1e-05  0.980963  0.0  0.098614  2.6e-05  1.046963  0.0  0.10084  2.1e-05  1.047003  0.0  0.097973  0.097034  3.8e-05  1.047004  0.0
H  H18  1  0.94029752  0.22170768  0.52517948  1  0.08581  4.6e-05  0.974104  0.0  0.098007  3.2e-05  1.035997  0.0  0.100179  2.3e-05  1.036252  0.0  0.097592  0.096446  4.6e-05  1.03598  0.0
H  H19  1  0.55979057  0.69667100  0.47540379  1  0.085823  5e-05  0.973562  0.0  0.098356  3.3e-05  1.03498  0.0  0.100486  2.4e-05  1.035252  0.0  0.097651  0.096824  4.7e-05  1.034931  0.0
H  H20  1  0.05971281  0.77829994  0.47482449  1  0.08581  5.6e-05  0.974025  0.0  0.097973  3.2e-05  1.035963  0.0  0.100141  2.4e-05  1.03622  0.0  0.097547  0.096412  4.6e-05  1.03595  0.0
H  H21  1  0.44022653  0.30332791  0.52459212  1  0.085752  5e-05  0.973276  0.0  0.098229  3.2e-05  1.034787  0.0  0.100364  2.4e-05  1.035064  0.0  0.097565  0.09668  4.7e-05  1.034753  0.0
H  H22  1  0.70516271  0.63334991  0.73082631  1  0.075117  -8.6e-05  0.990926  0.0  0.080307  0.000265  1.064932  0.0  0.083585  0.000118  1.061229  0.0  0.113807  0.07796  0.000426  1.067558  0.0
H  H23  1  0.79485705  0.90210220  0.26921173  1  0.075071  -8.1e-05  0.991106  0.0  0.080072  0.000258  1.065352  0.0  0.083218  0.00011  1.061796  0.0  0.113772  0.07781  0.000418  1.067905  0.0
H  H24  1  0.29484611  0.36665481  0.26917871  1  0.075103  -7.9e-05  0.990925  0.0  0.080284  0.000265  1.064925  0.0  0.08356  0.000118  1.061228  0.0  0.113808  0.077937  0.000426  1.067551  0.0
H  H25  1  0.20511958  0.09789396  0.73078938  1  0.074971  -8.9e-05  0.991081  0.0  0.08002  0.000257  1.065294  0.0  0.083158  0.00011  1.061761  0.0  0.113764  0.077755  0.000418  1.067845  0.0
H  H26  1  0.12090216  0.34789827  0.66955573  1  0.086193  -9.1e-05  0.986584  0.0  0.095999  -1.6e-05  1.05239  0.0  0.097957  -3.4e-05  1.05219  0.0  0.100383  0.094552  2.3e-05  1.052617  0.0
H  H27  1  0.37899108  0.67825997  0.33059474  1  0.085967  -7.9e-05  0.987384  0.0  0.096086  -1.7e-05  1.052647  0.0  0.098101  -3.5e-05  1.052429  0.0  0.100289  0.094589  2.3e-05  1.052932  0.0
H  H28  1  0.87910263  0.65211033  0.33044939  1  0.08617  -9.5e-05  0.986466  0.0  0.095936  -1.6e-05  1.05235  0.0  0.097891  -3.5e-05  1.052149  0.0  0.100391  0.094491  2.3e-05  1.052584  0.0
H  H29  1  0.62099516  0.32173230  0.66940474  1  0.08601  -9.9e-05  0.987377  0.0  0.096144  -1.7e-05  1.052635  0.0  0.098137  -3.5e-05  1.052437  0.0  0.100321  0.094645  2.3e-05  1.052919  0.0
H  H30  1  0.21551859  0.47892909  0.89405959  1  0.095375  0.000163  0.967407  0.0  0.104992  0.000247  1.02977  0.0  0.10729  0.000163  1.030789  0.0  0.102209  0.103366  0.000349  1.029243  0.0
H  H31  1  0.28441366  0.58475592  0.10611181  1  0.095373  0.000161  0.967079  0.0  0.105035  0.000246  1.029425  0.0  0.107408  0.000163  1.030339  0.0  0.10218  0.103367  0.000349  1.028951  0.0
H  H32  1  0.78448603  0.52107372  0.10594363  1  0.09539  0.000163  0.967376  0.0  0.104995  0.000247  1.029724  0.0  0.107291  0.000163  1.030746  0.0  0.102217  0.103368  0.000349  1.029199  0.0
H  H33  1  0.71558386  0.41524113  0.89388771  1  0.095313  0.000165  0.966955  0.0  0.105001  0.000246  1.029296  0.0  0.107376  0.000163  1.030207  0.0  0.10215  0.103331  0.000349  1.028823  0.0
C  C34  1  0.90604085  0.47967978  0.67833051  1  -0.000623  -0.000994  3.778101  -0.001  0.021174  -0.000307  4.004543  0.0  0.016564  -0.000784  4.028613  0.0  -0.004563  0.02403  8.4e-05  3.988325  0.0
C  C35  1  0.59394989  0.80111696  0.32186480  1  -0.001327  -0.000906  3.779884  0.0  0.02023  -0.000278  4.006747  0.0  0.015561  -0.000747  4.030904  0.0  -0.004444  0.023105  0.000107  3.990511  0.0
C  C36  1  0.09396375  0.52032303  0.32167352  1  -0.000807  -0.000986  3.778303  -0.001  0.021031  -0.000306  4.004702  0.0  0.016422  -0.000786  4.028778  0.0  -0.00456  0.023888  8.4e-05  3.988483  0.0
C  C37  1  0.40603399  0.19888208  0.67812472  1  -0.001305  -0.000977  3.780065  -0.001  0.020174  -0.000276  4.007008  0.0  0.015513  -0.000749  4.031143  0.0  -0.004606  0.023046  0.000107  3.990773  0.0
C  C38  1  0.69639160  0.25249148  0.29864700  1  -0.061928  -0.000289  3.727088  0.0  -0.037558  0.000493  3.956006  0.001  -0.045785  -0.000305  3.978336  0.0  -0.014438  -0.032655  0.001419  3.941812  0.001
C  C39  1  0.80353557  0.95425005  0.70166235  1  -0.062332  -0.000237  3.727939  0.0  -0.037723  0.000534  3.956286  0.001  -0.045916  -0.000255  3.978595  0.0  -0.014821  -0.032823  0.00145  3.942075  0.001
C  C40  1  0.30361729  0.74751325  0.70135394  1  -0.061886  -0.000349  3.727084  0.0  -0.03754  0.000493  3.95599  0.001  -0.045762  -0.000306  3.978308  0.0  -0.014471  -0.032648  0.001418  3.941812  0.001
C  C41  1  0.19646511  0.04574989  0.29832060  1  -0.062208  -0.00025  3.727385  0.0  -0.037628  0.000528  3.955798  0.001  -0.045824  -0.000265  3.978106  0.0  -0.014702  -0.032728  0.001445  3.941597  0.001
C  C42  1  0.60504009  0.16637367  0.17229170  1  0.678607  0.011556  3.873752  0.012  0.625011  0.019115  4.166585  0.018  0.662142  0.01434  4.157316  0.015  0.226834  0.598936  0.024644  4.172144  0.022
C  C43  1  0.89498255  0.99455860  0.82801930  1  0.679882  0.011477  3.871977  0.012  0.626268  0.018996  4.164567  0.018  0.663359  0.014261  4.15529  0.014  0.227138  0.600237  0.02446  4.170084  0.022
C  C44  1  0.39496032  0.83362915  0.82771388  1  0.678618  0.011569  3.873817  0.012  0.625063  0.019118  4.166579  0.018  0.662192  0.014342  4.157307  0.015  0.226877  0.598989  0.024649  4.172138  0.022
C  C45  1  0.10501358  0.00544039  0.17198519  1  0.679816  0.011485  3.872101  0.012  0.626229  0.019  4.164696  0.018  0.663321  0.014266  4.155417  0.014  0.227076  0.600198  0.024469  4.170216  0.022
C  C46  1  0.67491501  0.38653712  0.36224944  1  -0.069851  0.002066  3.752512  0.002  -0.093667  0.002653  4.003028  0.002  -0.093119  0.002084  4.02381  0.002  -0.087712  -0.093927  0.003908  3.989162  0.003
C  C47  1  0.82503438  0.02443871  0.63783472  1  -0.069435  0.002034  3.751123  0.002  -0.09331  0.002613  4.001511  0.002  -0.092804  0.002051  4.022321  0.002  -0.087165  -0.093562  0.003844  3.98759  0.003
C  C48  1  0.32508974  0.61346955  0.63775395  1  -0.069796  0.002108  3.752574  0.002  -0.093615  0.002653  4.003069  0.002  -0.093062  0.002086  4.023878  0.002  -0.087617  -0.093868  0.003909  3.989205  0.003
C  C49  1  0.17496874  0.97555736  0.36216037  1  -0.069404  0.002035  3.750374  0.002  -0.09329  0.002618  4.000829  0.002  -0.092783  0.002057  4.021641  0.002  -0.087143  -0.093546  0.003851  3.986918  0.003
C  C50  1  0.79534354  0.19599508  0.35916713  1  -0.055057  0.001796  3.74735  0.002  -0.080306  0.002143  3.994702  0.002  -0.079495  0.001726  4.015407  0.002  -0.082738  -0.080841  0.003055  3.981211  0.003
C  C51  1  0.70463315  0.83726277  0.64130636  1  -0.055296  0.001768  3.746612  0.002  -0.080104  0.002114  3.994017  0.002  -0.079299  0.001696  4.014725  0.002  -0.082394  -0.080637  0.003013  3.980515  0.003
C  C52  1  0.20466404  0.80401158  0.64083305  1  -0.055192  0.001869  3.7472  0.002  -0.080432  0.002143  3.994562  0.002  -0.079615  0.001728  4.015259  0.002  -0.082804  -0.080959  0.003055  3.981083  0.003
C  C53  1  0.29537849  0.16274098  0.35869418  1  -0.055351  0.001785  3.746335  0.002  -0.080212  0.002118  3.993744  0.002  -0.079405  0.001702  4.014455  0.002  -0.082464  -0.080744  0.003019  3.980238  0.003
C  C54  1  0.84018809  0.40357722  0.54658963  1  0.046966  0.001916  3.799113  0.002  0.059626  0.002329  4.030263  0.002  0.061618  0.001925  4.053709  0.002  -0.010772  0.058345  0.003443  4.014349  0.003
C  C55  1  0.65980126  0.85688455  0.45360439  1  0.046526  0.001886  3.800224  0.002  0.059245  0.002297  4.031546  0.002  0.061245  0.001898  4.055006  0.002  -0.011267  0.05798  0.003386  4.015614  0.003
C  C56  1  0.15981927  0.59642269  0.45340900  1  0.04697  0.001968  3.79911  0.002  0.059606  0.00233  4.030265  0.002  0.061597  0.001927  4.053714  0.002  -0.010812  0.058325  0.003444  4.01436  0.003
C  C57  1  0.34019499  0.14311733  0.54639901  1  0.046443  0.001914  3.801047  0.002  0.059272  0.002301  4.032215  0.002  0.061277  0.001902  4.055668  0.002  -0.01125  0.058005  0.00339  4.016277  0.003
C  C58  1  0.01481836  0.62721951  0.92785836  1  0.116964  0.0013  3.696056  0.002  0.085923  0.002914  3.950537  0.003  0.092804  0.002173  3.967448  0.002  0.047983  0.081133  0.004356  3.9394  0.004
C  C59  1  0.48497858  0.69923939  0.07231631  1  0.117579  0.001256  3.696267  0.002  0.086153  0.002838  3.9507  0.003  0.092975  0.002109  3.967659  0.002  0.04787  0.081446  0.004249  3.939546  0.004
C  C60  1  0.98518483  0.37278234  0.07214519  1  0.116867  0.00135  3.696161  0.002  0.085859  0.002913  3.950613  0.003  0.092739  0.002174  3.967524  0.002  0.047987  0.081078  0.004356  3.939465  0.004
C  C61  1  0.51501602  0.30075478  0.92768588  1  0.117713  0.001281  3.696274  0.002  0.086302  0.002841  3.950718  0.003  0.093136  0.002111  3.967681  0.002  0.04792  0.08159  0.004254  3.939576  0.004
C  C62  1  0.74579302  0.46087745  0.48416627  1  -0.12042  -0.001849  3.739757  -0.001  -0.139297  -0.001113  3.99057  -0.001  -0.143935  -0.001391  4.013226  -0.001  -0.093136  -0.136101  -0.001221  3.975193  -0.001
C  C63  1  0.75408183  0.97663762  0.51592212  1  -0.119009  -0.001798  3.739258  -0.001  -0.137449  -0.001086  3.989974  -0.001  -0.142113  -0.00136  4.012618  -0.001  -0.09264  -0.134245  -0.001188  3.974603  -0.001
C  C64  1  0.25421720  0.53912630  0.51583669  1  -0.120338  -0.001912  3.739791  -0.001  -0.139221  -0.001113  3.990612  -0.001  -0.143864  -0.001394  4.013264  -0.001  -0.093101  -0.136022  -0.001221  3.975232  -0.001
C  C65  1  0.24592677  0.02335939  0.48407926  1  -0.118968  -0.001846  3.739098  -0.001  -0.13746  -0.00109  3.989813  -0.001  -0.142122  -0.001365  4.01245  -0.001  -0.09266  -0.134256  -0.001191  3.974446  -0.001
C  C66  1  0.86640141  0.26950347  0.48046645  1  -0.121583  -0.001744  3.747137  -0.001  -0.13832  -0.00095  3.995106  -0.001  -0.142721  -0.001297  4.016649  -0.001  -0.092839  -0.135421  -0.00074  3.980677  -0.001
C  C67  1  0.63361374  0.78918382  0.51995394  1  -0.121909  -0.001729  3.74648  -0.001  -0.138859  -0.000923  3.994453  -0.001  -0.1432  -0.001264  4.016005  -0.001  -0.09325  -0.135976  -0.000712  3.980007  -0.001
C  C68  1  0.13360875  0.73049740  0.51953351  1  -0.12151  -0.001873  3.746904  -0.001  -0.13821  -0.00095  3.994872  -0.001  -0.142608  -0.0013  4.016412  -0.001  -0.092777  -0.135317  -0.00074  3.98045  -0.001
C  C69  1  0.36637787  0.21080457  0.48004792  1  -0.121801  -0.00176  3.746575  -0.001  -0.138732  -0.000927  3.994525  -0.001  -0.143085  -0.00127  4.016091  -0.001  -0.093127  -0.135831  -0.000715  3.980078  -0.001
C  C70  1  0.82311035  0.59655682  0.76080020  1  0.090587  0.002238  3.650998  0.002  0.055884  0.004059  3.897277  0.003  0.062112  0.003201  3.913455  0.003  0.054669  0.051543  0.005135  3.88686  0.004
C  C71  1  0.67687327  0.83540306  0.23933233  1  0.091257  0.002148  3.652189  0.002  0.056728  0.003995  3.898593  0.003  0.063012  0.003139  3.914938  0.003  0.055174  0.052321  0.005063  3.888138  0.004
C  C72  1  0.17689148  0.40344600  0.23920378  1  0.090653  0.002217  3.651009  0.002  0.055977  0.004058  3.89729  0.003  0.062191  0.003201  3.913494  0.003  0.054644  0.051632  0.005134  3.886875  0.004
C  C73  1  0.32312128  0.16458725  0.76066396  1  0.091445  0.002203  3.651453  0.002  0.056922  0.003995  3.897883  0.003  0.063186  0.003143  3.914255  0.003  0.055334  0.052512  0.005067  3.887433  0.004
C  C74  1  0.04968049  0.43721271  0.72882943  1  -0.056223  0.001426  3.708378  0.001  -0.080607  0.002544  3.951182  0.002  -0.078079  0.001985  3.969855  0.002  -0.071966  -0.082176  0.003992  3.938591  0.003
C  C75  1  0.45024429  0.70824823  0.27133474  1  -0.055866  0.001327  3.709101  0.001  -0.080316  0.002476  3.951798  0.002  -0.077845  0.001929  3.970524  0.002  -0.071874  -0.081833  0.003894  3.939202  0.003
C  C76  1  0.95032274  0.56279010  0.27117375  1  -0.056101  0.001442  3.708235  0.001  -0.080479  0.002543  3.951065  0.002  -0.07795  0.001986  3.969736  0.002  -0.071943  -0.082056  0.003992  3.938483  0.003
C  C77  1  0.54973901  0.29173633  0.72865695  1  -0.055983  0.001416  3.709391  0.001  -0.080441  0.002477  3.952109  0.002  -0.077954  0.00193  3.970845  0.002  -0.07193  -0.081962  0.003899  3.939515  0.003
C  C78  1  0.10373700  0.51103165  0.85431107  1  -0.129648  -0.001216  3.771737  -0.001  -0.139216  -0.000669  4.023326  0.0  -0.14623  -0.001052  4.045198  0.0  -0.09001  -0.134727  -0.000537  4.008857  0.0
C  C79  1  0.39614948  0.65660698  0.14585964  1  -0.130309  -0.001133  3.771557  -0.001  -0.140034  -0.000636  4.023574  0.0  -0.147111  -0.001016  4.045449  0.0  -0.090088  -0.135491  -0.000503  4.009065  0.0
C  C80  1  0.89626482  0.48897020  0.14569163  1  -0.129663  -0.001233  3.771741  -0.001  -0.139197  -0.000668  4.023316  0.0  -0.146211  -0.001054  4.045188  0.0  -0.090027  -0.13471  -0.000537  4.00885  0.0
C  C81  1  0.60383539  0.34338337  0.85413481  1  -0.130264  -0.001214  3.77153  -0.001  -0.139987  -0.000637  4.023522  0.0  -0.147065  -0.001018  4.045391  0.0  -0.090011  -0.135446  -0.000505  4.009013  0.0
N  N82  1  0.87586510  0.66890401  0.88147730  1  -0.30157  0.023481  3.220213  0.013  -0.236024  0.029577  3.492359  0.016  -0.252945  0.026251  3.507341  0.014  -0.303275  -0.224226  0.032922  3.482446  0.019
N  N83  1  0.62398307  0.78718261  0.11867989  1  -0.30191  0.023445  3.219322  0.013  -0.236415  0.029588  3.491464  0.017  -0.253281  0.026267  3.506372  0.014  -0.303648  -0.224631  0.032937  3.481554  0.019
N  N84  1  0.12413531  0.33109785  0.11852619  1  -0.301469  0.023468  3.220182  0.013  -0.235983  0.029575  3.492376  0.016  -0.252904  0.026251  3.507361  0.014  -0.303242  -0.224186  0.032921  3.48246  0.019
N  N85  1  0.37600064  0.21281931  0.88132572  1  -0.302046  0.023423  3.21908  0.013  -0.2366  0.029588  3.491275  0.016  -0.253462  0.026265  3.506174  0.014  -0.303768  -0.224818  0.032937  3.481366  0.019
O  O86  1  0.49677677  0.21889260  0.12635852  1  -0.656392  0.031781  2.047945  0.021  -0.592504  0.042097  2.315073  0.029  -0.622023  0.036731  2.300256  0.024  -0.306112  -0.570489  0.047888  2.324278  0.035
O  O87  1  0.00370779  0.09271029  0.87364259  1  -0.656983  0.031802  2.048498  0.022  -0.592854  0.042074  2.315226  0.029  -0.622493  0.036724  2.300631  0.024  -0.30608  -0.570831  0.047837  2.324466  0.034
O  O88  1  0.50322223  0.78111024  0.87364867  1  -0.656378  0.031773  2.04796  0.021  -0.59251  0.042097  2.315053  0.029  -0.622062  0.036732  2.300314  0.024  -0.306163  -0.570508  0.047889  2.324291  0.035
O  O89  1  0.99628976  0.90728676  0.12635530  1  -0.657  0.031804  2.048471  0.022  -0.592869  0.042079  2.315182  0.029  -0.622514  0.036727  2.300589  0.024  -0.30607  -0.570847  0.047842  2.324428  0.034
O  O90  1  0.63398766  0.04644017  0.12409243  1  -0.641765  0.034989  2.101679  0.021  -0.576193  0.043614  2.384974  0.025  -0.607014  0.038225  2.368386  0.02  -0.309543  -0.553277  0.049199  2.395905  0.03
O  O91  1  0.86561659  0.92317084  0.87651502  1  -0.642038  0.035023  2.099933  0.021  -0.576314  0.043721  2.383085  0.025  -0.607127  0.038319  2.366517  0.02  -0.30938  -0.553401  0.049329  2.393997  0.03
O  O92  1  0.36601835  0.95356264  0.87591081  1  -0.641852  0.034987  2.101796  0.021  -0.576262  0.043618  2.38504  0.025  -0.60708  0.038228  2.368449  0.02  -0.30957  -0.553345  0.049202  2.395969  0.03
O  O93  1  0.13436713  0.07682820  0.12348351  1  -0.641966  0.035019  2.099792  0.021  -0.576283  0.043722  2.382961  0.025  -0.607092  0.038318  2.366388  0.02  -0.309373  -0.553363  0.049329  2.393871  0.03
