# generated using pymatgen
data_ZnH14C20(NO)4
_symmetry_space_group_name_H-M   'P 1'
_cell_length_a   9.71856497
_cell_length_b   12.94499232
_cell_length_c   22.63400959
_cell_angle_alpha   89.99993283
_cell_angle_beta   90.00020565
_cell_angle_gamma   90.00017507
_symmetry_Int_Tables_number   1
_chemical_formula_structural   ZnH14C20(NO)4
_chemical_formula_sum   'Zn4 H56 C80 N16 O16'
_cell_volume   2847.51116285
_cell_formula_units_Z   4
loop_
 _symmetry_equiv_pos_site_id
 _symmetry_equiv_pos_as_xyz
  1  'x, y, z'
loop_
 _atom_site_type_symbol
 _atom_site_label
 _atom_site_symmetry_multiplicity
 _atom_site_fract_x
 _atom_site_fract_y
 _atom_site_fract_z
 _atom_site_occupancy
 _atom_site_pbe_bader_charge
 _atom_site_pbe_bader_spin_density
 _atom_site_pbe_cm5_charge
 _atom_site_pbe_ddec_charge
 _atom_site_pbe_ddec_spin_density
 _atom_site_pbe_ddec_sum_bond_order
 _atom_site_pbe_magmom
Zn  Zn0  1  0.18810078  0.28202398  0.34783811  1  1.240051  0  0.686164  0.760557  0  2.441959  0
Zn  Zn1  1  0.81189956  0.71797577  0.84783779  1  1.240061  0  0.686187  0.760652  0  2.44187  0
Zn  Zn2  1  0.68809940  0.21797456  0.84783831  1  1.24005  0  0.686156  0.76058  0  2.441934  0
Zn  Zn3  1  0.31189889  0.78202364  0.34783892  1  1.24006  0  0.686185  0.760621  0  2.441903  0
H  H4  1  0.31918018  0.07802098  0.28886640  1  0.233512  0  0.141225  0.125316  0  1.03387  0
H  H5  1  0.68082173  0.92198353  0.78886619  1  0.233549  0  0.141224  0.125309  0  1.033911  0
H  H6  1  0.81917962  0.42197953  0.78886646  1  0.233522  0  0.141218  0.125316  0  1.033898  0
H  H7  1  0.18082023  0.57801957  0.28886569  1  0.233551  0  0.141227  0.125328  0  1.033875  0
H  H8  1  0.01342016  0.28210733  0.22398498  1  0.125547  0  0.125316  0.125003  0  0.995779  0
H  H9  1  0.98657607  0.71789267  0.72398581  1  0.125609  0  0.125301  0.12502  0  0.995644  0
H  H10  1  0.51342186  0.21789028  0.72398429  1  0.125519  0  0.12536  0.124969  0  0.995769  0
H  H11  1  0.48658054  0.78210894  0.22398606  1  0.125548  0  0.125351  0.125018  0  0.995659  0
H  H12  1  0.02195883  0.10557660  0.15323841  1  0.085564  0  0.128647  0.12857  0  0.992599  0
H  H13  1  0.97804092  0.89442354  0.65323867  1  0.085596  0  0.128663  0.128598  0  0.992563  0
H  H14  1  0.52195713  0.39442350  0.65323893  1  0.085467  0  0.128661  0.12856  0  0.992615  0
H  H15  1  0.47804570  0.60557742  0.15323947  1  0.085489  0  0.128674  0.128614  0  0.992529  0
H  H16  1  0.13351204  0.91863010  0.18001518  1  0.099407  0  0.131804  0.122162  0  0.920821  0
H  H17  1  0.86649307  0.08136999  0.68001449  1  0.099337  0  0.131819  0.122193  0  0.920812  0
H  H18  1  0.63350702  0.58136693  0.68001414  1  0.099388  0  0.131804  0.122143  0  0.920894  0
H  H19  1  0.36649193  0.41863162  0.18001553  1  0.099378  0  0.131797  0.122181  0  0.920873  0
H  H20  1  0.27340329  0.92183840  0.23090375  1  0.190574  0  0.132625  0.136656  0  0.987626  0
H  H21  1  0.72660431  0.07816545  0.73090196  1  0.190715  0  0.132656  0.136722  0  0.987582  0
H  H22  1  0.77339413  0.57816348  0.73090316  1  0.190616  0  0.132671  0.13671  0  0.987597  0
H  H23  1  0.22660421  0.42183650  0.23090433  1  0.19084  0  0.132645  0.136697  0  0.987602  0
H  H24  1  0.62443066  0.08946370  0.94065040  1  0.164055  0  0.127199  0.124192  0  0.991185  0
H  H25  1  0.37556737  0.91053664  0.44065015  1  0.164058  0  0.127193  0.124185  0  0.991175  0
H  H26  1  0.12442537  0.41053451  0.44065145  1  0.164032  0  0.127241  0.12427  0  0.99105  0
H  H27  1  0.87557061  0.58946119  0.94064910  1  0.164192  0  0.127259  0.124286  0  0.991099  0
H  H28  1  0.75590199  0.12056926  0.99152128  1  0.125111  0  0.131915  0.124124  0  0.928222  0
H  H29  1  0.24410264  0.87943174  0.49152217  1  0.125404  0  0.131928  0.124121  0  0.928253  0
H  H30  1  0.25589657  0.37942837  0.49152147  1  0.12539  0  0.131913  0.124112  0  0.928234  0
H  H31  1  0.74410497  0.62056722  0.99152022  1  0.125454  0  0.131946  0.124188  0  0.928239  0
H  H32  1  0.61778403  0.90198179  0.89725127  1  0.191074  0  0.145366  0.126341  0  0.991261  0
H  H33  1  0.38221364  0.09801709  0.39725113  1  0.190994  0  0.145362  0.126388  0  0.991246  0
H  H34  1  0.11778055  0.59801553  0.39725253  1  0.191067  0  0.145403  0.12641  0  0.991312  0
H  H35  1  0.88221506  0.40198025  0.89725164  1  0.191091  0  0.145371  0.126326  0  0.991327  0
H  H36  1  0.94174294  0.98167565  0.01441366  1  0.113121  0  0.129087  0.12807  0  0.991905  0
H  H37  1  0.05825873  0.01832400  0.51441530  1  0.113116  0  0.129082  0.128054  0  0.991894  0
H  H38  1  0.44174023  0.51832088  0.51441455  1  0.113085  0  0.129081  0.128079  0  0.991866  0
H  H39  1  0.55826041  0.48167492  0.01441442  1  0.113134  0  0.129087  0.128062  0  0.991905  0
H  H40  1  0.00790287  0.79983806  0.95414663  1  0.141093  0  0.127873  0.129462  0  0.983524  0
H  H41  1  0.99209528  0.20016147  0.45414560  1  0.141124  0  0.127867  0.129498  0  0.983517  0
H  H42  1  0.50790341  0.70015735  0.45414505  1  0.141134  0  0.127898  0.129526  0  0.983496  0
H  H43  1  0.49209577  0.29983832  0.95414629  1  0.141114  0  0.127873  0.129521  0  0.983576  0
H  H44  1  0.87868578  0.60582337  0.31739055  1  0.14302  0  0.100246  0.114632  0  1.031429  0
H  H45  1  0.12131534  0.39418030  0.81739115  1  0.14308  0  0.100274  0.114639  0  1.031425  0
H  H46  1  0.37868048  0.89417626  0.81738985  1  0.143058  0  0.100221  0.114628  0  1.031423  0
H  H47  1  0.62131549  0.10581891  0.31739184  1  0.142963  0  0.100262  0.114637  0  1.031443  0
H  H48  1  0.63678911  0.67074703  0.32324260  1  0.086232  0  0.094051  0.093428  0  1.041924  0
H  H49  1  0.36321205  0.32925663  0.82324185  1  0.08631  0  0.094053  0.093396  0  1.042006  0
H  H50  1  0.13678458  0.82925126  0.82324239  1  0.086208  0  0.09403  0.093452  0  1.041902  0
H  H51  1  0.86321247  0.17074391  0.32324250  1  0.086288  0  0.094051  0.093401  0  1.042007  0
H  H52  1  0.44448687  0.54653738  0.33793631  1  0.074029  0  0.094154  0.089887  0  1.067573  0
H  H53  1  0.55551442  0.45346780  0.83793754  1  0.074234  0  0.094135  0.089802  0  1.067662  0
H  H54  1  0.94448336  0.95346313  0.83793723  1  0.073994  0  0.09413  0.089864  0  1.067565  0
H  H55  1  0.05551485  0.04653432  0.33793750  1  0.074033  0  0.094132  0.089786  0  1.067633  0
H  H56  1  0.73092582  0.29606091  0.34981166  1  0.085816  0  0.102991  0.109006  0  1.030079  0
H  H57  1  0.26907351  0.70394269  0.84981670  1  0.085732  0  0.102988  0.109046  0  1.03006  0
H  H58  1  0.23092695  0.20394004  0.84981021  1  0.085836  0  0.102966  0.109022  0  1.030039  0
H  H59  1  0.76907444  0.79605662  0.34981550  1  0.085738  0  0.102938  0.108926  0  1.030121  0
C  C60  1  0.23645187  0.11193827  0.26304192  1  0.936664  0  0.156821  0.110476  0  3.863836  0
C  C61  1  0.76354776  0.88806551  0.76304229  1  0.936871  0  0.156843  0.110579  0  3.863943  0
C  C62  1  0.73645221  0.38806132  0.76304200  1  0.936595  0  0.156829  0.110462  0  3.863888  0
C  C63  1  0.26354845  0.61193782  0.26304177  1  0.936949  0  0.156844  0.110496  0  3.863946  0
C  C64  1  0.07779065  0.21388411  0.22693768  1  0.424615  0  0.002186  -0.028912  0  4.005356  0
C  C65  1  0.92220560  0.78611820  0.72693749  1  0.424575  0  0.002208  -0.028952  0  4.005419  0
C  C66  1  0.57779160  0.28611365  0.72693695  1  0.424561  0  0.002136  -0.02885  0  4.00524  0
C  C67  1  0.42220774  0.71388326  0.22693734  1  0.424542  0  0.002144  -0.028958  0  4.005436  0
C  C68  1  0.08083192  0.12746000  0.19186925  1  0.346097  0  0.003211  -0.116878  0  3.945853  0
C  C69  1  0.91916917  0.87254007  0.69187120  1  0.346095  0  0.003207  -0.116853  0  3.946014  0
C  C70  1  0.58082911  0.37253939  0.69187022  1  0.346227  0  0.003216  -0.116843  0  3.94579  0
C  C71  1  0.41916993  0.62746223  0.19187111  1  0.3462  0  0.003222  -0.116858  0  3.945977  0
C  C72  1  0.22514197  0.96264876  0.19354929  1  0.352782  0  -0.022411  -0.043301  0  3.965946  0
C  C73  1  0.77486017  0.03735362  0.69354805  1  0.352649  0  -0.022461  -0.043467  0  3.965978  0
C  C74  1  0.72513985  0.53735000  0.69354829  1  0.352806  0  -0.022427  -0.043376  0  3.965944  0
C  C75  1  0.27486126  0.46264775  0.19354950  1  0.352493  0  -0.022437  -0.043426  0  3.965986  0
C  C76  1  0.32274880  0.97449829  0.14546376  1  0.254412  0  -0.024687  -0.052389  0  3.977801  0
C  C77  1  0.67724883  0.02550728  0.64546326  1  0.255125  0  -0.024702  -0.05226  0  3.978051  0
C  C78  1  0.82275178  0.52550079  0.64546320  1  0.255433  0  -0.024592  -0.052157  0  3.978101  0
C  C79  1  0.17725408  0.47449551  0.14546338  1  0.255447  0  -0.024677  -0.052338  0  3.977879  0
C  C80  1  0.40773139  0.99359539  0.10730046  1  -0.427393  0  -0.040175  -0.043105  0  4.318746  0
C  C81  1  0.59226797  0.00642185  0.60730249  1  -0.427888  0  -0.040168  -0.043243  0  4.318846  0
C  C82  1  0.90772812  0.50640783  0.60730565  1  -0.428415  0  -0.040297  -0.043319  0  4.318693  0
C  C83  1  0.09227433  0.49358777  0.10730038  1  -0.428466  0  -0.040181  -0.043166  0  4.318639  0
C  C84  1  0.50169474  0.01615656  0.06500035  1  -0.384606  0  -0.040099  -0.036949  0  4.325081  0
C  C85  1  0.49829912  0.98385767  0.56499805  1  -0.3849  0  -0.039993  -0.036682  0  4.325216  0
C  C86  1  0.00170216  0.48384058  0.56500181  1  -0.384685  0  -0.040028  -0.03676  0  4.324974  0
C  C87  1  0.99830817  0.51615125  0.06499748  1  -0.384753  0  -0.040008  -0.036771  0  4.32521  0
C  C88  1  0.58603218  0.03826100  0.02712334  1  0.196754  0  -0.029902  -0.063939  0  3.982275  0
C  C89  1  0.41397165  0.96174558  0.52712357  1  0.196822  0  -0.030028  -0.064189  0  3.982684  0
C  C90  1  0.08602716  0.46173641  0.52712525  1  0.196733  0  -0.03  -0.064163  0  3.982805  0
C  C91  1  0.91397565  0.53825781  0.02712298  1  0.196937  0  -0.030001  -0.064051  0  3.982663  0
C  C92  1  0.68130027  0.06029105  0.97935858  1  0.33343  0  -0.024721  -0.040045  0  3.982156  0
C  C93  1  0.31870014  0.93970997  0.47935821  1  0.333195  0  -0.024695  -0.03992  0  3.982021  0
C  C94  1  0.18129715  0.43970643  0.47935916  1  0.333166  0  -0.024728  -0.040006  0  3.981864  0
C  C95  1  0.81870326  0.56029073  0.97935763  1  0.333003  0  -0.024776  -0.040192  0  3.982086  0
C  C96  1  0.71498675  0.89848091  0.92075668  1  0.968609  0  0.154399  0.106485  0  3.878617  0
C  C97  1  0.28501112  0.10151869  0.42075639  1  0.968728  0  0.154414  0.106464  0  3.87861  0
C  C98  1  0.21498328  0.60151582  0.42075749  1  0.968007  0  0.154383  0.106436  0  3.878674  0
C  C99  1  0.78501253  0.39847837  0.92075735  1  0.968627  0  0.154449  0.106533  0  3.878519  0
C  C100  1  0.88523855  0.93704190  0.98202832  1  0.35723  0  0.003159  -0.113474  0  3.940086  0
C  C101  1  0.11476188  0.06295758  0.48202779  1  0.357229  0  0.003182  -0.113382  0  3.940142  0
C  C102  1  0.38523596  0.56295509  0.48202827  1  0.357233  0  0.003283  -0.113364  0  3.940096  0
C  C103  1  0.61476242  0.43704206  0.98202872  1  0.35722  0  0.003274  -0.113339  0  3.939905  0
C  C104  1  0.91626135  0.84745443  0.95244943  1  0.344575  0  0.004189  -0.024574  0  3.990924  0
C  C105  1  0.08373679  0.15254279  0.45244968  1  0.344515  0  0.004232  -0.024624  0  3.990887  0
C  C106  1  0.41626117  0.65253961  0.45244976  1  0.344633  0  0.004114  -0.024714  0  3.990876  0
C  C107  1  0.58373593  0.34745529  0.95244978  1  0.344079  0  0.004216  -0.02466  0  3.990853  0
C  C108  1  0.96532888  0.40859120  0.33001284  1  1.537175  0  0.197849  0.563498  0  4.221808  0
C  C109  1  0.03467131  0.59141244  0.83001715  1  1.537537  0  0.197899  0.563581  0  4.221943  0
C  C110  1  0.46532750  0.09140723  0.83001058  1  1.537338  0  0.197948  0.563702  0  4.221596  0
C  C111  1  0.53467167  0.90858869  0.33001631  1  1.537423  0  0.197929  0.563604  0  4.221867  0
C  C112  1  0.82022010  0.44683903  0.33341644  1  -0.04734  0  -0.024458  -0.039335  0  3.996299  0
C  C113  1  0.17977909  0.55316539  0.83342012  1  -0.047507  0  -0.024507  -0.039324  0  3.996367  0
C  C114  1  0.32021856  0.05316139  0.83341465  1  -0.047806  0  -0.02443  -0.039397  0  3.996337  0
C  C115  1  0.67977961  0.94683453  0.33341970  1  -0.0475  0  -0.024506  -0.039365  0  3.996447  0
C  C116  1  0.79362068  0.55238870  0.32489646  1  -0.048294  0  -0.083739  -0.089306  0  3.942314  0
C  C117  1  0.20638050  0.44761418  0.82489804  1  -0.048286  0  -0.083777  -0.089379  0  3.942334  0
C  C118  1  0.29361662  0.94761072  0.82489529  1  -0.047848  0  -0.083772  -0.089357  0  3.942179  0
C  C119  1  0.70638044  0.05238676  0.32489833  1  -0.048161  0  -0.083744  -0.089335  0  3.942355  0
C  C120  1  0.65862655  0.58856160  0.32777122  1  -0.060961  0  -0.0991  -0.093285  0  4.025084  0
C  C121  1  0.34137362  0.41144205  0.82777215  1  -0.060563  0  -0.099053  -0.093184  0  4.025156  0
C  C122  1  0.15862235  0.91143827  0.82777096  1  -0.060963  0  -0.099023  -0.09321  0  4.024939  0
C  C123  1  0.84137474  0.08855920  0.32777242  1  -0.061027  0  -0.099096  -0.093273  0  4.025262  0
C  C124  1  0.55033474  0.51963520  0.33633659  1  -0.060688  0  -0.093351  -0.09534  0  3.987505  0
C  C125  1  0.44966448  0.48036843  0.83633852  1  -0.061257  0  -0.093344  -0.09525  0  3.987511  0
C  C126  1  0.05033288  0.98036595  0.83633716  1  -0.060679  0  -0.093345  -0.095366  0  3.987628  0
C  C127  1  0.94966531  0.01963228  0.33633839  1  -0.060613  0  -0.093312  -0.095156  0  3.987506  0
C  C128  1  0.57543599  0.41366066  0.34294529  1  0.000413  0  -0.028928  -0.044434  0  3.995912  0
C  C129  1  0.42456431  0.58634219  0.84294755  1  0.000396  0  -0.028925  -0.044464  0  3.995992  0
C  C130  1  0.07543459  0.08633918  0.84294391  1  0.000359  0  -0.028931  -0.044408  0  3.995886  0
C  C131  1  0.92456572  0.91365826  0.34294671  1  0.000391  0  -0.028928  -0.0445  0  3.995977  0
C  C132  1  0.71136237  0.37800610  0.34304216  1  -0.063408  0  -0.083007  -0.112723  0  3.933824  0
C  C133  1  0.28863691  0.62199752  0.84304552  1  -0.063238  0  -0.082966  -0.112781  0  3.934088  0
C  C134  1  0.21136213  0.12199405  0.84303988  1  -0.063381  0  -0.082962  -0.112707  0  3.933692  0
C  C135  1  0.78863714  0.87800262  0.34304470  1  -0.063222  0  -0.082918  -0.112605  0  3.933948  0
C  C136  1  0.45711490  0.33961412  0.34811399  1  1.504801  0  0.193523  0.564521  0  4.221222  0
C  C137  1  0.54288545  0.66038949  0.84811595  1  1.504883  0  0.193557  0.56461  0  4.221132  0
C  C138  1  0.95711431  0.16038658  0.84811422  1  1.504797  0  0.193505  0.564459  0  4.221166  0
C  C139  1  0.04288501  0.83961162  0.34811527  1  1.504792  0  0.193483  0.564436  0  4.221357  0
N  N140  1  0.17519202  0.20301974  0.27116457  1  -1.23658  0  -0.357853  -0.292091  0  3.602353  0
N  N141  1  0.82480666  0.79698248  0.77116466  1  -1.236914  0  -0.357863  -0.292144  0  3.602387  0
N  N142  1  0.67519301  0.29697815  0.77116427  1  -1.236581  0  -0.357846  -0.292131  0  3.602333  0
N  N143  1  0.32480772  0.70301944  0.27116452  1  -1.236943  0  -0.357879  -0.29216  0  3.602455  0
N  N144  1  0.18053900  0.06373506  0.21576436  1  -1.236658  0  -0.232549  0.052969  0  3.748786  0
N  N145  1  0.81946333  0.93626650  0.71576479  1  -1.236581  0  -0.232563  0.052906  0  3.748831  0
N  N146  1  0.68053645  0.43626373  0.71576485  1  -1.236562  0  -0.232575  0.05294  0  3.748721  0
N  N147  1  0.31946279  0.56373551  0.21576430  1  -1.23657  0  -0.232596  0.052959  0  3.748836  0
N  N148  1  0.75827431  0.96830869  0.96113399  1  -1.18586  0  -0.231965  0.052791  0  3.769535  0
N  N149  1  0.24172389  0.03169083  0.46113367  1  -1.185892  0  -0.23202  0.052643  0  3.769523  0
N  N150  1  0.25827056  0.53168882  0.46113528  1  -1.185347  0  -0.232088  0.052655  0  3.769431  0
N  N151  1  0.74172764  0.46830760  0.96113458  1  -1.185836  0  -0.232103  0.05269  0  3.769275  0
N  N152  1  0.80898193  0.82435661  0.91446846  1  -1.234067  0  -0.357269  -0.293569  0  3.593964  0
N  N153  1  0.19101692  0.17564301  0.41446797  1  -1.234048  0  -0.357274  -0.293524  0  3.593868  0
N  N154  1  0.30897979  0.67564035  0.41446833  1  -1.233941  0  -0.357222  -0.293468  0  3.593661  0
N  N155  1  0.69101802  0.32435540  0.91446853  1  -1.233636  0  -0.357319  -0.293564  0  3.593794  0
O  O156  1  0.99831112  0.33366725  0.36572817  1  -1.174987  0  -0.338598  -0.56407  0  2.299363  0
O  O157  1  0.00169144  0.66633787  0.86573017  1  -1.175215  0  -0.338713  -0.564265  0  2.299437  0
O  O158  1  0.49831106  0.16632964  0.86572719  1  -1.175  0  -0.338658  -0.564144  0  2.299231  0
O  O159  1  0.50168943  0.83366234  0.36573027  1  -1.175168  0  -0.338724  -0.564275  0  2.299344  0
O  O160  1  0.04775919  0.44779608  0.29366725  1  -1.184612  0  -0.325251  -0.564845  0  2.167881  0
O  O161  1  0.95223967  0.55220455  0.79367300  1  -1.184796  0  -0.325196  -0.564756  0  2.167918  0
O  O162  1  0.54775713  0.05220379  0.79366535  1  -1.184706  0  -0.325298  -0.564941  0  2.16781  0
O  O163  1  0.45224173  0.94779684  0.29367226  1  -1.184707  0  -0.325221  -0.564758  0  2.167948  0
O  O164  1  0.47513073  0.24390995  0.34602779  1  -1.155887  0  -0.32786  -0.560543  0  2.136087  0
O  O165  1  0.52486960  0.75609134  0.84603098  1  -1.15598  0  -0.327929  -0.560624  0  2.136035  0
O  O166  1  0.97513053  0.25609002  0.84602929  1  -1.155919  0  -0.327845  -0.56049  0  2.136103  0
O  O167  1  0.02486980  0.74390819  0.34602993  1  -1.155966  0  -0.327834  -0.560483  0  2.136089  0
O  O168  1  0.33641406  0.38334440  0.35329237  1  -1.154429  0  -0.348087  -0.575093  0  2.355129  0
O  O169  1  0.66358427  0.61665688  0.85329278  1  -1.154468  0  -0.348087  -0.575117  0  2.355056  0
O  O170  1  0.83641432  0.11665524  0.85329396  1  -1.154433  0  -0.348109  -0.575104  0  2.355011  0
O  O171  1  0.16358401  0.88334373  0.35329340  1  -1.154408  0  -0.348087  -0.575068  0  2.355116  0
