# generated using pymatgen
data_AgH10C16N5O3
_symmetry_space_group_name_H-M   'P 1'
_cell_length_a   5.32792656
_cell_length_b   16.10631751
_cell_length_c   17.83444212
_cell_angle_alpha   89.99962202
_cell_angle_beta   90.00029322
_cell_angle_gamma   99.39047019
_symmetry_Int_Tables_number   1
_chemical_formula_structural   AgH10C16N5O3
_chemical_formula_sum   'Ag4 H40 C64 N20 O12'
_cell_volume   1509.92308028
_cell_formula_units_Z   4
loop_
 _symmetry_equiv_pos_site_id
 _symmetry_equiv_pos_as_xyz
  1  'x, y, z'
loop_
 _atom_site_type_symbol
 _atom_site_label
 _atom_site_symmetry_multiplicity
 _atom_site_fract_x
 _atom_site_fract_y
 _atom_site_fract_z
 _atom_site_occupancy
 _atom_site_pbe_bader_spin_density
 _atom_site_pbe_cm5_charge
 _atom_site_pbe_ddec_charge
 _atom_site_pbe_ddec_spin_density
 _atom_site_pbe_ddec_sum_bond_order
 _atom_site_pbe_magmom
Ag  Ag0  1  0.00182857  0.41733481  0.22814773  1  0  0.477819  0.371904  0  1.889335  0
Ag  Ag1  1  0.49817283  0.08267071  0.72814626  1  0  0.47782  0.371871  0  1.889453  0
Ag  Ag2  1  0.99816642  0.58266848  0.77185549  1  0  0.47784  0.371932  0  1.8894  0
Ag  Ag3  1  0.50184227  0.91732758  0.27185248  1  0  0.47782  0.371912  0  1.889393  0
H  H4  1  0.14213618  0.42270871  0.39947306  1  0  0.121997  0.101866  0  1.026553  0
H  H5  1  0.35784290  0.07729506  0.89947196  1  0  0.122  0.101877  0  1.026422  0
H  H6  1  0.85783186  0.57729708  0.60052736  1  0  0.122014  0.101875  0  1.026423  0
H  H7  1  0.64217032  0.92270322  0.10052453  1  0  0.122018  0.101896  0  1.026408  0
H  H8  1  0.76306375  0.54759505  0.20497926  1  0  0.098736  0.095547  0  1.062803  0
H  H9  1  0.73689446  0.95240767  0.70497460  1  0  0.098684  0.09552  0  1.062866  0
H  H10  1  0.23687648  0.45240755  0.79502340  1  0  0.098655  0.095518  0  1.062894  0
H  H11  1  0.26312972  0.04759000  0.29502246  1  0  0.098663  0.095488  0  1.06282  0
H  H12  1  0.47276218  0.65438543  0.19886583  1  0  0.108306  0.112819  0  1.004577  0
H  H13  1  0.02719461  0.84561968  0.69886093  1  0  0.108323  0.112809  0  1.004536  0
H  H14  1  0.52719394  0.34562286  0.80114076  1  0  0.108301  0.112828  0  1.004543  0
H  H15  1  0.97280182  0.15437104  0.30113893  1  0  0.108327  0.112821  0  1.004491  0
H  H16  1  0.31448690  0.71169497  0.31484674  1  0  0.099979  0.102189  0  1.043053  0
H  H17  1  0.18549744  0.78831256  0.81483962  1  0  0.100018  0.102242  0  1.043072  0
H  H18  1  0.68549768  0.28831397  0.68516154  1  0  0.100011  0.102249  0  1.043057  0
H  H19  1  0.81449893  0.21168193  0.18515968  1  0  0.099993  0.102227  0  1.043086  0
H  H20  1  0.45939941  0.66783641  0.44075280  1  0  0.104604  0.113381  0  1.016878  0
H  H21  1  0.04060172  0.83217033  0.94074799  1  0  0.104637  0.113386  0  1.016925  0
H  H22  1  0.54059426  0.33217192  0.55925211  1  0  0.104664  0.113435  0  1.016921  0
H  H23  1  0.95942059  0.16782733  0.05925187  1  0  0.104673  0.11347  0  1.016922  0
H  H24  1  0.40481907  0.50773278  0.12802745  1  0  0.121475  0.099219  0  1.026094  0
H  H25  1  0.09518718  0.99226843  0.62802625  1  0  0.121496  0.099209  0  1.026084  0
H  H26  1  0.59518725  0.49226675  0.87197578  1  0  0.121485  0.099184  0  1.026097  0
H  H27  1  0.90481629  0.00773299  0.37197193  1  0  0.121486  0.09921  0  1.026025  0
H  H28  1  0.63517737  0.32472228  0.12764857  1  0  0.102281  0.113859  0  1.053106  0
H  H29  1  0.86483377  0.17527464  0.62764634  1  0  0.102256  0.113864  0  1.053102  0
H  H30  1  0.36483118  0.67527411  0.87235409  1  0  0.102272  0.113887  0  1.053088  0
H  H31  1  0.13518163  0.82472428  0.37235072  1  0  0.10231  0.113901  0  1.053129  0
H  H32  1  0.39901133  0.23187461  0.02943142  1  0  0.100209  0.098632  0  1.030857  0
H  H33  1  0.10099054  0.26812339  0.52943102  1  0  0.100208  0.09862  0  1.030858  0
H  H34  1  0.60098433  0.76812617  0.97056620  1  0  0.100181  0.098586  0  1.030918  0
H  H35  1  0.89902516  0.73187616  0.47056828  1  0  0.100222  0.098658  0  1.030911  0
H  H36  1  0.57126443  0.22967913  0.89991968  1  0  0.107071  0.118774  0  1.02533  0
H  H37  1  0.92873950  0.27032043  0.39991764  1  0  0.107064  0.118799  0  1.025361  0
H  H38  1  0.42874371  0.77032418  0.10007850  1  0  0.107081  0.11879  0  1.02527  0
H  H39  1  0.07126342  0.72967596  0.60008166  1  0  0.107066  0.118772  0  1.025276  0
H  H40  1  0.97766620  0.31949137  0.86643451  1  0  0.106887  0.119117  0  1.035628  0
H  H41  1  0.52233097  0.18051091  0.36643520  1  0  0.106882  0.11911  0  1.035659  0
H  H42  1  0.02234382  0.68051195  0.13356367  1  0  0.106897  0.119152  0  1.035669  0
H  H43  1  0.47767916  0.81948485  0.63356242  1  0  0.106864  0.119081  0  1.035806  0
C  C44  1  0.94652232  0.50964118  0.46334813  1  0  0.129797  0.140004  0  3.993223  0
C  C45  1  0.55346271  0.99035739  0.96334800  1  0  0.129807  0.139996  0  3.993174  0
C  C46  1  0.05345171  0.49036146  0.53665061  1  0  0.129845  0.139957  0  3.993246  0
C  C47  1  0.44653026  0.00963396  0.03665074  1  0  0.129803  0.13988  0  3.993187  0
C  C48  1  0.01713449  0.46991011  0.39687672  1  0  0.067336  0.037635  0  3.858513  0
C  C49  1  0.48284304  0.03009053  0.89687274  1  0  0.067269  0.037568  0  3.858211  0
C  C50  1  0.98283888  0.53009505  0.60312482  1  0  0.067303  0.03765  0  3.858655  0
C  C51  1  0.51717084  0.96990524  0.10312376  1  0  0.067326  0.037711  0  3.85861  0
C  C52  1  0.77596917  0.54793807  0.32602932  1  0  0.110456  0.155355  0  3.970529  0
C  C53  1  0.72400612  0.95206075  0.82602407  1  0  0.110385  0.155166  0  3.971024  0
C  C54  1  0.22398893  0.45206267  0.67397167  1  0  0.110328  0.155116  0  3.971188  0
C  C55  1  0.27600999  0.04793188  0.17397187  1  0  0.110325  0.155161  0  3.971108  0
C  C56  1  0.69443082  0.57420239  0.25592494  1  0  -0.084192  -0.14835  0  3.966345  0
C  C57  1  0.80553162  0.92579560  0.75591773  1  0  -0.084319  -0.148574  0  3.966696  0
C  C58  1  0.30552383  0.42579897  0.74407885  1  0  -0.08423  -0.148599  0  3.966602  0
C  C59  1  0.19447826  0.07419576  0.24407652  1  0  -0.084155  -0.148397  0  3.966317  0
C  C60  1  0.53233833  0.63271503  0.25287884  1  0  -0.074188  -0.042104  0  3.935848  0
C  C61  1  0.96763964  0.86728804  0.75287392  1  0  -0.074116  -0.041989  0  3.935921  0
C  C62  1  0.46763286  0.36728950  0.74712887  1  0  -0.07409  -0.041936  0  3.935797  0
C  C63  1  0.03237242  0.13270396  0.24712650  1  0  -0.074181  -0.04207  0  3.935486  0
C  C64  1  0.44383140  0.66606958  0.31957883  1  0  -0.080705  -0.054713  0  3.957097  0
C  C65  1  0.05615585  0.83393604  0.81957292  1  0  -0.080687  -0.054589  0  3.957345  0
C  C66  1  0.55615851  0.33393874  0.68043001  1  0  -0.080811  -0.054727  0  3.957133  0
C  C67  1  0.94385052  0.16605972  0.18042638  1  0  -0.080766  -0.054612  0  3.956793  0
C  C68  1  0.52314140  0.64223560  0.38878886  1  0  -0.087849  -0.159584  0  3.951416  0
C  C69  1  0.97685192  0.85776724  0.88878121  1  0  -0.087885  -0.159633  0  3.951566  0
C  C70  1  0.47684293  0.35776895  0.61121997  1  0  -0.087797  -0.159633  0  3.951395  0
C  C71  1  0.02315572  0.14222727  0.11121641  1  0  -0.087843  -0.159783  0  3.951394  0
C  C72  1  0.69497297  0.58370305  0.39368756  1  0  0.114246  0.167879  0  4.019098  0
C  C73  1  0.80502793  0.91629976  0.89368209  1  0  0.11424  0.167887  0  4.019144  0
C  C74  1  0.30502010  0.41630402  0.60631623  1  0  0.114226  0.167986  0  4.019107  0
C  C75  1  0.19498752  0.08369538  0.10631553  1  0  0.114281  0.168004  0  4.01917  0
C  C76  1  0.38142994  0.47197870  0.01018814  1  0  0.12699  0.132284  0  4.025799  0
C  C77  1  0.11856410  0.02802319  0.51018810  1  0  0.126996  0.132393  0  4.02569  0
C  C78  1  0.61857510  0.52802209  0.98981453  1  0  0.126994  0.132394  0  4.025656  0
C  C79  1  0.88142024  0.97198135  0.48981401  1  0  0.126928  0.132156  0  4.025849  0
C  C80  1  0.29387741  0.46960792  0.08555853  1  0  0.063637  0.040976  0  3.873365  0
C  C81  1  0.20611889  0.03039600  0.58555581  1  0  0.063529  0.040879  0  3.873329  0
C  C82  1  0.70612981  0.53039350  0.91444526  1  0  0.06353  0.040824  0  3.873374  0
C  C83  1  0.79388113  0.96960604  0.41444237  1  0  0.063638  0.041067  0  3.873328  0
C  C84  1  0.94228039  0.37300051  0.05251539  1  0  0.106377  0.149273  0  3.986241  0
C  C85  1  0.55773340  0.12700067  0.55251802  1  0  0.106355  0.149261  0  3.986268  0
C  C86  1  0.05773750  0.62699967  0.94748391  1  0  0.106337  0.14924  0  3.986245  0
C  C87  1  0.44228667  0.87300014  0.44748520  1  0  0.106318  0.149255  0  3.98616  0
C  C88  1  0.70905142  0.32202144  0.07074134  1  0  -0.092067  -0.1665  0  3.963542  0
C  C89  1  0.79096039  0.17798277  0.57074065  1  0  -0.091953  -0.166431  0  3.963511  0
C  C90  1  0.29095896  0.67797873  0.92925740  1  0  -0.091984  -0.166478  0  3.963683  0
C  C91  1  0.20905647  0.82202307  0.42925696  1  0  -0.092103  -0.166541  0  3.963621  0
C  C92  1  0.57883596  0.27158948  0.01600068  1  0  -0.080972  -0.048408  0  3.960449  0
C  C93  1  0.92118046  0.22841068  0.51600045  1  0  -0.08099  -0.048324  0  3.960515  0
C  C94  1  0.42116660  0.72841005  0.98399694  1  0  -0.080926  -0.048272  0  3.960529  0
C  C95  1  0.07884275  0.77158888  0.48399773  1  0  -0.080969  -0.048458  0  3.960557  0
C  C96  1  0.67551772  0.27029160  0.94217046  1  0  -0.079303  -0.062561  0  3.953946  0
C  C97  1  0.82449959  0.22971085  0.44217188  1  0  -0.079345  -0.062695  0  3.954172  0
C  C98  1  0.32449453  0.72970857  0.05782715  1  0  -0.0794  -0.06262  0  3.954042  0
C  C99  1  0.17551890  0.77029059  0.55782966  1  0  -0.0793  -0.062487  0  3.953814  0
C  C100  1  0.90022240  0.32095356  0.92275636  1  0  -0.080461  -0.14315  0  3.940707  0
C  C101  1  0.59978398  0.17905026  0.42275886  1  0  -0.080454  -0.143138  0  3.940652  0
C  C102  1  0.09978920  0.67904913  0.07724294  1  0  -0.080414  -0.143226  0  3.94089  0
C  C103  1  0.40023167  0.82095306  0.57724044  1  0  -0.080432  -0.143207  0  3.940877  0
C  C104  1  0.03725317  0.37407488  0.97710319  1  0  0.110762  0.159523  0  4.029495  0
C  C105  1  0.46275044  0.12593030  0.47710657  1  0  0.110729  0.159532  0  4.029419  0
C  C106  1  0.96275370  0.62592969  0.02289667  1  0  0.11074  0.159578  0  4.029562  0
C  C107  1  0.53725770  0.87407301  0.52289553  1  0  0.11075  0.159535  0  4.029626  0
N  N108  1  0.78368715  0.56390999  0.46175429  1  0  -0.286352  -0.287951  0  3.269574  0
N  N109  1  0.71630597  0.93608985  0.96175081  1  0  -0.286305  -0.287906  0  3.269436  0
N  N110  1  0.21629124  0.43609391  0.53824669  1  0  -0.286329  -0.287938  0  3.269499  0
N  N111  1  0.28369197  0.06390401  0.03824849  1  0  -0.286298  -0.287827  0  3.269415  0
N  N112  1  0.93287188  0.48847365  0.33020525  1  0  -0.318814  -0.191936  0  3.557733  0
N  N113  1  0.56710600  0.01152884  0.83019962  1  0  -0.318698  -0.191784  0  3.557735  0
N  N114  1  0.06708931  0.51152960  0.66979798  1  0  -0.318741  -0.191858  0  3.558236  0
N  N115  1  0.43291508  0.98846631  0.16979519  1  0  -0.3188  -0.191999  0  3.558374  0
N  N116  1  0.25539548  0.42514713  0.95681549  1  0  -0.287042  -0.283466  0  3.280138  0
N  N117  1  0.24460536  0.07485693  0.45681604  1  0  -0.287018  -0.283585  0  3.280165  0
N  N118  1  0.74461297  0.57485682  0.04318829  1  0  -0.286993  -0.283567  0  3.280195  0
N  N119  1  0.75539435  0.92514449  0.54318494  1  0  -0.286968  -0.283389  0  3.280311  0
N  N120  1  0.07913245  0.42196922  0.10619835  1  0  -0.322436  -0.196929  0  3.559806  0
N  N121  1  0.42087456  0.07802892  0.60619903  1  0  -0.322355  -0.196809  0  3.559624  0
N  N122  1  0.92087793  0.57803095  0.89380207  1  0  -0.32241  -0.196823  0  3.559643  0
N  N123  1  0.57913176  0.92197061  0.39380476  1  0  -0.322416  -0.196927  0  3.559835  0
N  N124  1  0.46598338  0.32829344  0.27833215  1  0  0.088461  0.70092  0  4.425971  0
N  N125  1  0.03400980  0.17170106  0.77832775  1  0  0.088375  0.700977  0  4.425987  0
N  N126  1  0.53400858  0.67170356  0.72166659  1  0  0.088469  0.700951  0  4.425838  0
N  N127  1  0.96599688  0.82829533  0.22166707  1  0  0.088565  0.701117  0  4.425535  0
O  O128  1  0.44673144  0.38464350  0.22895447  1  0  -0.212246  -0.4738  0  2.125167  0
O  O129  1  0.05326130  0.11535573  0.72894932  1  0  -0.212185  -0.473778  0  2.125415  0
O  O130  1  0.55325803  0.61535225  0.77104090  1  0  -0.212233  -0.473816  0  2.125261  0
O  O131  1  0.94674568  0.88464129  0.27104381  1  0  -0.212227  -0.473843  0  2.125147  0
O  O132  1  0.29172447  0.30783915  0.32553793  1  0  -0.186248  -0.433138  0  1.963639  0
O  O133  1  0.20827967  0.19215695  0.82553031  1  0  -0.186223  -0.433205  0  1.963607  0
O  O134  1  0.70827494  0.69216164  0.67446361  1  0  -0.186264  -0.433155  0  1.963598  0
O  O135  1  0.79172792  0.80784133  0.17446283  1  0  -0.186297  -0.433215  0  1.963562  0
O  O136  1  0.66532822  0.29414267  0.27849109  1  0  -0.194544  -0.438503  0  2.023759  0
O  O137  1  0.83466219  0.20585262  0.77848750  1  0  -0.194554  -0.438513  0  2.023589  0
O  O138  1  0.33465906  0.70585244  0.72150765  1  0  -0.194552  -0.438533  0  2.023679  0
O  O139  1  0.16534727  0.79414566  0.22150619  1  0  -0.194616  -0.438595  0  2.023561  0
