# generated using pymatgen
data_Zn4H24C37O13
_symmetry_space_group_name_H-M   'P 1'
_cell_length_a   10.83650141
_cell_length_b   10.94778759
_cell_length_c   16.08024677
_cell_angle_alpha   99.25427885
_cell_angle_beta   90.25398998
_cell_angle_gamma   100.23021065
_symmetry_Int_Tables_number   1
_chemical_formula_structural   Zn4H24C37O13
_chemical_formula_sum   'Zn4 H24 C37 O13'
_cell_volume   1851.85881580
_cell_formula_units_Z   1
loop_
 _symmetry_equiv_pos_site_id
 _symmetry_equiv_pos_as_xyz
  1  'x, y, z'
loop_
 _atom_site_type_symbol
 _atom_site_label
 _atom_site_symmetry_multiplicity
 _atom_site_fract_x
 _atom_site_fract_y
 _atom_site_fract_z
 _atom_site_occupancy
 _atom_site_pbe_bader_charge
 _atom_site_pbe_bader_spin_density
 _atom_site_pbe_cm5_charge
 _atom_site_pbe_ddec_charge
 _atom_site_pbe_ddec_spin_density
 _atom_site_pbe_ddec_sum_bond_order
 _atom_site_pbe_magmom
Zn  Zn0  1  0.40819801  0.57973271  0.43019519  1  1.308352  0  0.672848  0.952369  0  2.403793  0
Zn  Zn1  1  0.38900390  0.38742969  0.56394167  1  1.311296  0  0.671856  0.961058  0  2.369935  0
Zn  Zn2  1  0.61280543  0.62784773  0.58064949  1  1.312373  0  0.673424  0.967069  0  2.361439  0
Zn  Zn3  1  0.60046064  0.39552994  0.42481214  1  1.315025  0  0.675316  0.965214  0  2.383735  0
H  H4  1  0.51486605  0.25168289  0.00141148  1  0.061836  0  0.09809  0.137946  0  0.994566  0
H  H5  1  0.44550998  0.29519998  0.91194333  1  0.058542  0  0.100975  0.143053  0  0.983767  0
H  H6  1  0.60853364  0.34243273  0.93461618  1  0.054024  0  0.10109  0.141604  0  0.97959  0
H  H7  1  0.57428287  0.78309480  0.95517554  1  0.085574  0  0.102514  0.104471  0  1.001792  0
H  H8  1  0.53995088  0.98681864  0.03599341  1  0.057563  0  0.101411  0.096931  0  0.998393  0
H  H9  1  0.39508814  0.98978168  0.15596845  1  0.080226  0  0.103144  0.097739  0  0.995992  0
H  H10  1  0.28373259  0.78723768  0.19363898  1  0.059421  0  0.104766  0.103622  0  0.986175  0
H  H11  1  0.31929313  0.58462097  0.11388200  1  0.081562  0  0.104221  0.106591  0  1.003774  0
H  H12  1  0.64634700  0.00491816  0.63564138  1  0.077738  0  0.095111  0.139185  0  1.007772  0
H  H13  1  0.62476382  0.14424244  0.59787125  1  0.036563  0  0.090646  0.125095  0  1.012923  0
H  H14  1  0.50750997  0.06672635  0.65763895  1  0.057147  0  0.094379  0.132933  0  0.98805  0
H  H15  1  0.38978880  0.02501528  0.34586359  1  0.042826  0  0.091407  0.125365  0  0.999067  0
H  H16  1  0.44807113  0.88437054  0.35364686  1  0.090258  0  0.101407  0.149902  0  0.992442  0
H  H17  1  0.30451442  0.90714186  0.39912235  1  0.064244  0  0.101071  0.146277  0  0.990499  0
H  H18  1  0.15882940  0.61605586  0.63780506  1  0.066537  0  0.099744  0.103077  0  1.006889  0
H  H19  1  0.29142451  0.82525867  0.68482017  1  0.042455  0  0.100309  0.097057  0  0.992241  0
H  H20  1  0.25896449  0.00985315  0.61914944  1  0.091284  0  0.100686  0.09817  0  1.009748  0
H  H21  1  0.09086736  0.98317941  0.50861803  1  0.068358  0  0.099849  0.095431  0  1.010908  0
H  H22  1  0.95942977  0.77371009  0.46103981  1  0.051425  0  0.099466  0.097801  0  0.998554  0
H  H23  1  0.98709449  0.33140009  0.32875714  1  0.079516  0  0.104872  0.109067  0  0.987135  0
H  H24  1  0.88865688  0.10824517  0.27889032  1  0.072279  0  0.102164  0.09638  0  0.994405  0
H  H25  1  0.81074759  0.96867258  0.38281078  1  0.083232  0  0.100656  0.096176  0  0.994341  0
H  H26  1  0.83266276  0.05317759  0.53635750  1  0.073453  0  0.103532  0.10104  0  1.001101  0
H  H27  1  0.93029317  0.27699062  0.58594787  1  0.085046  0  0.10253  0.105143  0  0.994234  0
C  C28  1  0.47605819  0.16104432  0.48144999  1  1.564719  0  0.235358  0.612268  0  4.164368  0
C  C29  1  0.51310812  0.83341934  0.52105168  1  1.50108  0  0.225464  0.597389  0  4.166849  0
C  C30  1  0.16914545  0.46041463  0.49144914  1  1.599058  0  0.232435  0.613077  0  4.184506  0
C  C31  1  0.83713275  0.54303377  0.50734540  1  1.58892  0  0.229168  0.615001  0  4.162616  0
C  C32  1  0.49968572  0.52389103  0.72795387  1  1.644089  0  0.232969  0.676766  0  4.246554  0
C  C33  1  0.50409005  0.46416994  0.27146103  1  1.627881  0  0.227978  0.671988  0  4.250773  0
C  C34  1  0.49464292  0.53550917  0.81826952  1  0.155755  0  -0.033847  -0.185939  0  3.919718  0
C  C35  1  0.47594313  0.54948721  0.98246789  1  0.090021  0  0.016145  0.024752  0  4.010193  0
C  C36  1  0.49293143  0.44604405  0.01760324  1  0.20513  0  0.01408  0.137392  0  3.989069  0
C  C37  1  0.49640396  0.45126686  0.10537912  1  -0.436663  0  -0.016759  -0.025662  0  4.115417  0
C  C38  1  0.48667720  0.54256454  0.89452458  1  -0.419459  0  -0.007694  0.001204  0  4.100457  0
C  C39  1  0.50231785  0.45230208  0.18138135  1  0.150601  0  -0.043787  -0.194007  0  3.949737  0
C  C40  1  0.51547834  0.97098393  0.53001949  1  0.068163  0  -0.021878  -0.050249  0  3.914873  0
C  C41  1  0.46501966  0.02070115  0.46880361  1  -0.018012  0  0.012415  0.038295  0  3.840779  0
C  C42  1  0.97693375  0.55369568  0.51243459  1  0.03533  0  -0.005328  -0.103068  0  3.909046  0
C  C43  1  0.02888429  0.45017098  0.48933068  1  -0.043667  0  0.010875  -0.056652  0  3.868691  0
C  C44  1  0.51648303  0.32660791  0.96355656  1  -0.062596  0  -0.229479  -0.409092  0  3.949348  0
C  C45  1  0.45167458  0.66993714  0.03029477  1  -0.022046  0  -0.008578  0.067688  0  4.002162  0
C  C46  1  0.51124114  0.78447769  0.00788403  1  -0.044212  0  -0.087505  -0.126202  0  3.971607  0
C  C47  1  0.49156736  0.89870268  0.05323235  1  -0.073438  0  -0.095712  -0.088694  0  4.049212  0
C  C48  1  0.41045835  0.90037814  0.12056265  1  -0.042147  0  -0.091158  -0.085031  0  4.025601  0
C  C49  1  0.34851653  0.78693426  0.14192761  1  -0.04773  0  -0.089358  -0.079315  0  4.026452  0
C  C50  1  0.36876207  0.67252499  0.09725951  1  -0.028685  0  -0.084881  -0.120337  0  3.969566  0
C  C51  1  0.57741364  0.05152376  0.60937322  1  -0.074559  0  -0.244381  -0.397335  0  3.999595  0
C  C52  1  0.39890193  0.95596627  0.38696822  1  -0.062494  0  -0.235243  -0.395284  0  3.965377  0
C  C53  1  0.05219603  0.67955979  0.54463309  1  -0.024583  0  -0.013505  0.092266  0  4.016873  0
C  C54  1  0.14544929  0.69607032  0.60839616  1  -0.072148  0  -0.09339  -0.135903  0  3.971597  0
C  C55  1  0.21938239  0.81418430  0.63518669  1  0.049879  0  -0.095817  -0.082607  0  4.036624  0
C  C56  1  0.20086080  0.91756731  0.59902902  1  -0.089209  0  -0.09244  -0.084916  0  4.016597  0
C  C57  1  0.10672909  0.90258204  0.53653064  1  -0.084219  0  -0.091477  -0.078422  0  4.023699  0
C  C58  1  0.03255239  0.78478725  0.50999075  1  -0.019035  0  -0.089703  -0.123757  0  3.96517  0
C  C59  1  0.96294448  0.31873406  0.46040247  1  0.025147  0  -0.009267  0.092409  0  4.010613  0
C  C60  1  0.95288746  0.26996011  0.37396881  1  -0.062818  0  -0.091349  -0.126744  0  3.967773  0
C  C61  1  0.89771755  0.14475713  0.34627995  1  -0.079399  0  -0.094371  -0.083161  0  4.04237  0
C  C62  1  0.85400616  0.06653257  0.40454070  1  -0.127208  0  -0.092888  -0.089569  0  4.031425  0
C  C63  1  0.86566874  0.11413692  0.49066073  1  0.092382  0  -0.093295  -0.07864  0  4.036447  0
C  C64  1  0.91992761  0.23975558  0.51868913  1  -0.152436  0  -0.093802  -0.137836  0  3.97485  0
O  O65  1  0.50297625  0.49697502  0.50175004  1  -1.233987  0  -0.571838  -1.031454  0  2.538613  0
O  O66  1  0.55904541  0.21836326  0.43883595  1  -1.172902  0  -0.30515  -0.535177  0  2.341163  0
O  O67  1  0.44071676  0.76129569  0.46350359  1  -1.168253  0  -0.308021  -0.538216  0  2.407912  0
O  O68  1  0.21451471  0.40637400  0.54589499  1  -1.164528  0  -0.30989  -0.543549  0  2.33468  0
O  O69  1  0.78954841  0.61454157  0.56417289  1  -1.162744  0  -0.310333  -0.539268  0  2.326044  0
O  O70  1  0.42676397  0.42894731  0.68629593  1  -1.145528  0  -0.311417  -0.539651  0  2.27145  0
O  O71  1  0.56189582  0.39074614  0.30449921  1  -1.142024  0  -0.314338  -0.543702  0  2.276686  0
O  O72  1  0.57547194  0.60854339  0.69893141  1  -1.155943  0  -0.308615  -0.535999  0  2.271289  0
O  O73  1  0.44719033  0.54827427  0.31021524  1  -1.151834  0  -0.309439  -0.535646  0  2.279735  0
O  O74  1  0.22767913  0.51684080  0.43624860  1  -1.16614  0  -0.305664  -0.531349  0  2.334727  0
O  O75  1  0.77809571  0.46464944  0.44681099  1  -1.181426  0  -0.308338  -0.543458  0  2.386482  0
O  O76  1  0.40008675  0.20877629  0.53161977  1  -1.164693  0  -0.305353  -0.531427  0  2.310674  0
O  O77  1  0.58490378  0.79699892  0.57199017  1  -1.169543  0  -0.319087  -0.548943  0  2.342363  0
