# generated using pymatgen
data_Cu3H8W2(C6N5)4
_symmetry_space_group_name_H-M   'P 1'
_cell_length_a   11.52796072
_cell_length_b   20.15450690
_cell_length_c   20.15447394
_cell_angle_alpha   77.16224249
_cell_angle_beta   73.37403749
_cell_angle_gamma   73.37419553
_symmetry_Int_Tables_number   1
_chemical_formula_structural   Cu3H8W2(C6N5)4
_chemical_formula_sum   'Cu12 H32 W8 C96 N80'
_cell_volume   4248.83518475
_cell_formula_units_Z   4
loop_
 _symmetry_equiv_pos_site_id
 _symmetry_equiv_pos_as_xyz
  1  'x, y, z'
loop_
 _atom_site_type_symbol
 _atom_site_label
 _atom_site_symmetry_multiplicity
 _atom_site_fract_x
 _atom_site_fract_y
 _atom_site_fract_z
 _atom_site_occupancy
 _atom_site_pbe_bader_charge
 _atom_site_pbe_bader_spin_density
 _atom_site_pbe_cm5_charge
 _atom_site_pbe_ddec_charge
 _atom_site_pbe_ddec_spin_density
 _atom_site_pbe_ddec_sum_bond_order
 _atom_site_pbe_magmom
Cu  Cu0  1  0.84336879  0.61997549  0.11787691  1  1.138491  0.628058  0.854798  0.784353  0.874697  2.506183  0.624
Cu  Cu1  1  0.41909454  0.11767950  0.62009337  1  1.137655  0.627978  0.855388  0.783873  0.874587  2.507158  0.624
Cu  Cu2  1  0.65663311  0.38211894  0.88002618  1  1.138345  0.628055  0.854825  0.784334  0.874692  2.506155  0.624
Cu  Cu3  1  0.08090608  0.87990780  0.38232093  1  1.137431  0.627971  0.855349  0.783764  0.874582  2.507259  0.624
Cu  Cu4  1  0.15663188  0.38002542  0.88212016  1  1.13848  0.628055  0.854792  0.78435  0.874693  2.506106  0.624
Cu  Cu5  1  0.58090496  0.88232199  0.37990673  1  1.137677  0.627971  0.855372  0.7838  0.874579  2.507153  0.624
Cu  Cu6  1  0.34336641  0.61788253  0.11997293  1  1.13839  0.628059  0.854816  0.784276  0.874697  2.506325  0.624
Cu  Cu7  1  0.91909434  0.12009155  0.61767705  1  1.137352  0.627965  0.855375  0.783765  0.874577  2.507179  0.624
Cu  Cu8  1  0.11343633  0.88653328  0.88651044  1  1.152193  0.614723  0.923698  0.904995  0.864223  2.42293  0.611
Cu  Cu9  1  0.38656591  0.61348804  0.61346448  1  1.152318  0.614727  0.923741  0.905032  0.86423  2.422897  0.611
Cu  Cu10  1  0.88656382  0.11346664  0.11348992  1  1.152167  0.614723  0.923713  0.905007  0.864221  2.422995  0.611
Cu  Cu11  1  0.61343993  0.38651131  0.38653361  1  1.152185  0.614722  0.923697  0.904998  0.864216  2.422913  0.611
H  H12  1  0.27949158  0.50020094  0.23920120  1  0.130664  0.003741  0.143365  0.118368  0.002067  0.94594  0.002
H  H13  1  0.09149365  0.44660871  0.28989476  1  0.146304  0.002642  0.139574  0.152667  0.001494  0.946472  0.001
H  H14  1  0.90438240  0.50028592  0.23661935  1  0.177431  0.003618  0.139926  0.1137  0.002055  0.960876  0.002
H  H15  1  0.09302960  0.64213567  0.09844358  1  0.162194  0.003176  0.140529  0.088232  0.00153  1.013811  0.002
H  H16  1  0.98173188  0.23907326  0.50030467  1  0.125909  0.003751  0.143346  0.118485  0.002069  0.947218  0.002
H  H17  1  0.17293832  0.28955774  0.44673567  1  0.135356  0.002667  0.139834  0.153387  0.001494  0.946292  0.001
H  H18  1  0.35942234  0.23613930  0.50053646  1  0.154941  0.00366  0.139594  0.113677  0.002059  0.961921  0.002
H  H19  1  0.16659034  0.09818687  0.64236947  1  0.169521  0.003171  0.140312  0.08896  0.001531  1.012196  0.002
H  H20  1  0.22050839  0.26079941  0.99980014  1  0.130668  0.003741  0.143369  0.118369  0.002067  0.945955  0.002
H  H21  1  0.40850625  0.21010779  0.05339422  1  0.146291  0.002642  0.139568  0.152658  0.001494  0.946425  0.001
H  H22  1  0.59561545  0.26338239  0.99971574  1  0.177399  0.003618  0.13992  0.113697  0.002055  0.96087  0.002
H  H23  1  0.40697050  0.40155405  0.85786299  1  0.16218  0.003176  0.140535  0.088276  0.00153  1.013789  0.002
H  H24  1  0.51827011  0.99969594  0.26092565  1  0.125861  0.003751  0.143364  0.118579  0.002069  0.947217  0.002
H  H25  1  0.32706611  0.05326301  0.21043795  1  0.135314  0.002668  0.139852  0.153431  0.001494  0.94621  0.001
H  H26  1  0.14057879  0.99946576  0.26385873  1  0.154956  0.003661  0.13962  0.113713  0.002059  0.961836  0.002
H  H27  1  0.33340697  0.85763435  0.40181326  1  0.169078  0.003172  0.140342  0.088996  0.001531  1.012231  0.002
H  H28  1  0.72051037  0.49979899  0.76079987  1  0.130715  0.003741  0.143368  0.118373  0.002067  0.946002  0.002
H  H29  1  0.90850851  0.55339071  0.71010689  1  0.146313  0.002642  0.139582  0.152693  0.001494  0.946514  0.001
H  H30  1  0.09561979  0.49971346  0.76338032  1  0.177196  0.003619  0.139927  0.11369  0.002055  0.960873  0.002
H  H31  1  0.90697031  0.35786480  0.90155819  1  0.162151  0.003175  0.140523  0.088277  0.001529  1.013817  0.002
H  H32  1  0.01826532  0.76092721  0.49969703  1  0.125936  0.003751  0.143335  0.118558  0.002069  0.947142  0.002
H  H33  1  0.82705616  0.71044274  0.55326647  1  0.13545  0.002667  0.139825  0.153361  0.001494  0.946291  0.001
H  H34  1  0.64057329  0.76386276  0.49946611  1  0.154894  0.003659  0.139605  0.113717  0.002058  0.961869  0.002
H  H35  1  0.83340618  0.90181520  0.35763345  1  0.169035  0.003172  0.140328  0.08897  0.001531  1.012203  0.002
H  H36  1  0.77949210  0.73920198  0.00019436  1  0.130745  0.003742  0.14341  0.118349  0.002068  0.946066  0.002
H  H37  1  0.59149196  0.78989684  0.94660485  1  0.146165  0.002642  0.139594  0.152679  0.001494  0.946499  0.001
H  H38  1  0.40437710  0.73662491  0.00028609  1  0.177327  0.003619  0.139984  0.113687  0.002055  0.961031  0.002
H  H39  1  0.59303203  0.59844682  0.14213131  1  0.162271  0.003175  0.140536  0.088335  0.001529  1.013697  0.002
H  H40  1  0.48173229  0.00030293  0.73907509  1  0.125887  0.003751  0.143363  0.118575  0.002069  0.947258  0.002
H  H41  1  0.67294040  0.94673475  0.78955942  1  0.135407  0.002668  0.139848  0.153424  0.001494  0.946293  0.001
H  H42  1  0.85942637  0.00053305  0.73613861  1  0.15487  0.003661  0.139613  0.113714  0.002059  0.96187  0.002
H  H43  1  0.66659386  0.14236610  0.59818737  1  0.169086  0.003173  0.140345  0.089006  0.001531  1.0122  0.002
W  W44  1  0.93706750  0.84254534  0.15746729  1  2.070344  0.581805  1.049569  0.719913  0.595517  5.755935  0.561
W  W45  1  0.06293103  0.15745409  0.84253494  1  2.070372  0.581853  1.04954  0.719912  0.595573  5.755973  0.561
W  W46  1  0.56293610  0.34253189  0.65745278  1  2.070227  0.581818  1.049574  0.719929  0.595531  5.755963  0.561
W  W47  1  0.43706456  0.65746690  0.34254330  1  2.069978  0.58188  1.049598  0.719854  0.595583  5.755905  0.561
W  W48  1  0.74999682  0.37998778  0.12001350  1  2.078853  0.595694  1.050644  0.72628  0.609437  5.742841  0.574
W  W49  1  0.74999892  0.12006301  0.37993899  1  2.081465  0.594925  1.049133  0.721991  0.60918  5.745525  0.573
W  W50  1  0.25000222  0.62001267  0.87998692  1  2.07901  0.59568  1.050682  0.726425  0.609422  5.742959  0.574
W  W51  1  0.25000032  0.87993692  0.62006202  1  2.081563  0.594943  1.049205  0.721842  0.609203  5.746045  0.573
C  C52  1  0.88921727  0.75913298  0.13020673  1  0.752619  -0.001066  0.047534  0.054485  -0.012991  3.699053  -0.011
C  C53  1  0.11913681  0.77445436  0.13221225  1  0.716301  -0.008562  0.011761  -0.003965  -0.017964  3.783689  -0.019
C  C54  1  0.01662968  0.86370351  0.04701697  1  0.770837  0.000445  0.057824  0.072641  -0.011366  3.705463  -0.008
C  C55  1  0.79177992  0.47784187  0.11624740  1  0.769284  -0.003796  0.043234  0.042175  -0.01591  3.702881  -0.014
C  C56  1  0.08125377  0.61926434  0.96118388  1  0.746792  -0.007551  0.014856  0.004282  -0.015746  3.779039  -0.015
C  C57  1  0.17169718  0.72879471  0.88643426  1  0.779114  0.00502  0.05647  0.074854  -0.007023  3.689051  -0.006
C  C58  1  0.60250419  0.32618101  0.14619598  1  0.663312  -0.012179  -0.015493  -0.066829  -0.01792  3.853842  -0.016
C  C59  1  0.19488165  0.51942968  0.21984231  1  0.494834  -0.004033  0.102284  0.170332  -0.004329  3.834402  -0.003
C  C60  1  0.09175679  0.49059228  0.24738464  1  0.035873  0.015296  -0.043765  -0.13143  0.011208  3.861603  0.012
C  C61  1  0.98903326  0.51953781  0.21827791  1  0.508688  -0.0039  0.101462  0.174467  -0.004104  3.834931  -0.003
C  C62  1  0.09255895  0.59864540  0.14127570  1  1.097194  -0.004914  0.202506  0.258308  -0.004158  3.901549  -0.003
C  C63  1  0.22164130  0.13004726  0.75924133  1  0.765289  -0.001007  0.049115  0.055837  -0.012809  3.698174  -0.011
C  C64  1  0.97430715  0.13212929  0.77443791  1  0.703195  -0.008345  0.011731  -0.00565  -0.017886  3.790762  -0.019
C  C65  1  0.07255520  0.04701249  0.86377720  1  0.750793  0.000497  0.05744  0.07453  -0.011362  3.702347  -0.008
C  C66  1  0.61447275  0.11621263  0.47788935  1  0.77847  -0.003623  0.0443  0.043665  -0.015896  3.705866  -0.014
C  C67  1  0.33869294  0.96097406  0.61929009  1  0.725974  -0.007624  0.01447  0.003664  -0.015669  3.779869  -0.014
C  C68  1  0.21331336  0.88646484  0.72879840  1  0.750782  0.005635  0.056209  0.075735  -0.006893  3.68931  -0.006
C  C69  1  0.92523510  0.14606354  0.32596011  1  0.678078  -0.012087  -0.016981  -0.067695  -0.017919  3.85479  -0.016
C  C70  1  0.06639333  0.21969692  0.51960153  1  0.522362  -0.004132  0.10211  0.170686  -0.004356  3.833838  -0.003
C  C71  1  0.17095393  0.24711840  0.49078881  1  0.035751  0.015311  -0.04327  -0.134202  0.011204  3.857401  0.012
C  C72  1  0.27376258  0.21790529  0.51977536  1  0.528919  -0.003942  0.100858  0.174332  -0.004109  3.830148  -0.003
C  C73  1  0.16783532  0.14103890  0.59889342  1  1.09889  -0.004911  0.200857  0.254171  -0.004137  3.898542  -0.003
C  C74  1  0.61078783  0.36979295  0.74086682  1  0.752947  -0.001067  0.047556  0.054475  -0.012987  3.698995  -0.011
C  C75  1  0.38086096  0.36779020  0.72554968  1  0.716752  -0.008532  0.011891  -0.003816  -0.017933  3.784065  -0.019
C  C76  1  0.48337616  0.45298105  0.63629537  1  0.770736  0.00045  0.057766  0.072508  -0.011368  3.705371  -0.008
C  C77  1  0.70822501  0.38375137  0.02216114  1  0.769353  -0.00381  0.043106  0.042017  -0.015923  3.702943  -0.014
C  C78  1  0.41875636  0.53881550  0.88073525  1  0.748051  -0.007534  0.014945  0.004432  -0.015734  3.779428  -0.015
C  C79  1  0.32830957  0.61356236  0.77120312  1  0.779281  0.005009  0.056486  0.074918  -0.007026  3.689072  -0.006
C  C80  1  0.89748402  0.35380353  0.17382548  1  0.662964  -0.012176  -0.015472  -0.066832  -0.017915  3.85386  -0.016
C  C81  1  0.30511735  0.28015807  0.98056976  1  0.494696  -0.004034  0.102257  0.170279  -0.00433  3.834373  -0.003
C  C82  1  0.40824308  0.25261566  0.00940879  1  0.036031  0.015296  -0.043697  -0.131354  0.011208  3.861425  0.012
C  C83  1  0.51096646  0.28172182  0.98046260  1  0.508776  -0.0039  0.101451  0.174482  -0.004104  3.834897  -0.003
C  C84  1  0.40744182  0.35872218  0.90135323  1  1.097188  -0.004914  0.202494  0.258167  -0.004158  3.901702  -0.003
C  C85  1  0.27835242  0.74075972  0.36995376  1  0.765641  -0.001024  0.049199  0.055953  -0.012807  3.698156  -0.011
C  C86  1  0.52568557  0.72556354  0.36786491  1  0.702431  -0.008363  0.011753  -0.005525  -0.017907  3.790121  -0.019
C  C87  1  0.42744581  0.63622116  0.45298518  1  0.750777  0.000499  0.05739  0.074427  -0.01136  3.702468  -0.008
C  C88  1  0.88552500  0.02211082  0.38379051  1  0.778622  -0.003625  0.044281  0.043614  -0.015895  3.705745  -0.014
C  C89  1  0.16131004  0.88070584  0.53902609  1  0.725404  -0.007629  0.014471  0.00371  -0.015675  3.779614  -0.014
C  C90  1  0.28668671  0.77120167  0.61353508  1  0.75084  0.005625  0.056223  0.075785  -0.006895  3.6892  -0.006
C  C91  1  0.57476805  0.17404266  0.35393542  1  0.678416  -0.012096  -0.017015  -0.06765  -0.017928  3.854495  -0.016
C  C92  1  0.43360874  0.98039920  0.28030067  1  0.522341  -0.004131  0.102084  0.170526  -0.004356  3.833858  -0.003
C  C93  1  0.32905054  0.00921090  0.25287937  1  0.035573  0.015312  -0.043229  -0.134096  0.011204  3.857323  0.012
C  C94  1  0.22623802  0.98022505  0.28209229  1  0.529123  -0.003943  0.100802  0.174184  -0.004109  3.830028  -0.003
C  C95  1  0.33216513  0.90110853  0.35895942  1  1.099259  -0.004913  0.20085  0.254169  -0.004137  3.898539  -0.003
C  C96  1  0.11077903  0.24086749  0.86979462  1  0.752345  -0.00107  0.047495  0.054361  -0.012994  3.699079  -0.011
C  C97  1  0.88085925  0.22554666  0.86779050  1  0.715844  -0.00855  0.011768  -0.004013  -0.017952  3.783905  -0.019
C  C98  1  0.98336997  0.13629327  0.95298422  1  0.770776  0.000446  0.057786  0.072586  -0.011366  3.705332  -0.008
C  C99  1  0.20822726  0.52215856  0.88375221  1  0.769273  -0.003801  0.043162  0.042062  -0.015913  3.702938  -0.014
C  C100  1  0.91876104  0.38073295  0.03881624  1  0.748325  -0.007528  0.015077  0.00464  -0.015729  3.779305  -0.015
C  C101  1  0.82830208  0.27120520  0.11356576  1  0.779118  0.005019  0.056439  0.074773  -0.007022  3.689126  -0.006
C  C102  1  0.39749804  0.67382046  0.85380319  1  0.663301  -0.012171  -0.015507  -0.066979  -0.017912  3.853926  -0.016
C  C103  1  0.80512031  0.48057024  0.78015777  1  0.493919  -0.004033  0.10226  0.170299  -0.004329  3.83446  -0.003
C  C104  1  0.90824517  0.50940765  0.75261593  1  0.036215  0.015296  -0.043691  -0.131403  0.011208  3.861677  0.012
C  C105  1  0.01096845  0.48046053  0.78172257  1  0.508907  -0.0039  0.101423  0.174475  -0.004105  3.834928  -0.003
C  C106  1  0.90743981  0.40135349  0.85872613  1  1.097611  -0.004915  0.202504  0.258198  -0.004159  3.901636  -0.003
C  C107  1  0.77835184  0.86995214  0.24075929  1  0.765444  -0.001009  0.049154  0.055862  -0.012802  3.698267  -0.011
C  C108  1  0.02569069  0.86786749  0.22556308  1  0.701752  -0.008373  0.011764  -0.005516  -0.017912  3.789771  -0.019
C  C109  1  0.92745081  0.95298425  0.13622199  1  0.750696  0.000492  0.057431  0.074535  -0.011368  3.702117  -0.008
C  C110  1  0.38552521  0.88379042  0.52210964  1  0.778639  -0.00362  0.044272  0.043633  -0.015893  3.705899  -0.014
C  C111  1  0.66130296  0.03902742  0.38070911  1  0.725411  -0.007623  0.014496  0.00366  -0.015667  3.77997  -0.014
C  C112  1  0.78668387  0.11353774  0.27120379  1  0.750814  0.005628  0.056281  0.075846  -0.0069  3.689047  -0.006
C  C113  1  0.07476859  0.85393220  0.67404166  1  0.678458  -0.012094  -0.016965  -0.067605  -0.017926  3.854614  -0.016
C  C114  1  0.93360296  0.78030355  0.48040032  1  0.522369  -0.004132  0.102106  0.170586  -0.004356  3.83373  -0.003
C  C115  1  0.82904396  0.75288258  0.50921217  1  0.035611  0.015311  -0.043257  -0.134128  0.011203  3.857448  0.012
C  C116  1  0.72623371  0.78209519  0.48022699  1  0.528906  -0.003942  0.100834  0.174272  -0.004109  3.83007  -0.003
C  C117  1  0.83216278  0.85896158  0.40110863  1  1.099327  -0.004912  0.200876  0.254303  -0.004138  3.898488  -0.003
C  C118  1  0.38922371  0.63020582  0.25912802  1  0.752481  -0.001063  0.047541  0.0544  -0.012989  3.699099  -0.011
C  C119  1  0.61914357  0.63221230  0.27444788  1  0.717267  -0.008528  0.011846  -0.003775  -0.017933  3.784198  -0.019
C  C120  1  0.51662990  0.54701777  0.36370232  1  0.770786  0.000449  0.057875  0.072732  -0.011364  3.705028  -0.008
C  C121  1  0.29178100  0.61624751  0.97784002  1  0.769397  -0.003799  0.043224  0.042135  -0.015914  3.702989  -0.014
C  C122  1  0.58124594  0.46118590  0.11925946  1  0.7482  -0.007536  0.014891  0.004327  -0.015733  3.779443  -0.015
C  C123  1  0.67168972  0.38643752  0.22879491  1  0.779252  0.005007  0.056469  0.074896  -0.007029  3.689114  -0.006
C  C124  1  0.10251309  0.64619491  0.82618019  1  0.663051  -0.012189  -0.015593  -0.066935  -0.017927  3.853772  -0.016
C  C125  1  0.69488108  0.71984389  0.01942743  1  0.494954  -0.004032  0.102228  0.170322  -0.004328  3.834522  -0.003
C  C126  1  0.59175739  0.74738789  0.99058918  1  0.035672  0.015299  -0.043712  -0.131334  0.011209  3.861584  0.012
C  C127  1  0.48902811  0.71828283  0.01953755  1  0.508938  -0.003903  0.101402  0.17445  -0.004105  3.835114  -0.003
C  C128  1  0.59255842  0.64127978  0.09864367  1  1.09729  -0.004914  0.202472  0.258069  -0.004159  3.901358  -0.003
C  C129  1  0.72164749  0.25923862  0.63004652  1  0.765624  -0.001024  0.049205  0.055906  -0.012807  3.69824  -0.011
C  C130  1  0.47431007  0.27443850  0.63213668  1  0.702149  -0.008384  0.011672  -0.005634  -0.017932  3.789337  -0.019
C  C131  1  0.57254391  0.36377560  0.54701464  1  0.751158  0.0005  0.057502  0.074547  -0.011359  3.702322  -0.008
C  C132  1  0.11447607  0.97788909  0.61620922  1  0.778599  -0.003624  0.044238  0.043604  -0.015895  3.705855  -0.014
C  C133  1  0.83868801  0.11929256  0.46097745  1  0.725417  -0.007625  0.014508  0.003766  -0.015671  3.779645  -0.014
C  C134  1  0.71331826  0.22879764  0.38646068  1  0.750568  0.005623  0.05614  0.075589  -0.006894  3.689347  -0.006
C  C135  1  0.42523528  0.82595831  0.64606518  1  0.678093  -0.012083  -0.016892  -0.067468  -0.017916  3.854915  -0.016
C  C136  1  0.56639233  0.01960071  0.71969906  1  0.522389  -0.004132  0.10208  0.170536  -0.004356  3.833719  -0.003
C  C137  1  0.67095459  0.99078795  0.74711995  1  0.035503  0.015313  -0.043274  -0.134171  0.011204  3.857345  0.012
C  C138  1  0.77376553  0.01977326  0.71790642  1  0.528979  -0.003942  0.100825  0.174246  -0.004109  3.830136  -0.003
C  C139  1  0.66783683  0.09889139  0.64104115  1  1.099336  -0.004912  0.200883  0.254225  -0.004137  3.898504  -0.003
C  C140  1  0.78069606  0.88928280  0.11062503  1  0.663277  -0.0111  -0.019227  -0.071701  -0.016555  3.870043  -0.014
C  C141  1  0.94243621  0.75672794  0.24331008  1  0.669665  -0.00929  -0.01114  -0.043255  -0.014816  3.836503  -0.011
C  C142  1  0.21930246  0.11071877  0.88937968  1  0.663345  -0.011095  -0.019311  -0.071749  -0.016552  3.87021  -0.014
C  C143  1  0.05755919  0.24327252  0.75669092  1  0.669649  -0.00929  -0.011157  -0.043295  -0.014816  3.836673  -0.011
C  C144  1  0.71930722  0.38937238  0.61071364  1  0.662862  -0.011102  -0.019408  -0.071971  -0.016557  3.870203  -0.014
C  C145  1  0.55756325  0.25668976  0.74327254  1  0.669724  -0.009291  -0.011203  -0.043319  -0.014816  3.836309  -0.011
C  C146  1  0.28069170  0.61062635  0.38927877  1  0.66398  -0.011102  -0.019371  -0.071818  -0.016556  3.870157  -0.014
C  C147  1  0.44243374  0.74331123  0.25672858  1  0.669627  -0.009296  -0.01126  -0.043349  -0.014822  3.83612  -0.011
N  N148  1  0.86507648  0.71116786  0.11839599  1  -1.277745  0.135881  -0.376996  -0.324449  0.095715  3.457601  0.107
N  N149  1  0.21541961  0.73476360  0.11702860  1  -1.270726  0.0638  -0.339827  -0.335974  0.042293  3.118663  0.047
N  N150  1  0.05787331  0.87604219  0.98685154  1  -1.265607  0.14092  -0.378592  -0.336768  0.100714  3.41176  0.114
N  N151  1  0.81815285  0.52964269  0.11612412  1  -1.29248  0.130911  -0.37394  -0.320018  0.092972  3.455036  0.104
N  N152  1  0.98985108  0.61958484  0.00556365  1  -1.293688  0.041695  -0.33945  -0.338096  0.028036  3.107572  0.03
N  N153  1  0.12962436  0.78816807  0.89063628  1  -1.272047  0.153244  -0.37598  -0.329435  0.107796  3.395335  0.122
N  N154  1  0.52448479  0.29622930  0.15515210  1  -1.177632  0.060537  -0.337946  -0.283023  0.039625  2.823898  0.041
N  N155  1  0.99075564  0.57343432  0.16525516  1  -1.202979  0.111237  -0.312002  -0.234402  0.07989  3.528581  0.096
N  N156  1  0.19416619  0.57319465  0.16665612  1  -1.178212  0.119259  -0.3145  -0.237366  0.085789  3.538828  0.103
N  N157  1  0.30566656  0.11811155  0.71134399  1  -1.291541  0.135982  -0.379081  -0.326573  0.095928  3.456964  0.107
N  N158  1  0.93274256  0.11706291  0.73476679  1  -1.25481  0.063643  -0.340167  -0.335549  0.042166  3.124307  0.046
N  N159  1  0.07899658  0.98686762  0.87612869  1  -1.245962  0.140785  -0.37783  -0.337761  0.100761  3.410144  0.114
N  N160  1  0.53642970  0.11603719  0.52970772  1  -1.306887  0.131232  -0.37513  -0.321404  0.093141  3.459349  0.104
N  N161  1  0.38550174  0.00528060  0.61965409  1  -1.268384  0.041223  -0.3391  -0.337417  0.027661  3.106499  0.03
N  N162  1  0.19170489  0.89079125  0.78814175  1  -1.247439  0.152945  -0.375675  -0.330616  0.107803  3.394828  0.122
N  N163  1  0.02418693  0.15505511  0.29589921  1  -1.191811  0.060739  -0.335838  -0.281281  0.039757  2.824721  0.041
N  N164  1  0.27097090  0.16491146  0.57368742  1  -1.218031  0.111221  -0.311242  -0.231029  0.079846  3.525977  0.096
N  N165  1  0.06636989  0.16654471  0.57338730  1  -1.179313  0.119276  -0.313045  -0.233118  0.08575  3.537426  0.103
N  N166  1  0.63493001  0.38160265  0.78883137  1  -1.278042  0.135868  -0.377005  -0.324404  0.095704  3.45759  0.107
N  N167  1  0.28459507  0.38297085  0.76523542  1  -1.271095  0.063715  -0.339945  -0.336063  0.042234  3.119279  0.047
N  N168  1  0.44213442  0.51314755  0.62395557  1  -1.265493  0.140931  -0.378587  -0.336677  0.100721  3.411617  0.114
N  N169  1  0.68184787  0.38387205  0.97035676  1  -1.292513  0.130959  -0.373874  -0.319952  0.093007  3.454948  0.104
N  N170  1  0.51014570  0.49443799  0.88041473  1  -1.295021  0.041658  -0.339539  -0.338222  0.028012  3.108198  0.03
N  N171  1  0.37037442  0.60936032  0.71183108  1  -1.272372  0.153226  -0.375989  -0.329515  0.107786  3.395509  0.122
N  N172  1  0.97550947  0.34485384  0.20376890  1  -1.177274  0.060522  -0.337986  -0.283042  0.039614  2.824007  0.041
N  N173  1  0.50924549  0.33474339  0.92656530  1  -1.202903  0.111239  -0.311993  -0.234383  0.079891  3.528628  0.096
N  N174  1  0.30583494  0.33334267  0.92680400  1  -1.17819  0.119254  -0.314531  -0.23733  0.085785  3.538929  0.103
N  N175  1  0.19433108  0.78865609  0.38188748  1  -1.291687  0.135961  -0.379157  -0.326646  0.095914  3.457075  0.107
N  N176  1  0.56725261  0.76524118  0.38292994  1  -1.254049  0.06369  -0.340179  -0.335643  0.042199  3.123779  0.046
N  N177  1  0.42100711  0.62387067  0.51312940  1  -1.245973  0.140778  -0.377796  -0.337682  0.100756  3.410233  0.114
N  N178  1  0.96357088  0.97029392  0.38396493  1  -1.306957  0.131225  -0.375129  -0.32136  0.093136  3.45924  0.104
N  N179  1  0.11449508  0.88034474  0.49471812  1  -1.26783  0.041238  -0.339087  -0.337403  0.027671  3.106207  0.03
N  N180  1  0.30829511  0.71185675  0.60920726  1  -1.247434  0.152958  -0.375671  -0.330667  0.107811  3.39468  0.122
N  N181  1  0.47581420  0.20410749  0.34494145  1  -1.192075  0.060765  -0.335788  -0.281313  0.039775  2.824382  0.041
N  N182  1  0.22902986  0.92631474  0.33508581  1  -1.217739  0.111224  -0.311254  -0.230969  0.079846  3.525983  0.096
N  N183  1  0.43362883  0.92661371  0.33345429  1  -1.179305  0.119278  -0.313074  -0.233178  0.085752  3.537349  0.103
N  N184  1  0.13492303  0.28883363  0.88160411  1  -1.277469  0.1359  -0.376947  -0.324306  0.095727  3.457512  0.107
N  N185  1  0.78458320  0.26523425  0.88297332  1  -1.270193  0.06377  -0.339864  -0.335946  0.042272  3.118914  0.047
N  N186  1  0.94212385  0.12395406  0.01314968  1  -1.265598  0.140933  -0.378582  -0.336704  0.100722  3.4117  0.114
N  N187  1  0.18185076  0.47035769  0.88387260  1  -1.292448  0.130924  -0.37389  -0.319936  0.092982  3.454936  0.104
N  N188  1  0.01014852  0.38041200  0.99444051  1  -1.295253  0.04164  -0.339648  -0.33837  0.028001  3.108328  0.03
N  N189  1  0.87037539  0.21183287  0.10936242  1  -1.271991  0.153236  -0.375957  -0.329378  0.107791  3.395368  0.122
N  N190  1  0.47551482  0.70376966  0.84485305  1  -1.177645  0.060512  -0.337948  -0.282955  0.039607  2.823984  0.041
N  N191  1  0.00924724  0.42656559  0.83474427  1  -1.202962  0.11124  -0.312027  -0.234432  0.079893  3.528529  0.096
N  N192  1  0.80583574  0.42680530  0.83334593  1  -1.178096  0.11926  -0.314486  -0.237293  0.085789  3.538826  0.103
N  N193  1  0.69433179  0.88188623  0.28865470  1  -1.291611  0.135958  -0.379138  -0.326613  0.095911  3.457139  0.107
N  N194  1  0.06725036  0.88293459  0.26524524  1  -1.253274  0.063705  -0.340198  -0.335679  0.042208  3.123499  0.046
N  N195  1  0.92100495  0.01313334  0.12387120  1  -1.24585  0.140814  -0.37786  -0.337829  0.100782  3.409949  0.114
N  N196  1  0.46356754  0.88396536  0.47029299  1  -1.306992  0.13122  -0.375117  -0.321347  0.093133  3.459326  0.104
N  N197  1  0.61449463  0.99472192  0.38034478  1  -1.267833  0.041219  -0.33911  -0.337404  0.027658  3.106693  0.03
N  N198  1  0.80829711  0.10921075  0.21185782  1  -1.247446  0.15296  -0.375726  -0.330734  0.107816  3.394606  0.122
N  N199  1  0.97581511  0.84494016  0.70410592  1  -1.192192  0.060764  -0.335848  -0.281346  0.039774  2.824477  0.041
N  N200  1  0.72902631  0.83508900  0.42631379  1  -1.217935  0.111218  -0.311248  -0.231073  0.079844  3.525911  0.096
N  N201  1  0.93362618  0.83345629  0.42661446  1  -1.179278  0.119274  -0.313037  -0.2332  0.085749  3.537348  0.103
N  N202  1  0.36507859  0.61839666  0.21116381  1  -1.277621  0.135888  -0.377003  -0.324353  0.095719  3.457754  0.107
N  N203  1  0.71540704  0.61703531  0.23476117  1  -1.271399  0.063708  -0.339926  -0.336098  0.04223  3.1195  0.046
N  N204  1  0.55787908  0.48685289  0.37604450  1  -1.26555  0.140929  -0.378653  -0.336833  0.100719  3.411313  0.114
N  N205  1  0.31815076  0.61612941  0.02964150  1  -1.292598  0.130924  -0.373947  -0.31997  0.092983  3.455084  0.104
N  N206  1  0.48985479  0.50556341  0.11958027  1  -1.294998  0.041664  -0.339485  -0.338131  0.028016  3.108135  0.03
N  N207  1  0.62962845  0.39063959  0.28816885  1  -1.272109  0.153249  -0.375982  -0.329516  0.107801  3.395504  0.122
N  N208  1  0.02448316  0.65514455  0.79623403  1  -1.17728  0.060557  -0.337873  -0.282972  0.039638  2.823736  0.041
N  N209  1  0.49075184  0.66526121  0.07343242  1  -1.203077  0.111243  -0.311964  -0.234258  0.079893  3.528557  0.096
N  N210  1  0.69416713  0.66665926  0.07319111  1  -1.178267  0.11925  -0.314556  -0.237408  0.085783  3.538645  0.103
N  N211  1  0.80566881  0.21134228  0.61811429  1  -1.291659  0.135968  -0.379196  -0.326627  0.095917  3.457142  0.107
N  N212  1  0.43273706  0.23475351  0.61707186  1  -1.253755  0.063764  -0.340129  -0.33561  0.042249  3.12281  0.046
N  N213  1  0.57898105  0.37612554  0.48686882  1  -1.246436  0.140793  -0.377911  -0.337787  0.100763  3.410061  0.114
N  N214  1  0.03643266  0.02970654  0.61603625  1  -1.306877  0.131223  -0.375091  -0.321321  0.093135  3.459327  0.104
N  N215  1  0.88550139  0.11965312  0.50528432  1  -1.267874  0.041232  -0.339104  -0.337455  0.027667  3.106427  0.03
N  N216  1  0.69170967  0.28814306  0.39078693  1  -1.24717  0.152968  -0.375584  -0.330491  0.10782  3.394752  0.122
N  N217  1  0.52418521  0.79589865  0.65505409  1  -1.191841  0.060736  -0.335951  -0.281467  0.039755  2.824937  0.041
N  N218  1  0.77097122  0.07368515  0.66491342  1  -1.217713  0.111222  -0.31125  -0.231002  0.079846  3.525967  0.096
N  N219  1  0.56637222  0.07338621  0.66654642  1  -1.179254  0.119279  -0.313077  -0.233214  0.085753  3.537321  0.103
N  N220  1  0.69539771  0.91468122  0.08525852  1  -1.17367  0.046873  -0.346532  -0.285338  0.030722  2.809389  0.031
N  N221  1  0.94441076  0.71011596  0.28993578  1  -1.178829  0.03413  -0.342061  -0.284454  0.022476  2.801722  0.023
N  N222  1  0.30460316  0.08532132  0.91474161  1  -1.173676  0.046862  -0.346446  -0.285304  0.030714  2.809585  0.031
N  N223  1  0.05558033  0.28988186  0.71006456  1  -1.178806  0.034126  -0.342042  -0.284424  0.022473  2.801873  0.023
N  N224  1  0.80461273  0.41473490  0.58531130  1  -1.173211  0.046888  -0.346356  -0.285132  0.030732  2.809412  0.031
N  N225  1  0.55558643  0.21006508  0.78988582  1  -1.178858  0.034126  -0.341982  -0.284391  0.022473  2.801538  0.023
N  N226  1  0.19539541  0.58525907  0.41467976  1  -1.174264  0.046887  -0.346409  -0.285266  0.030731  2.809409  0.031
N  N227  1  0.44440609  0.78994012  0.21011602  1  -1.178755  0.034151  -0.341948  -0.284387  0.02249  2.801259  0.023
