# generated using pymatgen
data_CuH6C4N3
_symmetry_space_group_name_H-M   'P 1'
_cell_length_a   7.85796380
_cell_length_b   11.05455580
_cell_length_c   11.05456565
_cell_angle_alpha   62.84453638
_cell_angle_beta   69.17902451
_cell_angle_gamma   69.17906398
_symmetry_Int_Tables_number   1
_chemical_formula_structural   CuH6C4N3
_chemical_formula_sum   'Cu6 H36 C24 N18'
_cell_volume   776.77037448
_cell_formula_units_Z   6
loop_
 _symmetry_equiv_pos_site_id
 _symmetry_equiv_pos_as_xyz
  1  'x, y, z'
loop_
 _atom_site_type_symbol
 _atom_site_label
 _atom_site_symmetry_multiplicity
 _atom_site_fract_x
 _atom_site_fract_y
 _atom_site_fract_z
 _atom_site_occupancy
 _atom_site_hle17_bader_spin_density
 _atom_site_hle17_ddec_charge
 _atom_site_hle17_ddec_spin_density
 _atom_site_hle17_ddec_sum_bond_order
 _atom_site_hle17_magmom
 _atom_site_hse06_10hf_bader_spin_density
 _atom_site_hse06_10hf_ddec_charge
 _atom_site_hse06_10hf_ddec_spin_density
 _atom_site_hse06_10hf_ddec_sum_bond_order
 _atom_site_hse06_10hf_magmom
 _atom_site_hse06_bader_spin_density
 _atom_site_hse06_ddec_charge
 _atom_site_hse06_ddec_spin_density
 _atom_site_hse06_ddec_sum_bond_order
 _atom_site_hse06_magmom
 _atom_site_pbe_bader_spin_density
 _atom_site_pbe_cm5_charge
 _atom_site_pbe_ddec_charge
 _atom_site_pbe_ddec_spin_density
 _atom_site_pbe_ddec_sum_bond_order
 _atom_site_pbe_magmom
Cu  Cu0  1  0.01834872  0.21199938  0.37474612  1  0  0.435844  0  1.848994  0  0  0.312384  0  2.314767  0  0  0.319636  0  2.269859  0  0  0.533987  0.308538  0  2.345674  0
Cu  Cu1  1  0.39499278  0.37464114  0.21188029  1  0  0.435884  0  1.848744  0  0  0.312204  0  2.314637  0  0  0.319501  0  2.269761  0  0  0.533661  0.308011  0  2.345781  0
Cu  Cu2  1  0.51834880  0.87474797  0.71199901  1  0  0.435828  0  1.848896  0  0  0.312346  0  2.314646  0  0  0.319621  0  2.269759  0  0  0.533968  0.308511  0  2.345582  0
Cu  Cu3  1  0.89499434  0.71187976  0.87464134  1  0  0.435841  0  1.848783  0  0  0.312205  0  2.314734  0  0  0.319445  0  2.2698  0  0  0.53365  0.307973  0  2.345829  0
Cu  Cu4  1  0.54623801  0.95371428  0.95377796  1  0  0.427128  0  1.782871  0  0  0.29217  0  2.256084  0  0  0.305475  0  2.202373  0  0  0.499965  0.283833  0  2.293711  0
Cu  Cu5  1  0.04623646  0.45378017  0.45371319  1  0  0.427148  0  1.782806  0  0  0.29218  0  2.256015  0  0  0.305489  0  2.202312  0  0  0.49996  0.283846  0  2.293648  0
H  H6  1  0.05164748  0.96326108  0.31537403  1  0  0.123031  0  0.963727  0  0  0.146372  0  1.021613  0  0  0.147998  0  1.021013  0  0  0.097808  0.144983  0  1.022322  0
H  H7  1  0.66966390  0.31518526  0.96329686  1  0  0.12298  0  0.963452  0  0  0.14638  0  1.021445  0  0  0.148096  0  1.020709  0  0  0.097754  0.14515  0  1.021856  0
H  H8  1  0.55164749  0.81537558  0.46326077  1  0  0.123037  0  0.963673  0  0  0.146374  0  1.021572  0  0  0.147994  0  1.02098  0  0  0.097799  0.14498  0  1.022287  0
H  H9  1  0.16966540  0.46329458  0.81518720  1  0  0.122965  0  0.963418  0  0  0.14637  0  1.021407  0  0  0.148089  0  1.020668  0  0  0.09775  0.145141  0  1.021815  0
H  H10  1  0.05064193  0.02186830  0.13699793  1  0  0.116437  0  0.939708  0  0  0.142394  0  0.993267  0  0  0.143547  0  0.993327  0  0  0.09565  0.141648  0  0.993074  0
H  H11  1  0.79031161  0.13682260  0.02189067  1  0  0.116224  0  0.939566  0  0  0.142372  0  0.992875  0  0  0.143525  0  0.992923  0  0  0.095458  0.141456  0  0.992866  0
H  H12  1  0.55064035  0.63699960  0.52186989  1  0  0.116437  0  0.939652  0  0  0.142411  0  0.993196  0  0  0.143564  0  0.993254  0  0  0.095657  0.141662  0  0.993006  0
H  H13  1  0.29031319  0.52189102  0.63682278  1  0  0.116244  0  0.939536  0  0  0.142388  0  0.992853  0  0  0.14354  0  0.992903  0  0  0.095464  0.141472  0  0.992845  0
H  H14  1  0.21928237  0.87176149  0.20766486  1  0  0.122306  0  0.982428  0  0  0.142111  0  1.046015  0  0  0.143004  0  1.047035  0  0  0.095996  0.141543  0  1.045268  0
H  H15  1  0.70120648  0.20755402  0.87173541  1  0  0.122026  0  0.983126  0  0  0.14189  0  1.046598  0  0  0.142765  0  1.047633  0  0  0.095821  0.141322  0  1.045696  0
H  H16  1  0.71928236  0.70766531  0.37176352  1  0  0.122307  0  0.982436  0  0  0.142114  0  1.046016  0  0  0.14301  0  1.047033  0  0  0.095991  0.141547  0  1.045266  0
H  H17  1  0.20120575  0.37173470  0.70755447  1  0  0.122031  0  0.983119  0  0  0.141898  0  1.046588  0  0  0.142772  0  1.047623  0  0  0.095823  0.141329  0  1.045686  0
H  H18  1  0.26760394  0.63890738  0.82610863  1  0  0.10635  0  0.984961  0  0  0.122676  0  1.062527  0  0  0.126764  0  1.057546  0  0  0.087232  0.119699  0  1.066029  0
H  H19  1  0.26763217  0.82636684  0.63895188  1  0  0.106374  0  0.985029  0  0  0.122151  0  1.063366  0  0  0.126273  0  1.058342  0  0  0.087181  0.118996  0  1.067099  0
H  H20  1  0.76760486  0.32610770  0.13890677  1  0  0.10637  0  0.984937  0  0  0.122688  0  1.062498  0  0  0.126769  0  1.057529  0  0  0.08725  0.119715  0  1.066001  0
H  H21  1  0.76763017  0.13895191  0.32636897  1  0  0.106364  0  0.985062  0  0  0.122125  0  1.063407  0  0  0.126256  0  1.058373  0  0  0.087168  0.118971  0  1.067133  0
H  H22  1  0.33886353  0.46913765  0.95002322  1  0  0.119058  0  0.976425  0  0  0.134781  0  1.044186  0  0  0.137371  0  1.042814  0  0  0.092517  0.132947  0  1.04516  0
H  H23  1  0.24210323  0.95029869  0.46920098  1  0  0.119286  0  0.974495  0  0  0.135019  0  1.042261  0  0  0.137645  0  1.040817  0  0  0.09241  0.133141  0  1.0432  0
H  H24  1  0.83886361  0.45002087  0.96913859  1  0  0.119078  0  0.976426  0  0  0.134805  0  1.044175  0  0  0.137399  0  1.042795  0  0  0.092515  0.132974  0  1.045146  0
H  H25  1  0.74210308  0.96919970  0.45030071  1  0  0.119282  0  0.974571  0  0  0.135009  0  1.042326  0  0  0.137635  0  1.040884  0  0  0.092404  0.13313  0  1.043264  0
H  H26  1  0.50664069  0.54725491  0.79879443  1  0  0.12501  0  0.942706  0  0  0.147403  0  0.996669  0  0  0.148376  0  0.998117  0  0  0.096011  0.146744  0  0.995619  0
H  H27  1  0.14785984  0.79886699  0.54726633  1  0  0.123416  0  0.942534  0  0  0.145751  0  0.996725  0  0  0.146726  0  0.998119  0  0  0.095512  0.145057  0  0.995704  0
H  H28  1  0.00663773  0.29879555  0.04725379  1  0  0.125031  0  0.942727  0  0  0.147418  0  0.996695  0  0  0.14839  0  0.998143  0  0  0.096022  0.146759  0  0.995645  0
H  H29  1  0.64786060  0.04726541  0.29886752  1  0  0.123338  0  0.942598  0  0  0.145678  0  0.996771  0  0  0.146653  0  0.998166  0  0  0.095482  0.144983  0  0.995746  0
H  H30  1  0.49829578  0.72505935  0.26381553  1  0  0.12217  0  0.950678  0  0  0.144865  0  1.007602  0  0  0.14636  0  1.007481  0  0  0.097408  0.143698  0  1.007705  0
H  H31  1  0.51275049  0.26361930  0.72520943  1  0  0.121926  0  0.950642  0  0  0.144088  0  1.008351  0  0  0.145632  0  1.008166  0  0  0.096687  0.142869  0  1.008528  0
H  H32  1  0.99829891  0.76381605  0.22506053  1  0  0.122124  0  0.950649  0  0  0.144871  0  1.007527  0  0  0.146366  0  1.007407  0  0  0.097416  0.143702  0  1.007634  0
H  H33  1  0.01274618  0.22521223  0.76362176  1  0  0.121887  0  0.950696  0  0  0.144047  0  1.008409  0  0  0.145591  0  1.008225  0  0  0.096677  0.142828  0  1.008587  0
H  H34  1  0.59192962  0.54306631  0.29828040  1  0  0.133921  0  0.951389  0  0  0.153175  0  1.011656  0  0  0.154428  0  1.012916  0  0  0.099557  0.152321  0  1.010623  0
H  H35  1  0.56663698  0.29812236  0.54319575  1  0  0.134281  0  0.950056  0  0  0.153677  0  1.010163  0  0  0.154923  0  1.011456  0  0  0.099791  0.152771  0  1.009251  0
H  H36  1  0.09193312  0.79828038  0.04306563  1  0  0.133902  0  0.951423  0  0  0.153156  0  1.011692  0  0  0.154409  0  1.01295  0  0  0.099549  0.152296  0  1.010665  0
H  H37  1  0.06663843  0.04319723  0.79812146  1  0  0.134304  0  0.949928  0  0  0.1537  0  1.010046  0  0  0.154944  0  1.011338  0  0  0.099777  0.152792  0  1.009137  0
H  H38  1  0.34682741  0.60634109  0.34641399  1  0  0.113784  0  0.946383  0  0  0.129832  0  1.020719  0  0  0.134005  0  1.015604  0  0  0.090173  0.126791  0  1.024369  0
H  H39  1  0.70027629  0.34632813  0.60644503  1  0  0.112739  0  0.947795  0  0  0.129103  0  1.021673  0  0  0.133207  0  1.016692  0  0  0.090049  0.125929  0  1.025607  0
H  H40  1  0.84682904  0.84641617  0.10633975  1  0  0.11376  0  0.946378  0  0  0.1298  0  1.020729  0  0  0.133973  0  1.015613  0  0  0.090164  0.126759  0  1.024376  0
H  H41  1  0.20027269  0.10644643  0.84633180  1  0  0.112732  0  0.947772  0  0  0.129138  0  1.021601  0  0  0.133245  0  1.016616  0  0  0.090055  0.125964  0  1.025538  0
C  C42  1  0.27053062  0.06403351  0.17202123  1  0  0.375801  0  3.781352  0  0  0.366396  0  4.040178  0  0  0.37856  0  4.058211  0  0  0.193973  0.358409  0  4.028006  0
C  C43  1  0.49323131  0.17193884  0.06402799  1  0  0.376144  0  3.782544  0  0  0.368083  0  4.039913  0  0  0.380114  0  4.05803  0  0  0.194398  0.359554  0  4.027612  0
C  C44  1  0.77052957  0.67202306  0.56403401  1  0  0.375831  0  3.781301  0  0  0.366429  0  4.040126  0  0  0.378594  0  4.058158  0  0  0.193976  0.358443  0  4.02795  0
C  C45  1  0.99323032  0.56402750  0.67194166  1  0  0.376147  0  3.782514  0  0  0.368069  0  4.039883  0  0  0.380099  0  4.057995  0  0  0.194366  0.35954  0  4.027584  0
C  C46  1  0.14161191  0.97470034  0.21091886  1  0  -0.384688  0  3.719955  0  0  -0.465975  0  3.950265  0  0  -0.468658  0  3.957128  0  0  -0.236975  -0.464087  0  3.945693  0
C  C47  1  0.67260715  0.21078272  0.97468961  1  0  -0.384902  0  3.721772  0  0  -0.466817  0  3.95197  0  0  -0.469466  0  3.958712  0  0  -0.23699  -0.464554  0  3.946973  0
C  C48  1  0.64161353  0.71091944  0.47470159  1  0  -0.384688  0  3.719888  0  0  -0.465989  0  3.950192  0  0  -0.468669  0  3.957055  0  0  -0.236955  -0.464095  0  3.945621  0
C  C49  1  0.17260595  0.47468921  0.71078293  1  0  -0.384933  0  3.721726  0  0  -0.466855  0  3.95194  0  0  -0.469501  0  3.958681  0  0  -0.236999  -0.464591  0  3.946943  0
C  C50  1  0.41573393  0.62865220  0.96003230  1  0  0.395183  0  3.754253  0  0  0.383345  0  4.011162  0  0  0.396591  0  4.02765  0  0  0.200889  0.374382  0  4.000343  0
C  C51  1  0.99561996  0.96001766  0.62869651  1  0  0.395494  0  3.752071  0  0  0.383148  0  4.010042  0  0  0.396374  0  4.026522  0  0  0.200499  0.37383  0  3.999297  0
C  C52  1  0.91573586  0.46003397  0.12865033  1  0  0.395116  0  3.754388  0  0  0.383251  0  4.01133  0  0  0.396524  0  4.027773  0  0  0.200849  0.374289  0  4.000512  0
C  C53  1  0.49561860  0.12869534  0.46001924  1  0  0.395525  0  3.752053  0  0  0.383157  0  4.010038  0  0  0.396386  0  4.026523  0  0  0.200483  0.373838  0  3.999292  0
C  C54  1  0.45790770  0.65703728  0.12691254  1  0  0.392535  0  3.743458  0  0  0.379362  0  4.004278  0  0  0.392363  0  4.022032  0  0  0.201495  0.370344  0  3.992462  0
C  C55  1  0.75810055  0.12681991  0.65712558  1  0  0.391604  0  3.742089  0  0  0.379233  0  4.001988  0  0  0.392305  0  4.019702  0  0  0.201395  0.370664  0  3.989802  0
C  C56  1  0.95790835  0.62691585  0.15703658  1  0  0.392491  0  3.743461  0  0  0.379274  0  4.004349  0  0  0.39227  0  4.022108  0  0  0.201442  0.370256  0  3.99253  0
C  C57  1  0.25810203  0.15712896  0.62682242  1  0  0.391547  0  3.742168  0  0  0.379152  0  4.002104  0  0  0.392224  0  4.01982  0  0  0.201399  0.370585  0  3.989918  0
C  C58  1  0.38112111  0.56745056  0.87887157  1  0  -0.389198  0  3.725521  0  0  -0.46999  0  3.964751  0  0  -0.473764  0  3.969241  0  0  -0.242714  -0.467187  0  3.961688  0
C  C59  1  0.17280467  0.87903550  0.56748047  1  0  -0.386076  0  3.721066  0  0  -0.466369  0  3.961239  0  0  -0.470159  0  3.965627  0  0  -0.240926  -0.463326  0  3.958186  0
C  C60  1  0.88112331  0.37887220  0.06744953  1  0  -0.389239  0  3.725498  0  0  -0.470026  0  3.964783  0  0  -0.473805  0  3.969262  0  0  -0.242729  -0.467223  0  3.961708  0
C  C61  1  0.67280342  0.06748018  0.37903858  1  0  -0.385993  0  3.721193  0  0  -0.466234  0  3.961338  0  0  -0.470034  0  3.965718  0  0  -0.240852  -0.463216  0  3.958342  0
C  C62  1  0.47485752  0.63190983  0.26638418  1  0  -0.382985  0  3.710958  0  0  -0.462921  0  3.947919  0  0  -0.46648  0  3.953547  0  0  -0.236207  -0.459986  0  3.943554  0
C  C63  1  0.62675622  0.26625096  0.63204093  1  0  -0.382122  0  3.710551  0  0  -0.462141  0  3.947463  0  0  -0.465738  0  3.95309  0  0  -0.236165  -0.459473  0  3.943596  0
C  C64  1  0.97486170  0.76638525  0.13190771  1  0  -0.382876  0  3.710919  0  0  -0.462836  0  3.947866  0  0  -0.466392  0  3.953491  0  0  -0.236188  -0.459893  0  3.943499  0
C  C65  1  0.12675625  0.13204371  0.76625178  1  0  -0.382118  0  3.710479  0  0  -0.462161  0  3.947403  0  0  -0.465759  0  3.953033  0  0  -0.236163  -0.459491  0  3.943527  0
N  N66  1  0.23644766  0.15706954  0.22861368  1  0  -0.313258  0  3.240187  0  0  -0.2549  0  3.541088  0  0  -0.266634  0  3.549902  0  0  -0.291177  -0.247158  0  3.534772  0
N  N67  1  0.37777346  0.22854214  0.15708600  1  0  -0.312549  0  3.239761  0  0  -0.254873  0  3.540395  0  0  -0.266631  0  3.549288  0  0  -0.290767  -0.24669  0  3.534137  0
N  N68  1  0.73644741  0.72861513  0.65707020  1  0  -0.313295  0  3.240132  0  0  -0.25495  0  3.541017  0  0  -0.26669  0  3.549839  0  0  -0.291212  -0.247212  0  3.534707  0
N  N69  1  0.87777344  0.65708640  0.72854238  1  0  -0.312498  0  3.239809  0  0  -0.254806  0  3.540454  0  0  -0.266548  0  3.549307  0  0  -0.290742  -0.246613  0  3.534171  0
N  N70  1  0.43099131  0.06882863  0.06888814  1  0  -0.521216  0  3.280594  0  0  -0.451068  0  3.588119  0  0  -0.470207  0  3.592016  0  0  -0.404286  -0.438355  0  3.58585  0
N  N71  1  0.93098944  0.56888943  0.56882897  1  0  -0.521237  0  3.280443  0  0  -0.451076  0  3.587957  0  0  -0.470216  0  3.591857  0  0  -0.404243  -0.438361  0  3.585688  0
N  N72  1  0.44365715  0.75697287  0.90779687  1  0  -0.325109  0  3.329995  0  0  -0.269804  0  3.646821  0  0  -0.279225  0  3.64881  0  0  -0.316952  -0.263681  0  3.646413  0
N  N73  1  0.89165317  0.90772698  0.75701929  1  0  -0.327316  0  3.329877  0  0  -0.271674  0  3.647084  0  0  -0.281128  0  3.64902  0  0  -0.318256  -0.265716  0  3.646607  0
N  N74  1  0.94366086  0.40779548  0.25697312  1  0  -0.325136  0  3.330066  0  0  -0.269825  0  3.64691  0  0  -0.279248  0  3.64888  0  0  -0.316986  -0.263701  0  3.646497  0
N  N75  1  0.39164803  0.25702152  0.40772649  1  0  -0.32731  0  3.329741  0  0  -0.271641  0  3.646905  0  0  -0.281114  0  3.648881  0  0  -0.318208  -0.26569  0  3.646455  0
N  N76  1  0.47197338  0.77607633  0.01386096  1  0  -0.33832  0  3.285207  0  0  -0.275759  0  3.599551  0  0  -0.286699  0  3.60116  0  0  -0.299891  -0.268513  0  3.599363  0
N  N77  1  0.73808302  0.01374015  0.77614732  1  0  -0.336891  0  3.283233  0  0  -0.274501  0  3.597282  0  0  -0.285482  0  3.598798  0  0  -0.299409  -0.26765  0  3.596594  0
N  N78  1  0.97197431  0.51386098  0.27607383  1  0  -0.33831  0  3.285211  0  0  -0.275728  0  3.599554  0  0  -0.286678  0  3.601184  0  0  -0.299856  -0.268491  0  3.599382  0
N  N79  1  0.23807984  0.27614809  0.51374069  1  0  -0.336875  0  3.28326  0  0  -0.274477  0  3.597312  0  0  -0.285454  0  3.59883  0  0  -0.299447  -0.267626  0  3.596626  0
N  N80  1  0.42327418  0.56217240  0.09713113  1  0  -0.501324  0  3.301006  0  0  -0.426861  0  3.604775  0  0  -0.445702  0  3.610077  0  0  -0.406634  -0.414156  0  3.601787  0
N  N81  1  0.91743398  0.09711208  0.56227003  1  0  -0.500951  0  3.300616  0  0  -0.426709  0  3.604662  0  0  -0.445576  0  3.609913  0  0  -0.405913  -0.414076  0  3.601306  0
N  N82  1  0.92327736  0.59713135  0.06217101  1  0  -0.501235  0  3.301103  0  0  -0.426763  0  3.604918  0  0  -0.44559  0  3.610162  0  0  -0.406576  -0.414043  0  3.601887  0
N  N83  1  0.41743059  0.06227162  0.59711349  1  0  -0.500952  0  3.300624  0  0  -0.426689  0  3.604664  0  0  -0.445567  0  3.609937  0  0  -0.405915  -0.414061  0  3.601324  0
