# generated using pymatgen
data_BiH10C10N11
_symmetry_space_group_name_H-M   'P 1'
_cell_length_a   6.31294241
_cell_length_b   10.77773762
_cell_length_c   12.16800790
_cell_angle_alpha   116.37865884
_cell_angle_beta   90.00098179
_cell_angle_gamma   89.99851750
_symmetry_Int_Tables_number   1
_chemical_formula_structural   BiH10C10N11
_chemical_formula_sum   'Bi2 H20 C20 N22'
_cell_volume   741.69859394
_cell_formula_units_Z   2
loop_
 _symmetry_equiv_pos_site_id
 _symmetry_equiv_pos_as_xyz
  1  'x, y, z'
loop_
 _atom_site_type_symbol
 _atom_site_label
 _atom_site_symmetry_multiplicity
 _atom_site_fract_x
 _atom_site_fract_y
 _atom_site_fract_z
 _atom_site_occupancy
 _atom_site_hle17_bader_spin_density
 _atom_site_hle17_ddec_charge
 _atom_site_hle17_ddec_spin_density
 _atom_site_hle17_ddec_sum_bond_order
 _atom_site_hle17_magmom
 _atom_site_hse06_10hf_bader_spin_density
 _atom_site_hse06_10hf_ddec_charge
 _atom_site_hse06_10hf_ddec_spin_density
 _atom_site_hse06_10hf_ddec_sum_bond_order
 _atom_site_hse06_10hf_magmom
 _atom_site_hse06_bader_spin_density
 _atom_site_hse06_ddec_charge
 _atom_site_hse06_ddec_spin_density
 _atom_site_hse06_ddec_sum_bond_order
 _atom_site_hse06_magmom
 _atom_site_pbe_bader_spin_density
 _atom_site_pbe_cm5_charge
 _atom_site_pbe_ddec_charge
 _atom_site_pbe_ddec_spin_density
 _atom_site_pbe_ddec_sum_bond_order
 _atom_site_pbe_magmom
Bi  Bi0  1  0.11798558  0.63089993  0.99996418  1  0  1.446369  0  2.2979  0  0  1.242779  0  2.778987  0  0  1.302172  0  2.750276  0  0  0.889954  1.199498  0  2.798876  0
Bi  Bi1  1  0.61798572  0.36909924  0.00003333  1  0  1.446363  0  2.297922  0  0  1.242783  0  2.77899  0  0  1.302174  0  2.750281  0  0  0.889921  1.199506  0  2.798877  0
H  H2  1  0.91645218  0.86044616  0.29074486  1  0  0.077186  0  0.946138  0  0  0.081767  0  1.018777  0  0  0.08399  0  1.017098  0  0  0.11334  0.080219  0  1.019974  0
H  H3  1  0.41642937  0.13954594  0.70925662  1  0  0.077238  0  0.946117  0  0  0.081717  0  1.018839  0  0  0.083937  0  1.017161  0  0  0.113315  0.080181  0  1.020045  0
H  H4  1  0.41685160  0.43028636  0.29125168  1  0  0.077894  0  0.945  0  0  0.082001  0  1.017952  0  0  0.084212  0  1.016306  0  0  0.113375  0.080359  0  1.019238  0
H  H5  1  0.91685524  0.56971714  0.70874856  1  0  0.077919  0  0.945029  0  0  0.082024  0  1.017989  0  0  0.084249  0  1.016305  0  0  0.11341  0.080385  0  1.01927  0
H  H6  1  0.02538935  0.06638344  0.48548352  1  0  0.10471  0  0.981244  0  0  0.112131  0  1.045298  0  0  0.114435  0  1.045997  0  0  0.103236  0.109814  0  1.045929  0
H  H7  1  0.52537355  0.93360554  0.51452065  1  0  0.104707  0  0.981326  0  0  0.112125  0  1.045376  0  0  0.11443  0  1.046077  0  0  0.103209  0.109808  0  1.046005  0
H  H8  1  0.52744533  0.41978253  0.48568674  1  0  0.105007  0  0.982855  0  0  0.11241  0  1.046869  0  0  0.114738  0  1.047511  0  0  0.103788  0.110745  0  1.046527  0
H  H9  1  0.02743293  0.58021576  0.51431045  1  0  0.105012  0  0.982842  0  0  0.112428  0  1.046848  0  0  0.114754  0  1.04749  0  0  0.10383  0.110763  0  1.046506  0
H  H10  1  0.37320731  0.17994358  0.49203116  1  0  0.095806  0  0.955397  0  0  0.102668  0  1.023492  0  0  0.104993  0  1.02178  0  0  0.105867  0.101029  0  1.02457  0
H  H11  1  0.87320268  0.82004598  0.50797304  1  0  0.095862  0  0.955313  0  0  0.102697  0  1.023423  0  0  0.105031  0  1.021718  0  0  0.105915  0.101066  0  1.024508  0
H  H12  1  0.87541392  0.31222715  0.49128878  1  0  0.095387  0  0.954695  0  0  0.102306  0  1.022687  0  0  0.104731  0  1.020885  0  0  0.105776  0.100538  0  1.024024  0
H  H13  1  0.37539180  0.68776551  0.50870516  1  0  0.095399  0  0.954656  0  0  0.102337  0  1.022635  0  0  0.104768  0  1.020828  0  0  0.105794  0.10057  0  1.023977  0
H  H14  1  0.60609148  0.07949603  0.30323744  1  0  0.101692  0  0.962782  0  0  0.113194  0  1.018565  0  0  0.115077  0  1.020575  0  0  0.104529  0.11183  0  1.017431  0
H  H15  1  0.10609694  0.92050433  0.69676372  1  0  0.101693  0  0.962753  0  0  0.113179  0  1.018542  0  0  0.115062  0  1.020551  0  0  0.104524  0.111816  0  1.017406  0
H  H16  1  0.10655734  0.22296726  0.30198759  1  0  0.101776  0  0.963398  0  0  0.113478  0  1.019007  0  0  0.115406  0  1.020982  0  0  0.104504  0.111986  0  1.01799  0
H  H17  1  0.60654349  0.77702689  0.69800455  1  0  0.101827  0  0.963321  0  0  0.113506  0  1.018932  0  0  0.115435  0  1.02091  0  0  0.104536  0.112019  0  1.017922  0
H  H18  1  0.48056995  0.87120466  0.11999872  1  0  0.072265  0  0.962601  0  0  0.077918  0  1.035908  0  0  0.080023  0  1.033961  0  0  0.111536  0.076705  0  1.03702  0
H  H19  1  0.98057350  0.12880319  0.87999723  1  0  0.072231  0  0.962727  0  0  0.077928  0  1.036002  0  0  0.080033  0  1.034057  0  0  0.111528  0.076714  0  1.037122  0
H  H20  1  0.97993413  0.24801896  0.11915444  1  0  0.071616  0  0.963085  0  0  0.077397  0  1.036156  0  0  0.079412  0  1.034312  0  0  0.111301  0.075871  0  1.037553  0
H  H21  1  0.47993258  0.75198165  0.88084028  1  0  0.071555  0  0.96308  0  0  0.07728  0  1.036206  0  0  0.07928  0  1.034376  0  0  0.111236  0.075755  0  1.037596  0
C  C22  1  0.06842504  0.91210047  0.29820054  1  0  0.1289  0  3.706303  0  0  0.096288  0  3.959809  0  0  0.103212  0  3.979675  0  0  0.043996  0.09143  0  3.946503  0
C  C23  1  0.56841182  0.08789934  0.70180336  1  0  0.128928  0  3.706333  0  0  0.096412  0  3.959831  0  0  0.10334  0  3.979693  0  0  0.044024  0.091543  0  3.946533  0
C  C24  1  0.56902580  0.38605445  0.29835348  1  0  0.127844  0  3.708455  0  0  0.095815  0  3.962124  0  0  0.102731  0  3.981975  0  0  0.043662  0.091108  0  3.949017  0
C  C25  1  0.06902286  0.61394847  0.70164754  1  0  0.127755  0  3.708385  0  0  0.095703  0  3.962103  0  0  0.102626  0  3.981958  0  0  0.043609  0.090994  0  3.948989  0
C  C26  1  0.12884939  0.02612656  0.40564670  1  0  -0.126602  0  3.726734  0  0  -0.134927  0  3.970507  0  0  -0.142902  0  3.993258  0  0  -0.084496  -0.129048  0  3.955121  0
C  C27  1  0.62883604  0.97386312  0.59435785  1  0  -0.12677  0  3.726772  0  0  -0.135094  0  3.970518  0  0  -0.143071  0  3.993275  0  0  -0.084497  -0.129208  0  3.955133  0
C  C28  1  0.63020680  0.37972620  0.40564066  1  0  -0.126727  0  3.730358  0  0  -0.135245  0  3.973774  0  0  -0.143254  0  3.996546  0  0  -0.084801  -0.129988  0  3.958577  0
C  C29  1  0.13019844  0.62027074  0.59435526  1  0  -0.126621  0  3.730108  0  0  -0.135174  0  3.973578  0  0  -0.14317  0  3.996334  0  0  -0.084822  -0.129928  0  3.958412  0
C  C30  1  0.32389497  0.08922810  0.40922031  1  0  -0.008555  0  3.712081  0  0  -0.023896  0  3.953932  0  0  -0.020205  0  3.972402  0  0  -0.06407  -0.025983  0  3.94062  0
C  C31  1  0.82389222  0.91076729  0.59078412  1  0  -0.008541  0  3.712217  0  0  -0.02386  0  3.954  0  0  -0.020189  0  3.972492  0  0  -0.064141  -0.025962  0  3.940705  0
C  C32  1  0.82528519  0.31999666  0.40867022  1  0  -0.007618  0  3.712175  0  0  -0.022373  0  3.95307  0  0  -0.018799  0  3.971642  0  0  -0.063958  -0.024509  0  3.940295  0
C  C33  1  0.32526933  0.68000184  0.59132640  1  0  -0.007687  0  3.712249  0  0  -0.022456  0  3.953124  0  0  -0.018886  0  3.971697  0  0  -0.063989  -0.024597  0  3.940357  0
C  C34  1  0.45293573  0.03428121  0.30542633  1  0  -0.116326  0  3.724315  0  0  -0.12695  0  3.970718  0  0  -0.134396  0  3.992719  0  0  -0.082817  -0.122039  0  3.955701  0
C  C35  1  0.95293556  0.96571767  0.69457158  1  0  -0.116344  0  3.724385  0  0  -0.126916  0  3.970737  0  0  -0.13436  0  3.992745  0  0  -0.082777  -0.121994  0  3.955716  0
C  C36  1  0.95348152  0.27056022  0.30450919  1  0  -0.117683  0  3.725938  0  0  -0.128764  0  3.972288  0  0  -0.136272  0  3.994257  0  0  -0.083428  -0.123902  0  3.957449  0
C  C37  1  0.45347484  0.72943245  0.69548380  1  0  -0.117759  0  3.726101  0  0  -0.128803  0  3.972407  0  0  -0.136315  0  3.994379  0  0  -0.083465  -0.123943  0  3.95758  0
C  C38  1  0.38228804  0.91885472  0.20205388  1  0  0.130822  0  3.731852  0  0  0.097577  0  3.988614  0  0  0.105001  0  4.006859  0  0  0.046428  0.092874  0  3.975478  0
C  C39  1  0.88228464  0.08114717  0.79794623  1  0  0.130955  0  3.731872  0  0  0.097655  0  3.98862  0  0  0.105078  0  4.006865  0  0  0.046499  0.092954  0  3.97549  0
C  C40  1  0.88224018  0.28261653  0.20142643  1  0  0.132128  0  3.733887  0  0  0.099093  0  3.990523  0  0  0.106551  0  4.008817  0  0  0.04643  0.09446  0  3.977758  0
C  C41  1  0.38223111  0.71738846  0.79857327  1  0  0.132155  0  3.733966  0  0  0.099164  0  3.99056  0  0  0.106633  0  4.008864  0  0  0.046478  0.094537  0  3.977785  0
N  N42  1  0.81118985  0.75065977  0.00031793  1  0  -0.577876  0  2.590046  0  0  -0.558191  0  2.87581  0  0  -0.581548  0  2.885784  0  0  -0.291788  -0.542149  0  2.868795  0
N  N43  1  0.31117497  0.24936378  0.99968682  1  0  -0.578097  0  2.589014  0  0  -0.558465  0  2.874873  0  0  -0.581837  0  2.884846  0  0  -0.291996  -0.542401  0  2.867852  0
N  N44  1  0.83725518  0.86237937  0.99978954  1  0  0.372525  0  4.21191  0  0  0.411671  0  4.498085  0  0  0.426787  0  4.525344  0  0  0.082796  0.401486  0  4.479903  0
N  N45  1  0.33724856  0.13762311  0.00021205  1  0  0.372543  0  4.211942  0  0  0.411693  0  4.498116  0  0  0.42681  0  4.525359  0  0  0.082872  0.4015  0  4.479948  0
N  N46  1  0.84965588  0.96972365  0.99931282  1  0  -0.340038  0  2.401872  0  0  -0.350053  0  2.633135  0  0  -0.35431  0  2.643612  0  0  -0.173647  -0.347119  0  2.626367  0
N  N47  1  0.34964929  0.03029836  0.00068509  1  0  -0.339793  0  2.40307  0  0  -0.349765  0  2.634272  0  0  -0.354004  0  2.644737  0  0  -0.173448  -0.346838  0  2.627514  0
N  N48  1  0.92204776  0.56620769  0.13171342  1  0  -0.613055  0  2.754393  0  0  -0.56419  0  3.043629  0  0  -0.591601  0  3.05716  0  0  -0.272663  -0.544781  0  3.033623  0
N  N49  1  0.42204884  0.43379988  0.86828683  1  0  -0.613023  0  2.75449  0  0  -0.564147  0  3.043719  0  0  -0.591555  0  3.057244  0  0  -0.272671  -0.544743  0  3.033711  0
N  N50  1  0.42167731  0.56597671  0.13262588  1  0  -0.612786  0  2.750664  0  0  -0.564467  0  3.039693  0  0  -0.5919  0  3.053469  0  0  -0.272653  -0.544813  0  3.02928  0
N  N51  1  0.92167797  0.43403292  0.86738175  1  0  -0.612789  0  2.750662  0  0  -0.56452  0  3.03974  0  0  -0.591954  0  3.053518  0  0  -0.272707  -0.544872  0  3.029336  0
N  N52  1  0.99216684  0.58500051  0.23047454  1  0  0.398563  0  4.227791  0  0  0.418408  0  4.530234  0  0  0.434764  0  4.558718  0  0  0.092392  0.407385  0  4.510735  0
N  N53  1  0.49216231  0.41499785  0.76952433  1  0  0.398501  0  4.227836  0  0  0.418354  0  4.53026  0  0  0.434712  0  4.558743  0  0  0.092405  0.407331  0  4.510752  0
N  N54  1  0.49335532  0.64556317  0.23117260  1  0  0.398557  0  4.226711  0  0  0.418712  0  4.529045  0  0  0.435068  0  4.557529  0  0  0.092388  0.407706  0  4.509416  0
N  N55  1  0.99335783  0.35443826  0.76883489  1  0  0.398552  0  4.226732  0  0  0.418724  0  4.529049  0  0  0.435074  0  4.557539  0  0  0.09239  0.407718  0  4.509425  0
N  N56  1  0.05243670  0.60105199  0.32605357  1  0  -0.336221  0  2.405526  0  0  -0.33917  0  2.652824  0  0  -0.343734  0  2.661999  0  0  -0.159982  -0.335746  0  2.646908  0
N  N57  1  0.55243251  0.39893561  0.67394126  1  0  -0.336144  0  2.405423  0  0  -0.339127  0  2.652734  0  0  -0.343698  0  2.661913  0  0  -0.159985  -0.3357  0  2.646807  0
N  N58  1  0.55637489  0.72434229  0.32650263  1  0  -0.337911  0  2.405597  0  0  -0.340677  0  2.653194  0  0  -0.345393  0  2.662435  0  0  -0.161331  -0.338168  0  2.648233  0
N  N59  1  0.05637654  0.27565559  0.67350862  1  0  -0.337914  0  2.405758  0  0  -0.340664  0  2.65331  0  0  -0.345372  0  2.662546  0  0  -0.161282  -0.338149  0  2.648334  0
N  N60  1  0.19367202  0.85938804  0.19824522  1  0  -0.358827  0  3.262172  0  0  -0.283098  0  3.510701  0  0  -0.304231  0  3.535468  0  0  -0.309848  -0.267751  0  3.493399  0
N  N61  1  0.69366135  0.14061323  0.80175544  1  0  -0.358869  0  3.262291  0  0  -0.28314  0  3.510798  0  0  -0.304272  0  3.535562  0  0  -0.309878  -0.267798  0  3.493506  0
N  N62  1  0.69357251  0.33849151  0.19811867  1  0  -0.358882  0  3.261868  0  0  -0.283655  0  3.510489  0  0  -0.304808  0  3.535319  0  0  -0.309861  -0.269099  0  3.493278  0
N  N63  1  0.19357395  0.66150976  0.80188035  1  0  -0.358786  0  3.261866  0  0  -0.283534  0  3.510441  0  0  -0.304693  0  3.535282  0  0  -0.309792  -0.268975  0  3.493221  0
