# generated using pymatgen
data_CdH10C11NO5
_symmetry_space_group_name_H-M   'P 1'
_cell_length_a   11.03811758
_cell_length_b   11.14306731
_cell_length_c   12.25328716
_cell_angle_alpha   62.78405283
_cell_angle_beta   77.69336080
_cell_angle_gamma   61.50533134
_symmetry_Int_Tables_number   1
_chemical_formula_structural   CdH10C11NO5
_chemical_formula_sum   'Cd4 H40 C44 N4 O20'
_cell_volume   1177.89547192
_cell_formula_units_Z   4
loop_
 _symmetry_equiv_pos_site_id
 _symmetry_equiv_pos_as_xyz
  1  'x, y, z'
loop_
 _atom_site_type_symbol
 _atom_site_label
 _atom_site_symmetry_multiplicity
 _atom_site_fract_x
 _atom_site_fract_y
 _atom_site_fract_z
 _atom_site_occupancy
 _atom_site_pbe_bader_spin_density
 _atom_site_pbe_cm5_charge
 _atom_site_pbe_ddec_charge
 _atom_site_pbe_ddec_spin_density
 _atom_site_pbe_ddec_sum_bond_order
 _atom_site_pbe_magmom
Cd  Cd0  1  0.39946190  0.27274801  0.06512996  1  0  0.79316  1.068394  0  2.139281  0
Cd  Cd1  1  0.00260550  0.84290969  0.36599749  1  0  0.782114  1.029793  0  2.117993  0
Cd  Cd2  1  0.63396383  0.89853484  0.27730811  1  0  0.792965  1.087464  0  2.131365  0
Cd  Cd3  1  0.73900248  0.21095298  0.18608431  1  0  0.801989  1.093918  0  2.115772  0
H  H4  1  0.14282171  0.90486039  0.73326519  1  0  0.103956  0.104827  0  1.008201  0
H  H5  1  0.90985406  0.00390213  0.65183556  1  0  0.105175  0.119013  0  1.001611  0
H  H6  1  0.70095304  0.09749711  0.77281188  1  0  0.102553  0.105391  0  1.022353  0
H  H7  1  0.23306664  0.02338194  0.45130317  1  0  0.107241  0.117618  0  1.006537  0
H  H8  1  0.85398681  0.42336933  0.32440921  1  0  0.108217  0.114812  0  1.024238  0
H  H9  1  0.25924076  0.08373404  0.71288385  1  0  0.097152  0.091546  0  1.044786  0
H  H10  1  0.48027381  0.93176414  0.82857101  1  0  0.097511  0.098573  0  1.041446  0
H  H11  1  0.70327629  0.87739986  0.71364888  1  0  0.103643  0.103593  0  1.020826  0
H  H12  1  0.17316393  0.42454708  0.47219847  1  0  0.106465  0.112924  0  1.024208  0
H  H13  1  0.27798456  0.66804137  0.92966767  1  0  0.107667  0.112725  0  1.021192  0
H  H14  1  0.16728640  0.06480503  0.98495395  1  0  0.105982  0.118467  0  1.013915  0
H  H15  1  0.56246296  0.68791193  0.10315964  1  0  0.105397  0.109437  0  1.047237  0
H  H16  1  0.72753491  0.60650520  0.53312969  1  0  0.119741  0.043487  0  1.03291  0
H  H17  1  0.61782104  0.38370620  0.79061530  1  0  0.107291  0.134487  0  1.021344  0
H  H18  1  0.68254530  0.48305496  0.82190803  1  0  0.103503  0.127974  0  0.988323  0
H  H19  1  0.76131666  0.41462076  0.70529481  1  0  0.106604  0.116225  0  1.005205  0
H  H20  1  0.41615155  0.73967579  0.73784675  1  0  0.098827  0.11141  0  1.023786  0
H  H21  1  0.39139634  0.58721996  0.74928922  1  0  0.109319  0.139573  0  1.011514  0
H  H22  1  0.36364562  0.74881453  0.60501122  1  0  0.109586  0.12752  0  1.002983  0
H  H23  1  0.34017231  0.73420598  0.32749705  1  0  0.129597  0.063297  0  0.980805  0
H  H24  1  0.56215496  0.61647369  0.31565729  1  0  0.108444  0.124543  0  1.034191  0
H  H25  1  0.60812504  0.42475427  0.34995783  1  0  0.105907  0.136692  0  0.99796  0
H  H26  1  0.65563728  0.46841734  0.45269214  1  0  0.099254  0.107875  0  1.01265  0
H  H27  1  0.48245443  0.29401116  0.53931318  1  0  0.103057  0.118704  0  1.030455  0
H  H28  1  0.34605766  0.41454680  0.60319736  1  0  0.108019  0.123911  0  1.024222  0
H  H29  1  0.52222234  0.35739606  0.63114951  1  0  0.105343  0.120499  0  0.993689  0
H  H30  1  0.06441101  0.64726095  0.10632059  1  0  0.119382  0.05448  0  1.004981  0
H  H31  1  0.98742351  0.41629240  0.97419826  1  0  0.100238  0.111641  0  1.01053  0
H  H32  1  0.91764088  0.37272534  0.12417103  1  0  0.104342  0.126129  0  1.022248  0
H  H33  1  0.10034307  0.30545737  0.10453275  1  0  0.110234  0.135539  0  1.012841  0
H  H34  1  0.86018022  0.75810785  0.03749446  1  0  0.105196  0.119838  0  1.027082  0
H  H35  1  0.77840282  0.63596617  0.10411740  1  0  0.105174  0.127515  0  1.000567  0
H  H36  1  0.82190550  0.69389460  0.94512449  1  0  0.099182  0.110098  0  0.994072  0
H  H37  1  0.26984726  0.26582557  0.85880311  1  0  0.122886  0.053895  0  1.006701  0
H  H38  1  0.05283118  0.65247321  0.81440964  1  0  0.104435  0.114355  0  1.032574  0
H  H39  1  0.93798455  0.67925476  0.71208041  1  0  0.106507  0.127393  0  1.009112  0
H  H40  1  0.09397226  0.69435823  0.65595353  1  0  0.108224  0.134146  0  0.986034  0
H  H41  1  0.95727803  0.41516084  0.77226295  1  0  0.099997  0.110998  0  0.999914  0
H  H42  1  0.12543774  0.29691414  0.73896188  1  0  0.104423  0.113683  0  1.025687  0
H  H43  1  0.03017715  0.48025865  0.62382683  1  0  0.104842  0.13677  0  1.0404  0
C  C44  1  0.81640712  0.05061266  0.91938858  1  0  -0.018298  -0.064693  0  3.948124  0
C  C45  1  0.94837968  0.99357597  0.96563864  1  0  -0.002796  -0.069212  0  3.875718  0
C  C46  1  0.06700177  0.94073323  0.89827518  1  0  -0.005724  0.034252  0  3.983558  0
C  C47  1  0.05110702  0.94560471  0.78542064  1  0  -0.082293  -0.112912  0  3.964902  0
C  C48  1  0.92054923  0.00247829  0.73894753  1  0  -0.09193  -0.084508  0  4.006814  0
C  C49  1  0.80396292  0.05493215  0.80583038  1  0  -0.085091  -0.099763  0  3.986876  0
C  C50  1  0.68772752  0.10201820  0.99055850  1  0  0.211588  0.590566  0  4.169106  0
C  C51  1  0.21822907  0.21340685  0.47084477  1  0  -0.007162  0.067547  0  3.994662  0
C  C52  1  0.16900610  0.13977768  0.43759591  1  0  -0.068458  -0.105132  0  3.881612  0
C  C53  1  0.03745842  0.21486735  0.38595090  1  0  -0.017821  -0.030771  0  3.972204  0
C  C54  1  0.95577084  0.36497548  0.36542036  1  0  -0.078909  -0.111461  0  3.950563  0
C  C55  1  0.35394251  0.12649517  0.53495558  1  0  0.002304  0.05401  0  3.955912  0
C  C56  1  0.35661845  0.06485129  0.66354983  1  0  -0.084838  -0.127528  0  3.983263  0
C  C57  1  0.48077937  0.97793370  0.72871588  1  0  -0.09313  -0.079165  0  4.019937  0
C  C58  1  0.60471115  0.94804992  0.66511319  1  0  -0.083925  -0.093173  0  3.974594  0
C  C59  1  0.60510566  0.00757623  0.53661851  1  0  -0.018626  -0.063771  0  3.96405  0
C  C60  1  0.47925754  0.10044837  0.47112200  1  0  -0.000451  -0.067408  0  3.883885  0
C  C61  1  0.98362915  0.13516099  0.35242755  1  0  0.21141  0.595399  0  4.202989  0
C  C62  1  0.13588910  0.36401676  0.44940902  1  0  -0.077309  -0.125528  0  3.898662  0
C  C63  1  0.00434982  0.44025886  0.39654890  1  0  -0.023609  -0.042472  0  3.997341  0
C  C64  1  0.20624589  0.87568189  0.94901906  1  0  -0.010033  0.056246  0  4.012444  0
C  C65  1  0.30325531  0.73173225  0.95967735  1  0  -0.070926  -0.121204  0  3.906337  0
C  C66  1  0.24093025  0.95285094  0.99195661  1  0  -0.079645  -0.134044  0  3.909119  0
C  C67  1  0.96517417  0.98469819  0.08861203  1  0  0.204965  0.601476  0  4.240549  0
C  C68  1  0.48021378  0.17883053  0.33309715  1  0  0.210038  0.600655  0  4.205254  0
C  C69  1  0.91433847  0.60053498  0.37684306  1  0  0.209301  0.583895  0  4.21574  0
C  C70  1  0.36890859  0.88556017  0.04784016  1  0  -0.020808  -0.039101  0  3.984079  0
C  C71  1  0.46344004  0.74121223  0.05901205  1  0  -0.079928  -0.113082  0  3.945252  0
C  C72  1  0.43199378  0.66442107  0.01427829  1  0  -0.016809  -0.025383  0  3.968564  0
C  C73  1  0.40784570  0.96461631  0.09693086  1  0  0.211733  0.596312  0  4.199434  0
C  C74  1  0.74025274  0.96285797  0.47290933  1  0  0.207018  0.582715  0  4.167243  0
C  C75  1  0.53340202  0.50748958  0.03177531  1  0  0.206467  0.58887  0  4.212356  0
C  C76  1  0.61640905  0.66832054  0.54605649  1  0  0.16911  0.288084  0  4.115128  0
C  C77  1  0.66339611  0.46330391  0.74851938  1  0  -0.135016  -0.287952  0  3.899501  0
C  C78  1  0.42624859  0.67360005  0.68896789  1  0  -0.136626  -0.275688  0  3.855877  0
C  C79  1  0.32820121  0.64257194  0.41051662  1  0  0.183043  0.310669  0  4.063963  0
C  C80  1  0.57529036  0.50693955  0.38890830  1  0  -0.132553  -0.28151  0  3.886918  0
C  C81  1  0.44927346  0.38856551  0.56360404  1  0  -0.133307  -0.266295  0  3.867464  0
C  C82  1  0.09283105  0.53914288  0.10350348  1  0  0.173848  0.311387  0  4.102495  0
C  C83  1  0.00029711  0.39913065  0.06743274  1  0  -0.138823  -0.271238  0  3.866889  0
C  C84  1  0.85490993  0.66295667  0.03664405  1  0  -0.132972  -0.271437  0  3.905995  0
C  C85  1  0.22639978  0.38627224  0.83709247  1  0  0.172811  0.29261  0  4.10694  0
C  C86  1  0.04570301  0.63445156  0.73573882  1  0  -0.13745  -0.276264  0  3.882519  0
C  C87  1  0.05335872  0.41335842  0.72234474  1  0  -0.134576  -0.286973  0  3.905755  0
N  N88  1  0.56974737  0.60241678  0.65581998  1  0  -0.278314  0.041308  0  3.715687  0
N  N89  1  0.44621498  0.52001669  0.45445800  1  0  -0.278215  0.039167  0  3.716627  0
N  N90  1  0.98949244  0.53469541  0.06671882  1  0  -0.284898  0.019808  0  3.732288  0
N  N91  1  0.11446707  0.47432431  0.76552094  1  0  -0.284014  0.029856  0  3.742584  0
O  O92  1  0.06904724  0.00420994  0.36086770  1  0  -0.326745  -0.558401  0  2.289317  0
O  O93  1  0.85743132  0.20506821  0.31943915  1  0  -0.335257  -0.591089  0  2.307534  0
O  O94  1  0.70030727  0.06872027  0.10509622  1  0  -0.345062  -0.650748  0  2.447255  0
O  O95  1  0.57308699  0.17468507  0.93643922  1  0  -0.304539  -0.526437  0  2.242126  0
O  O96  1  0.00955267  0.85436851  0.17590098  1  0  -0.315509  -0.542423  0  2.251861  0
O  O97  1  0.93877534  0.10580181  0.09466712  1  0  -0.343863  -0.597594  0  2.268849  0
O  O98  1  0.44520422  0.13131235  0.27237426  1  0  -0.323687  -0.586643  0  2.377612  0
O  O99  1  0.51671116  0.28311110  0.28700971  1  0  -0.316571  -0.545364  0  2.202669  0
O  O100  1  0.81185120  0.67359872  0.30370263  1  0  -0.322952  -0.562066  0  2.282765  0
O  O101  1  0.94337031  0.64966883  0.43848371  1  0  -0.340355  -0.588679  0  2.32627  0
O  O102  1  0.85039945  0.90205285  0.53025142  1  0  -0.295062  -0.513818  0  2.225779  0
O  O103  1  0.50008957  0.43412637  0.99993439  1  0  -0.330629  -0.594008  0  2.365986  0
O  O104  1  0.32999785  0.10212814  0.07156136  1  0  -0.318802  -0.561377  0  2.275853  0
O  O105  1  0.51904121  0.88228061  0.16045212  1  0  -0.334845  -0.579956  0  2.311987  0
O  O106  1  0.65107830  0.45699166  0.07828460  1  0  -0.333642  -0.571476  0  2.251774  0
O  O107  1  0.74121928  0.98285473  0.35896790  1  0  -0.343604  -0.656769  0  2.482906  0
O  O108  1  0.21247220  0.65470849  0.45888215  1  0  -0.311956  -0.473836  0  2.339792  0
O  O109  1  0.54217424  0.79027639  0.46308939  1  0  -0.307712  -0.469683  0  2.34797  0
O  O110  1  0.21089217  0.43424548  0.13525944  1  0  -0.319515  -0.481841  0  2.37155  0
O  O111  1  0.27806712  0.43540744  0.87950208  1  0  -0.308785  -0.466125  0  2.34712  0
