# generated using pymatgen
data_CuH15C13SNO4
_symmetry_space_group_name_H-M   'P 1'
_cell_length_a   4.82462610
_cell_length_b   11.63217942
_cell_length_c   12.34194861
_cell_angle_alpha   96.07825309
_cell_angle_beta   89.99925596
_cell_angle_gamma   90.00033290
_symmetry_Int_Tables_number   1
_chemical_formula_structural   CuH15C13SNO4
_chemical_formula_sum   'Cu2 H30 C26 S2 N2 O8'
_cell_volume   688.74757791
_cell_formula_units_Z   2
loop_
 _symmetry_equiv_pos_site_id
 _symmetry_equiv_pos_as_xyz
  1  'x, y, z'
loop_
 _atom_site_type_symbol
 _atom_site_label
 _atom_site_symmetry_multiplicity
 _atom_site_fract_x
 _atom_site_fract_y
 _atom_site_fract_z
 _atom_site_occupancy
 _atom_site_hle17_ddec_charge
 _atom_site_hle17_ddec_spin_density
 _atom_site_hle17_ddec_sum_bond_order
 _atom_site_hle17_magmom
 _atom_site_hse06_10hf_ddec_charge
 _atom_site_hse06_10hf_ddec_spin_density
 _atom_site_hse06_10hf_ddec_sum_bond_order
 _atom_site_hse06_10hf_magmom
 _atom_site_hse06_ddec_charge
 _atom_site_hse06_ddec_spin_density
 _atom_site_hse06_ddec_sum_bond_order
 _atom_site_hse06_magmom
 _atom_site_pbe_cm5_charge
 _atom_site_pbe_ddec_charge
 _atom_site_pbe_ddec_spin_density
 _atom_site_pbe_ddec_sum_bond_order
 _atom_site_pbe_magmom
Cu  Cu0  1  0.73846474  0.90860883  0.92611571  1  0.914983  0.672295  1.764544  0.495  0.907695  0.767634  2.151206  0.615  0.998817  0.832543  2.080792  0.699  0.749282  0.850567  0.72225  2.202558  0.56
Cu  Cu1  1  0.23845934  0.09139516  0.07387996  1  0.915085  0.672383  1.764538  0.495  0.907675  0.767679  2.151263  0.615  0.998903  0.83254  2.080804  0.699  0.749276  0.850505  0.722256  2.202676  0.56
H  H2  1  0.40767881  0.63479713  0.05529500  1  0.089163  -4.9e-05  0.939543  0.0  0.107157  2e-05  0.999591  0.0  0.108186  2e-05  0.998317  0.0  0.098579  0.106402  7e-06  1.000517  0.0
H  H3  1  0.90769014  0.36519847  0.94471193  1  0.089192  -5.1e-05  0.93957  0.0  0.107229  1.9e-05  0.999573  0.0  0.108261  2.1e-05  0.998292  0.0  0.098606  0.106472  7e-06  1.000498  0.0
H  H4  1  0.07283723  0.60507526  0.10885370  1  0.079755  0.000695  0.950536  0.001  0.095508  0.000272  1.019013  0.0  0.09454  0.000103  1.020494  0.0  0.091788  0.096293  0.000492  1.017899  0.001
H  H5  1  0.57285911  0.39492492  0.89115617  1  0.079807  0.000696  0.950428  0.001  0.095582  0.000272  1.018892  0.0  0.094614  0.000103  1.020375  0.0  0.091784  0.096365  0.000492  1.017774  0.001
H  H6  1  0.15437885  0.74857190  0.07527929  1  0.102757  0.000711  0.953793  0.001  0.111326  0.000174  1.027429  0.0  0.111958  -5e-06  1.025766  0.0  0.093447  0.11077  0.000426  1.028779  0.001
H  H7  1  0.65438712  0.25142154  0.92472219  1  0.102776  0.000711  0.953748  0.001  0.111347  0.000174  1.027391  0.0  0.111982  -5e-06  1.025732  0.0  0.093416  0.110786  0.000426  1.028738  0.001
H  H8  1  0.03106392  0.46511245  0.78939696  1  0.099612  0.000614  0.965402  0.001  0.109186  0.000397  1.031177  0.001  0.111836  0.000224  1.029184  0.0  0.102853  0.107167  0.000551  1.032796  0.001
H  H9  1  0.53100107  0.53487469  0.21061420  1  0.099755  0.000614  0.965247  0.001  0.109212  0.000397  1.031117  0.001  0.111916  0.000224  1.029071  0.0  0.10282  0.107195  0.000551  1.032737  0.001
H  H10  1  0.68219015  0.58816519  0.59077420  1  0.080549  0.000303  0.967319  0.0  0.089876  0.00032  1.035232  0.0  0.092367  0.000193  1.033623  0.0  0.092085  0.088095  0.000435  1.036362  0.0
H  H11  1  0.18215941  0.41183868  0.40922579  1  0.08057  0.0003  0.96737  0.0  0.089948  0.00032  1.035218  0.0  0.092434  0.000192  1.033636  0.0  0.092139  0.088164  0.000435  1.03635  0.0
H  H12  1  0.30599580  0.44477281  0.61546355  1  0.082869  -0.000158  0.974132  0.0  0.094033  1.3e-05  1.037604  0.0  0.096078  7e-06  1.038129  0.0  0.091332  0.092538  2.5e-05  1.037433  0.0
H  H13  1  0.80594600  0.55522261  0.38454224  1  0.082801  -0.000157  0.974071  0.0  0.093957  1.3e-05  1.037572  0.0  0.096003  7e-06  1.038094  0.0  0.091282  0.09246  2.5e-05  1.037397  0.0
H  H14  1  0.93197348  0.74914276  0.64575539  1  0.067708  0.008869  0.929195  0.011  0.078819  0.006197  0.997378  0.007  0.078935  0.004436  0.99417  0.005  0.114437  0.078133  0.00742  1.000179  0.008
H  H15  1  0.43194432  0.25086675  0.35423988  1  0.067763  0.008866  0.929229  0.011  0.078841  0.006196  0.997457  0.007  0.078988  0.004435  0.994164  0.005  0.114435  0.078157  0.007419  1.000255  0.008
H  H16  1  0.27067869  0.89156882  0.70828393  1  0.073467  0.002945  0.925445  0.003  0.082882  0.002229  0.990541  0.002  0.083772  0.001633  0.991415  0.002  0.111363  0.082087  0.002635  0.990125  0.003
H  H17  1  0.77064416  0.10843610  0.29171086  1  0.073502  0.002945  0.925261  0.003  0.082891  0.002229  0.990317  0.002  0.083762  0.001633  0.991229  0.002  0.111348  0.082102  0.002635  0.989899  0.003
H  H18  1  0.87799644  0.95854939  0.60152738  1  0.071425  2.8e-05  0.966771  0.0  0.087978  5e-05  1.036466  0.0  0.089208  1.7e-05  1.036239  0.0  0.085996  0.087155  8.2e-05  1.036562  0.0
H  H19  1  0.37795651  0.04144532  0.39847150  1  0.071361  2.7e-05  0.966792  0.0  0.087904  5e-05  1.036496  0.0  0.089133  1.7e-05  1.036271  0.0  0.085959  0.087078  8.2e-05  1.036588  0.0
H  H20  1  0.78693644  0.06315372  0.71059797  1  0.10011  0.000124  0.939729  0.0  0.11934  0.000159  0.993891  0.0  0.120541  9.5e-05  0.994386  0.0  0.098058  0.118234  0.000228  0.99379  0.0
H  H21  1  0.28691951  0.93683737  0.28940261  1  0.099972  0.000123  0.939791  0.0  0.119262  0.000158  0.993886  0.0  0.120455  9.5e-05  0.994394  0.0  0.097984  0.118158  0.000228  0.993783  0.0
H  H22  1  0.34218069  0.05122723  0.58532161  1  0.083866  6.2e-05  0.954738  0.0  0.096983  8.9e-05  1.025862  0.0  0.098044  6.1e-05  1.025804  0.0  0.091616  0.096164  0.000116  1.026069  0.0
H  H23  1  0.84214599  0.94879078  0.41467579  1  0.083914  6.2e-05  0.95471  0.0  0.096979  8.9e-05  1.025933  0.0  0.098041  6.1e-05  1.025873  0.0  0.09164  0.096166  0.000116  1.026135  0.0
H  H24  1  0.25406924  0.16028684  0.69086377  1  0.092304  7e-05  0.945503  0.0  0.113187  5e-05  0.995785  0.0  0.11439  4e-05  0.995603  0.0  0.097236  0.112195  6.8e-05  0.99612  0.0
H  H25  1  0.75406969  0.83972497  0.30912938  1  0.092351  7e-05  0.945425  0.0  0.113287  5.1e-05  0.995674  0.0  0.114492  4e-05  0.995491  0.0  0.097296  0.112297  6.9e-05  0.996022  0.0
H  H26  1  0.61146655  0.24474067  0.62495232  1  0.11229  1.9e-05  0.982217  0.0  0.128394  1.2e-05  1.04897  0.0  0.129733  3e-06  1.049173  0.0  0.086968  0.127357  2.4e-05  1.048954  0.0
H  H27  1  0.11145857  0.75526220  0.37505034  1  0.112381  1.7e-05  0.982242  0.0  0.128476  1.2e-05  1.048999  0.0  0.129816  4e-06  1.049201  0.0  0.087006  0.127435  2.4e-05  1.048989  0.0
H  H28  1  0.76322747  0.35466440  0.55391853  1  0.117364  6.9e-05  0.953316  0.0  0.141287  7.1e-05  1.011108  0.0  0.142087  4.1e-05  1.011897  0.0  0.09372  0.14077  0.000101  1.010545  0.0
H  H29  1  0.26321962  0.64533446  0.44607324  1  0.11734  7e-05  0.953347  0.0  0.141323  7.1e-05  1.011054  0.0  0.142125  4.2e-05  1.011841  0.0  0.093724  0.140806  0.000101  1.010491  0.0
H  H30  1  0.91694894  0.31877857  0.67736052  1  0.120592  2.8e-05  0.9538  0.0  0.146097  1.6e-05  1.003738  0.0  0.147165  8e-06  1.00443  0.0  0.096425  0.145273  2.5e-05  1.003338  0.0
H  H31  1  0.41693544  0.68123092  0.32263483  1  0.120574  2.8e-05  0.953818  0.0  0.146045  1.6e-05  1.003797  0.0  0.14711  8e-06  1.004497  0.0  0.096401  0.145223  2.5e-05  1.003399  0.0
C  C32  1  0.18610950  0.65573548  0.05303392  1  -0.071171  0.000485  3.605423  0.0  -0.164505  0.00071  3.86756  0.0  -0.156137  0.00034  3.870515  0.0  -0.147371  -0.170086  0.001159  3.865318  0.001
C  C33  1  0.68612252  0.34425800  0.94697065  1  -0.071299  0.000486  3.605243  0.0  -0.164724  0.000711  3.867368  0.0  -0.156361  0.000339  3.870315  0.0  -0.147359  -0.170295  0.001159  3.865118  0.001
C  C34  1  0.24178278  0.61526163  0.85767277  1  0.152774  0.020105  3.774989  0.021  0.140997  0.008086  4.03874  0.01  0.143699  0.005602  4.055159  0.007  0.071944  0.138618  0.010053  4.027637  0.012
C  C35  1  0.74176358  0.38473110  0.14232658  1  0.152615  0.020086  3.775209  0.021  0.140934  0.008084  4.038774  0.01  0.143638  0.005601  4.055205  0.007  0.072001  0.138548  0.010053  4.027694  0.012
C  C36  1  0.19511876  0.52623457  0.77558562  1  -0.148643  -0.006733  3.789382  -0.003  -0.176604  -0.001355  4.053725  0.0  -0.175313  -0.002346  4.072164  -0.001  -0.101646  -0.177324  -0.000201  4.041631  0.001
C  C37  1  0.69506284  0.47375975  0.22443114  1  -0.148843  -0.006703  3.789301  -0.003  -0.176699  -0.001354  4.053532  0.0  -0.17546  -0.002346  4.071949  -0.001  -0.101589  -0.177413  -0.0002  4.041443  0.001
C  C38  1  0.55513454  0.59511904  0.66434276  1  -0.104885  -0.002464  3.817287  -0.002  -0.131752  -0.001742  4.078072  -0.001  -0.129231  -0.002451  4.101949  -0.001  -0.105692  -0.132939  -0.000704  4.061698  0.0
C  C39  1  0.05508133  0.40487852  0.33566693  1  -0.104909  -0.002432  3.817072  -0.002  -0.131828  -0.001741  4.077877  -0.001  -0.129315  -0.002451  4.10174  -0.001  -0.1057  -0.133017  -0.000702  4.061513  0.0
C  C40  1  0.34839647  0.51591253  0.67809869  1  -0.112903  0.004605  3.859135  0.004  -0.129203  -0.000519  4.122522  0.0  -0.136442  -0.000226  4.148376  0.0  -0.123277  -0.124612  -0.000637  4.105193  0.0
C  C41  1  0.84833325  0.48406913  0.32190466  1  -0.112725  0.00458  3.859223  0.004  -0.129034  -0.000518  4.122585  0.0  -0.136271  -0.000225  4.148462  0.0  -0.123279  -0.124446  -0.000637  4.105255  0.0
C  C42  1  0.60726846  0.68855965  0.74526532  1  -0.106442  0.008874  3.831624  0.012  -0.094319  0.004078  4.080004  0.007  -0.111039  0.002429  4.108899  0.005  -0.041091  -0.083445  0.005511  4.060487  0.008
C  C43  1  0.10724150  0.31143545  0.25473251  1  -0.106411  0.008858  3.831789  0.012  -0.094271  0.004074  4.080191  0.007  -0.110985  0.002428  4.109078  0.005  -0.041013  -0.083396  0.005509  4.06068  0.008
C  C44  1  0.44506159  0.70282089  0.84328973  1  0.246243  -0.00758  3.817361  -0.009  0.234321  -0.00185  4.084252  -0.003  0.255557  -0.003153  4.101712  -0.003  0.090077  0.220597  -0.000227  4.072108  -0.003
C  C45  1  0.94504891  0.29717998  0.15671350  1  0.246227  -0.007564  3.817755  -0.009  0.23424  -0.001847  4.084678  -0.003  0.255472  -0.003151  4.102138  -0.003  0.089909  0.220522  -0.000225  4.072528  -0.003
C  C46  1  0.82092121  0.76836077  0.72338635  1  0.166886  -0.02737  3.724652  -0.018  0.126151  -0.009843  3.992193  -0.006  0.150551  -0.01225  4.001164  -0.008  0.075461  0.109993  -0.007554  3.986653  -0.005
C  C47  1  0.32089855  0.23164335  0.27661135  1  0.166582  -0.027358  3.724922  -0.018  0.125921  -0.009843  3.992475  -0.006  0.150332  -0.01225  4.001459  -0.008  0.07531  0.109763  -0.007553  3.986936  -0.005
C  C48  1  0.21329758  0.01428176  0.84828945  1  0.639215  -0.006947  3.826008  -0.006  0.594398  -0.001501  4.128894  -0.001  0.631395  -0.001895  4.119474  -0.001  0.211793  0.569383  -0.001103  4.133876  -0.001
C  C49  1  0.71325783  0.98572653  0.15170273  1  0.639605  -0.006952  3.825398  -0.006  0.594557  -0.001504  4.12857  -0.001  0.631562  -0.001896  4.119137  -0.001  0.211768  0.569534  -0.001105  4.133588  -0.001
C  C50  1  0.09687420  0.93990584  0.74943017  1  0.015517  0.007614  3.640658  0.007  0.00414  0.006227  3.875564  0.005  0.003303  0.004205  3.890987  0.003  0.00639  0.004994  0.007645  3.865354  0.007
C  C51  1  0.59684659  0.06009443  0.25056744  1  0.015202  0.007618  3.640853  0.007  0.00405  0.006226  3.875687  0.005  0.003216  0.004206  3.891107  0.003  0.006413  0.004894  0.007646  3.865506  0.007
C  C52  1  0.96261259  0.01712237  0.66924546  1  -0.138272  0.000542  3.644418  0.0  -0.181121  0.0005  3.891254  0.0  -0.182896  0.000427  3.905033  0.0  -0.164593  -0.17956  0.000588  3.88176  0.0
C  C53  1  0.46258457  0.98287509  0.33075166  1  -0.137933  0.000543  3.644288  0.0  -0.180753  0.000501  3.890973  0.0  -0.182527  0.000427  3.904761  0.0  -0.164361  -0.179181  0.000588  3.881472  0.0
C  C54  1  0.16768395  0.09989041  0.62506734  1  -0.146953  0.000313  3.691758  0.0  -0.183321  0.000307  3.955732  0.0  -0.183243  0.000189  3.967702  0.0  -0.157085  -0.183473  0.000439  3.947647  0.0
C  C55  1  0.66767061  0.90011691  0.37492902  1  -0.147111  0.000311  3.691659  0.0  -0.183586  0.000307  3.955824  0.0  -0.183503  0.000189  3.967786  0.0  -0.157282  -0.183752  0.00044  3.947758  0.0
C  C56  1  0.80751556  0.28378571  0.60320884  1  -0.323666  4.4e-05  3.679266  0.0  -0.396522  9.2e-05  3.928717  0.0  -0.397598  5.5e-05  3.937625  0.0  -0.23253  -0.395671  0.000149  3.922509  0.0
C  C57  1  0.30751041  0.71622011  0.39679072  1  -0.323737  5e-05  3.679407  0.0  -0.396611  9.1e-05  3.928848  0.0  -0.397687  5.4e-05  3.93775  0.0  -0.232543  -0.39576  0.000149  3.922645  0.0
S  S58  1  0.02713449  0.18301833  0.52176674  1  -0.036168  0.001462  2.39253  0.002  -0.018133  0.001089  2.76129  0.001  -0.023257  0.000566  2.761126  0.001  -0.034997  -0.013826  0.001796  2.761241  0.002
S  S59  1  0.52713508  0.81698355  0.47823057  1  -0.036142  0.001461  2.392557  0.002  -0.018067  0.00109  2.761355  0.001  -0.023186  0.000566  2.761188  0.001  -0.034974  -0.01375  0.001796  2.761305  0.002
N  N60  1  0.88994587  0.86094697  0.78553397  1  -0.356604  0.09992  3.321339  0.127  -0.319681  0.069318  3.640732  0.094  -0.355564  0.057206  3.656908  0.083  -0.389202  -0.299205  0.074791  3.632682  0.096
N  N61  1  0.38991775  0.13905295  0.21446538  1  -0.356272  0.099904  3.3212  0.127  -0.319531  0.069315  3.640676  0.094  -0.355446  0.057207  3.656887  0.083  -0.389125  -0.299033  0.074788  3.632614  0.096
O  O62  1  0.43340631  0.06849572  0.84328849  1  -0.585723  0.007705  1.965087  0.012  -0.554584  0.004438  2.209786  0.008  -0.578679  0.000969  2.197185  0.004  -0.298869  -0.536977  0.008447  2.217566  0.013
O  O63  1  0.93340498  0.93150604  0.15670192  1  -0.585958  0.007706  1.964537  0.012  -0.554724  0.004438  2.209303  0.008  -0.578829  0.000967  2.196695  0.004  -0.298846  -0.537091  0.008447  2.21708  0.013
O  O64  1  0.06309586  0.01764289  0.93695528  1  -0.619371  0.080812  2.233814  0.111  -0.577424  0.06508  2.548439  0.095  -0.622263  0.054025  2.531871  0.085  -0.336591  -0.547949  0.071622  2.560776  0.1
O  O65  1  0.56309016  0.98236773  0.06303546  1  -0.619422  0.080791  2.233816  0.111  -0.577468  0.065067  2.548635  0.095  -0.6223  0.054017  2.532046  0.085  -0.336608  -0.547999  0.071603  2.561005  0.1
O  O66  1  0.46144359  0.79117593  0.91782581  1  -0.512007  0.127079  2.131685  0.173  -0.503613  0.079189  2.43813  0.119  -0.554152  0.057265  2.439968  0.094  -0.32174  -0.471583  0.092489  2.438016  0.131
O  O67  1  0.96144044  0.20882757  0.08217437  1  -0.512132  0.12708  2.131773  0.173  -0.503647  0.079193  2.438176  0.119  -0.55423  0.057269  2.440041  0.094  -0.321737  -0.471607  0.092496  2.438057  0.131
O  O68  1  0.07146552  0.62041404  0.94630297  1  -0.246671  0.004872  2.322445  0.006  -0.178959  -2.2e-05  2.567267  0.0  -0.196366  -0.000372  2.570975  0.0  -0.196168  -0.166124  0.000854  2.564169  0.001
O  O69  1  0.57145962  0.37957406  0.05369999  1  -0.246453  0.004869  2.322524  0.006  -0.178731  -2.3e-05  2.567289  0.0  -0.196137  -0.000372  2.571007  0.0  -0.196094  -0.165899  0.000853  2.564192  0.001
