# generated using pymatgen
data_Zn4H5C24S4N2O17F
_symmetry_space_group_name_H-M   'P 1'
_cell_length_a   19.62694419
_cell_length_b   19.61951429
_cell_length_c   33.34893786
_cell_angle_alpha   79.14338006
_cell_angle_beta   79.16777032
_cell_angle_gamma   63.86602910
_symmetry_Int_Tables_number   1
_chemical_formula_structural   Zn4H5C24S4N2O17F
_chemical_formula_sum   'Zn16 H20 C96 S16 N8 O68 F4'
_cell_volume   11241.98322966
_cell_formula_units_Z   4
loop_
 _symmetry_equiv_pos_site_id
 _symmetry_equiv_pos_as_xyz
  1  'x, y, z'
loop_
 _atom_site_type_symbol
 _atom_site_label
 _atom_site_symmetry_multiplicity
 _atom_site_fract_x
 _atom_site_fract_y
 _atom_site_fract_z
 _atom_site_occupancy
 _atom_site_pbe_bader_charge
 _atom_site_pbe_bader_spin_density
 _atom_site_pbe_cm5_charge
 _atom_site_pbe_ddec_charge
 _atom_site_pbe_ddec_spin_density
 _atom_site_pbe_ddec_sum_bond_order
 _atom_site_pbe_magmom
Zn  Zn0  1  0.05443142  0.40118419  0.47746513  1  1.314954  0  0.671742  0.971285  0  2.334121  0
Zn  Zn1  1  0.98765089  0.48330557  0.56022701  1  1.326382  0  0.689202  0.989417  0  2.330591  0
Zn  Zn2  1  0.05783111  0.56300319  0.48188568  1  1.324515  0  0.683921  0.984915  0  2.338065  0
Zn  Zn3  1  0.89998061  0.55421599  0.47958954  1  1.323361  0  0.682849  0.981068  0  2.345255  0
Zn  Zn4  1  0.69344453  0.34970217  0.27141043  1  1.317332  0  0.673135  0.968283  0  2.353799  0
Zn  Zn5  1  0.68861202  0.19022501  0.26540713  1  1.31005  0  0.672969  0.966527  0  2.368684  0
Zn  Zn6  1  0.77100103  0.26468713  0.18980321  1  1.324409  0  0.683847  0.983368  0  2.33321  0
Zn  Zn7  1  0.84717008  0.19573319  0.27349089  1  1.323142  0  0.679836  0.971503  0  2.359598  0
Zn  Zn8  1  0.26887973  0.76605053  0.68891269  1  1.305779  0  0.671651  0.959327  0  2.377872  0
Zn  Zn9  1  0.35051892  0.69590463  0.77077798  1  1.32335  0  0.681598  0.978271  0  2.345329  0
Zn  Zn10  1  0.19426142  0.84833283  0.77078010  1  1.319898  0  0.675851  0.972895  0  2.35692  0
Zn  Zn11  1  0.19211862  0.68695765  0.76503066  1  1.320324  0  0.681207  0.979632  0  2.329765  0
Zn  Zn12  1  0.56154993  0.05952873  0.98202867  1  1.314336  0  0.673836  0.965819  0  2.367059  0
Zn  Zn13  1  0.40121918  0.05485776  0.97799268  1  1.314983  0  0.672889  0.962683  0  2.364623  0
Zn  Zn14  1  0.55597769  0.90024809  0.97755129  1  1.317887  0  0.674726  0.968185  0  2.366824  0
Zn  Zn15  1  0.48499746  0.98312776  0.05978983  1  1.324232  0  0.672839  0.964578  0  2.368449  0
H  H16  1  0.94890391  0.24816873  0.35362274  1  0.111305  0  0.112924  0.123326  0  0.988362  0
H  H17  1  0.74591959  0.46027329  0.34909690  1  0.142446  0  0.120506  0.149751  0  0.975467  0
H  H18  1  0.99660514  0.29789285  0.40127419  1  0.088041  0  0.11355  0.11988  0  0.983671  0
H  H19  1  0.10379010  0.59102679  0.69828162  1  0.111025  0  0.114556  0.124889  0  0.984333  0
H  H20  1  0.20295805  0.70249132  0.59631744  1  0.107929  0  0.118421  0.147503  0  0.980077  0
H  H21  1  0.05251384  0.54938643  0.64856297  1  0.107736  0  0.118419  0.128337  0  0.975058  0
H  H22  1  0.46281986  0.23821424  0.34232471  1  0.128781  0  0.123922  0.15022  0  0.96653  0
H  H23  1  0.48396978  0.70311735  0.60055006  1  0.124659  0  0.123185  0.1489  0  0.968265  0
H  H24  1  0.20332657  0.97922026  0.60063437  1  0.117904  0  0.123396  0.149554  0  0.967214  0
H  H25  1  0.95193059  0.96439234  0.34355401  1  0.145256  0  0.126545  0.154336  0  0.961175  0
H  H26  1  0.54912928  0.05369241  0.15148986  1  0.104406  0  0.111499  0.120959  0  0.988847  0
H  H27  1  0.65321716  0.15498613  0.04683312  1  0.122794  0  0.120546  0.149996  0  0.975353  0
H  H28  1  0.59674913  0.10509053  0.19823722  1  0.10977  0  0.113331  0.120812  0  0.985799  0
H  H29  1  0.54604823  0.76928043  0.14843394  1  0.107303  0  0.124456  0.150977  0  0.965631  0
H  H30  1  0.16155558  0.14193872  0.04193322  1  0.127333  0  0.12497  0.151446  0  0.965237  0
H  H31  1  0.50055184  0.79191043  0.89982237  1  0.112439  0  0.114359  0.124394  0  0.983835  0
H  H32  1  0.29476593  0.00156612  0.90023629  1  0.158363  0  0.118611  0.147855  0  0.978533  0
H  H33  1  0.44966345  0.74671169  0.85162486  1  0.121543  0  0.118216  0.128142  0  0.978158  0
H  H34  1  0.29804167  0.28315867  0.90317973  1  0.106249  0  0.124307  0.150122  0  0.96629  0
H  H35  1  0.78743367  0.00952105  0.90638368  1  0.110431  0  0.124954  0.151334  0  0.964582  0
C  C36  1  0.06433581  0.31743766  0.55984912  1  1.625226  0  0.221586  0.619072  0  4.212077  0
C  C37  1  0.07014796  0.57198245  0.56683306  1  1.564076  0  0.231847  0.623929  0  4.158956  0
C  C38  1  0.18001500  0.44079994  0.43769106  1  1.619028  0  0.222262  0.618821  0  4.21041  0
C  C39  1  0.93531442  0.68252198  0.43859759  1  1.629322  0  0.222503  0.616833  0  4.211902  0
C  C40  1  0.92818720  0.43093912  0.43217827  1  1.578224  0  0.230344  0.627446  0  4.157684  0
C  C41  1  0.82188606  0.55948465  0.56251890  1  1.628606  0  0.223472  0.616268  0  4.209792  0
C  C42  1  0.56564875  0.30985122  0.31175495  1  1.587551  0  0.220131  0.613075  0  4.214458  0
C  C43  1  0.67811191  0.18724253  0.17893279  1  1.570292  0  0.230092  0.621692  0  4.160882  0
C  C44  1  0.69409657  0.43122383  0.18869102  1  1.619108  0  0.222024  0.617005  0  4.212546  0
C  C45  1  0.93540860  0.18445735  0.19157397  1  1.60378  0  0.222017  0.616732  0  4.212226  0
C  C46  1  0.81553566  0.32167153  0.32031653  1  1.57136  0  0.23144  0.604596  0  4.159928  0
C  C47  1  0.81251995  0.06426970  0.30889907  1  1.561279  0  0.221187  0.612782  0  4.211887  0
C  C48  1  0.43598396  0.69196542  0.68759408  1  1.565466  0  0.220135  0.612907  0  4.213715  0
C  C49  1  0.31850629  0.81886805  0.81891119  1  1.585459  0  0.230092  0.62142  0  4.164584  0
C  C50  1  0.18627287  0.93356495  0.68753475  1  1.57267  0  0.220352  0.613588  0  4.213704  0
C  C51  1  0.06766781  0.80919514  0.80873521  1  1.638204  0  0.222099  0.618545  0  4.212779  0
C  C52  1  0.18725420  0.67513611  0.67941195  1  1.561866  0  0.23238  0.607754  0  4.153339  0
C  C53  1  0.31070449  0.56895607  0.81127097  1  1.61446  0  0.222291  0.616407  0  4.21428  0
C  C54  1  0.43762271  0.18402475  0.93799030  1  1.590475  0  0.219203  0.611627  0  4.213146  0
C  C55  1  0.43020269  0.92810505  0.93149116  1  1.556178  0  0.231727  0.606668  0  4.157269  0
C  C56  1  0.68476100  0.93808393  0.93712581  1  1.572516  0  0.220437  0.614224  0  4.211262  0
C  C57  1  0.56293977  0.81568317  0.06142838  1  1.608213  0  0.220309  0.612041  0  4.214934  0
C  C58  1  0.57054495  0.07044455  0.06801509  1  1.550879  0  0.231215  0.60454  0  4.158901  0
C  C59  1  0.31662438  0.06280382  0.06139988  1  1.570429  0  0.219414  0.611566  0  4.215345  0
C  C60  1  0.89823170  0.40519005  0.40273254  1  -0.062995  0  -0.018709  -0.146341  0  3.948121  0
C  C61  1  0.84444431  0.35077540  0.34870883  1  -0.096856  0  -0.007962  0.002076  0  3.978593  0
C  C62  1  0.82768824  0.45002756  0.38731054  1  0.48276  0  0.114177  0.290711  0  4.026992  0
C  C63  1  0.91535499  0.30485608  0.36330307  1  0.036899  0  -0.084833  -0.113675  0  3.974895  0
C  C64  1  0.80066215  0.42394010  0.36054857  1  0.051709  0  -0.088394  -0.222661  0  3.954639  0
C  C65  1  0.94160745  0.33235266  0.38970308  1  0.048877  0  -0.074205  -0.062603  0  3.971463  0
C  C66  1  0.10007062  0.60043740  0.59493489  1  0.051567  0  -0.018333  -0.145931  0  3.94667  0
C  C67  1  0.15698380  0.64869383  0.65039427  1  0.022843  0  -0.008203  -0.000308  0  3.980963  0
C  C68  1  0.14253109  0.64413207  0.58103500  1  0.491578  0  0.113461  0.289143  0  4.032626  0
C  C69  1  0.11444994  0.60552921  0.66525787  1  0.016985  0  -0.082692  -0.110737  0  3.971329  0
C  C70  1  0.17066564  0.66839539  0.60809390  1  -0.008087  0  -0.089699  -0.22464  0  3.965346  0
C  C71  1  0.08622697  0.58238351  0.63770112  1  -0.079536  0  -0.069864  -0.058441  0  3.956311  0
C  C72  1  0.30505733  0.45433723  0.40228600  1  0.32887  0  0.07884  0.030588  0  3.935135  0
C  C73  1  0.44590170  0.29550046  0.34983626  1  0.041435  0  -0.086364  -0.13172  0  3.958668  0
C  C74  1  0.25806532  0.41600832  0.41529942  1  -0.136072  0  -0.00658  -0.149455  0  3.903837  0
C  C75  1  0.49075898  0.33548038  0.33704421  1  -0.174154  0  -0.021847  -0.118696  0  3.96839  0
C  C76  1  0.37762367  0.33965035  0.37325286  1  -0.15676  0  -0.018605  -0.004033  0  4.06782  0
C  C77  1  0.37251916  0.41191658  0.37762992  1  -0.151943  0  -0.016515  -0.068231  0  4.079665  0
C  C78  1  0.72980857  0.57909990  0.63150305  1  0.340095  0  0.079628  0.031092  0  3.935463  0
C  C79  1  0.52800744  0.67450888  0.62110143  1  0.05761  0  -0.087541  -0.132475  0  3.963446  0
C  C80  1  0.74792147  0.58730950  0.58894003  1  -0.160625  0  -0.005273  -0.149536  0  3.907685  0
C  C81  1  0.51187825  0.66568425  0.66345595  1  -0.190223  0  -0.022312  -0.121477  0  3.974208  0
C  C82  1  0.60780686  0.64188691  0.60957559  1  -0.190171  0  -0.018064  -0.005202  0  4.070322  0
C  C83  1  0.65004300  0.60887545  0.64350513  1  -0.083248  0  -0.015896  -0.068761  0  4.080765  0
C  C84  1  0.07169502  0.22655041  0.62861036  1  0.342228  0  0.078455  0.028706  0  3.937392  0
C  C85  1  0.17315537  0.02404449  0.62062471  1  0.052063  0  -0.087499  -0.133275  0  3.963015  0
C  C86  1  0.08301724  0.24333347  0.58608811  1  -0.1047  0  -0.007829  -0.150262  0  3.912213  0
C  C87  1  0.16118393  0.00918105  0.66294645  1  -0.157221  0  -0.020889  -0.117712  0  3.969943  0
C  C88  1  0.14095592  0.10364566  0.60832913  1  -0.171241  0  -0.018802  -0.004422  0  4.070963  0
C  C89  1  0.10564360  0.14715326  0.64164697  1  -0.160529  0  -0.015671  -0.067171  0  4.075558  0
C  C90  1  0.83765023  0.80355306  0.39850747  1  0.325497  0  0.078024  0.027968  0  3.93865  0
C  C91  1  0.90578732  0.94606705  0.34905044  1  -0.038158  0  -0.083609  -0.126859  0  3.949196  0
C  C92  1  0.90673707  0.75913029  0.41456677  1  -0.140059  0  -0.005143  -0.147993  0  3.906179  0
C  C93  1  0.83645649  0.98895964  0.33369358  1  -0.099851  0  -0.022134  -0.119193  0  3.971137  0
C  C94  1  0.90634208  0.87764404  0.37211144  1  -0.158882  0  -0.018203  -0.007907  0  4.067762  0
C  C95  1  0.83746630  0.87046989  0.37361962  1  -0.099802  0  -0.016481  -0.066763  0  4.082475  0
C  C96  1  0.65096623  0.15873871  0.14938062  1  0.066858  0  -0.018966  -0.14464  0  3.940383  0
C  C97  1  0.59815615  0.10102988  0.09635612  1  -0.029786  0  -0.008049  0.000658  0  3.977759  0
C  C98  1  0.66612502  0.17185220  0.10635007  1  0.463554  0  0.115498  0.289862  0  4.024995  0
C  C99  1  0.58209063  0.08696389  0.13912612  1  0.036234  0  -0.085605  -0.112979  0  3.979408  0
C  C100  1  0.64036532  0.14370078  0.07995629  1  0.04803  0  -0.087624  -0.220203  0  3.951621  0
C  C101  1  0.60836927  0.11554624  0.16495065  1  -0.092575  0  -0.074858  -0.064789  0  3.975068  0
C  C102  1  0.67552395  0.52236036  0.11936557  1  0.329178  0  0.079271  0.030899  0  3.936975  0
C  C103  1  0.57668765  0.72471553  0.12831690  1  0.082734  0  -0.086027  -0.131838  0  3.95659  0
C  C104  1  0.66574270  0.50490302  0.16193972  1  -0.1144  0  -0.00733  -0.151466  0  3.908558  0
C  C105  1  0.58828396  0.74002225  0.08599013  1  -0.208547  0  -0.021213  -0.117801  0  3.969446  0
C  C106  1  0.60978731  0.64501412  0.14038158  1  -0.115017  0  -0.018468  -0.004865  0  4.06573  0
C  C107  1  0.64531066  0.60202057  0.10687569  1  -0.166795  0  -0.015995  -0.067913  0  4.077733  0
C  C108  1  0.08492178  0.11652728  0.17975155  1  0.323765  0  0.079228  0.030906  0  3.938481  0
C  C109  1  0.17052399  0.12475896  0.07415971  1  -0.01894  0  -0.085536  -0.130738  0  3.956689  0
C  C110  1  0.01188119  0.15516612  0.16750121  1  -0.115497  0  -0.00682  -0.152871  0  3.908666  0
C  C111  1  0.24228410  0.08670049  0.08723160  1  -0.119264  0  -0.020999  -0.11686  0  3.966859  0
C  C112  1  0.11327072  0.13678951  0.10820366  1  -0.214464  0  -0.018115  -0.005665  0  4.066422  0
C  C113  1  0.14306863  0.10730160  0.14623677  1  -0.122392  0  -0.017144  -0.068976  0  4.079853  0
C  C114  1  0.34504067  0.84803511  0.84841658  1  0.046379  0  -0.018086  -0.144569  0  3.941472  0
C  C115  1  0.40103122  0.89951308  0.90294948  1  -0.02949  0  -0.009188  -0.001983  0  3.978678  0
C  C116  1  0.30232065  0.91975637  0.86291979  1  0.406103  0  0.113084  0.289251  0  4.026883  0
C  C117  1  0.44482634  0.82743897  0.88931442  1  0.059021  0  -0.081919  -0.108742  0  3.966457  0
C  C118  1  0.32930872  0.94565853  0.88975635  1  -0.013799  0  -0.090147  -0.224106  0  3.961199  0
C  C119  1  0.41669365  0.80250909  0.86253811  1  -0.040574  0  -0.071181  -0.060811  0  3.957284  0
C  C120  1  0.40430941  0.45298774  0.85592642  1  0.28225  0  0.079009  0.030417  0  3.935826  0
C  C121  1  0.34315280  0.30273928  0.89865813  1  0.07304  0  -0.085913  -0.129936  0  3.957707  0
C  C122  1  0.33570993  0.49640088  0.83917595  1  -0.097867  0  -0.006269  -0.152474  0  3.905652  0
C  C123  1  0.41255834  0.26021463  0.91402966  1  -0.161023  0  -0.02239  -0.119641  0  3.971056  0
C  C124  1  0.34093821  0.37266663  0.87688885  1  -0.202762  0  -0.017715  -0.005839  0  4.064405  0
C  C125  1  0.40854015  0.38160014  0.87658100  1  -0.101137  0  -0.015684  -0.067825  0  4.080962  0
C  C126  1  0.94859010  0.79058813  0.84990784  1  0.311388  0  0.079143  0.031127  0  3.937286  0
C  C127  1  0.80443196  0.95209249  0.89906376  1  0.021673  0  -0.085528  -0.12904  0  3.956194  0
C  C128  1  0.99443586  0.82991643  0.83592818  1  -0.122344  0  -0.00744  -0.152812  0  3.910818  0
C  C129  1  0.75984694  0.91187746  0.91212559  1  -0.14566  0  -0.021712  -0.121012  0  3.972357  0
C  C130  1  0.87269278  0.90797367  0.87564565  1  -0.149409  0  -0.018073  -0.005852  0  4.069059  0
C  C131  1  0.87830151  0.83526022  0.87174494  1  -0.099862  0  -0.015704  -0.067553  0  4.07694  0
S  S132  1  0.29824418  0.32670578  0.39837588  1  0.324495  0  0.121118  0.176833  0  2.739413  0
S  S133  1  0.45066734  0.42640847  0.35279426  1  0.355099  0  0.110701  0.172722  0  2.793856  0
S  S134  1  0.66693278  0.63375509  0.56376603  1  0.328639  0  0.128247  0.188431  0  2.738162  0
S  S135  1  0.59244072  0.61714417  0.68949520  1  0.356496  0  0.115377  0.179778  0  2.791021  0
S  S136  1  0.13334868  0.16135160  0.56199968  1  0.31171  0  0.117678  0.172151  0  2.740422  0
S  S137  1  0.11220990  0.09081265  0.68806647  1  0.345894  0  0.113989  0.176373  0  2.781099  0
S  S138  1  0.97049064  0.80083059  0.40012824  1  0.322675  0  0.131084  0.190896  0  2.736844  0
S  S139  1  0.77235005  0.94661931  0.34636561  1  0.336027  0  0.106634  0.166878  0  2.798734  0
S  S140  1  0.61682672  0.58658312  0.18644457  1  0.329859  0  0.123801  0.181203  0  2.739379  0
S  S141  1  0.63955006  0.65882890  0.06066990  1  0.337386  0  0.11416  0.177351  0  2.789735  0
S  S142  1  0.01477499  0.17779207  0.11466643  1  0.365006  0  0.131811  0.192795  0  2.736268  0
S  S143  1  0.24105313  0.06611744  0.14048779  1  0.381483  0  0.108729  0.169713  0  2.79079  0
S  S144  1  0.27517417  0.45075663  0.85034498  1  0.331309  0  0.132253  0.19408  0  2.729683  0
S  S145  1  0.47541649  0.30403526  0.90215427  1  0.341909  0  0.110291  0.172087  0  2.792963  0
S  S146  1  0.95231608  0.92083153  0.85092363  1  0.323124  0  0.126629  0.185125  0  2.737851  0
S  S147  1  0.79945785  0.82135092  0.89590729  1  0.337317  0  0.113228  0.175782  0  2.783509  0
N  N148  1  0.29348283  0.52740825  0.41343806  1  0.394703  0  0.058995  0.528397  0  4.220134  0
N  N149  1  0.78263372  0.54942519  0.66253449  1  0.373031  0  0.060797  0.53005  0  4.217256  0
N  N150  1  0.02658380  0.28073023  0.65826083  1  0.366341  0  0.059786  0.529736  0  4.21764  0
N  N151  1  0.76865839  0.79025806  0.40718645  1  0.374531  0  0.059039  0.531355  0  4.213997  0
N  N152  1  0.70791903  0.46873501  0.08872407  1  0.369094  0  0.058753  0.527593  0  4.219988  0
N  N153  1  0.10441891  0.08297503  0.22115624  1  0.354324  0  0.057746  0.530988  0  4.219272  0
N  N154  1  0.46582024  0.47555559  0.85605844  1  0.384348  0  0.060221  0.531595  0  4.216672  0
N  N155  1  0.96839866  0.71086491  0.84645497  1  0.358716  0  0.059357  0.53119  0  4.219034  0
O  O156  1  0.00066608  0.49958865  0.49964654  1  -1.229185  0  -0.574509  -1.045951  0  2.528998  0
O  O157  1  0.06453766  0.31541585  0.52164455  1  -1.161851  0  -0.31583  -0.542061  0  2.300805  0
O  O158  1  0.02125252  0.54545349  0.58373278  1  -1.151697  0  -0.309478  -0.539803  0  2.326228  0
O  O159  1  0.14052575  0.51194336  0.43920350  1  -1.158694  0  -0.308914  -0.529943  0  2.343195  0
O  O160  1  0.05240762  0.37497467  0.57687902  1  -1.162725  0  -0.307782  -0.529142  0  2.343413  0
O  O161  1  0.15906073  0.38685042  0.45236734  1  -1.15655  0  -0.315236  -0.541219  0  2.303905  0
O  O162  1  0.09585348  0.57532204  0.52881144  1  -1.151661  0  -0.30997  -0.538854  0  2.354149  0
O  O163  1  0.99388922  0.66578143  0.45654955  1  -1.156734  0  -0.311924  -0.536583  0  2.30816  0
O  O164  1  0.88071821  0.48689503  0.45131091  1  -1.153672  0  -0.311596  -0.541249  0  2.352933  0
O  O165  1  0.90195159  0.64004432  0.43829138  1  -1.15551  0  -0.306514  -0.525509  0  2.341668  0
O  O166  1  0.99938667  0.39349613  0.43611243  1  -1.16832  0  -0.315389  -0.549381  0  2.311058  0
O  O167  1  0.87927998  0.50586344  0.57795794  1  -1.156064  0  -0.304582  -0.523138  0  2.348514  0
O  O168  1  0.81958351  0.59173821  0.52527120  1  -1.152982  0  -0.311842  -0.534964  0  2.313642  0
O  O169  1  0.74947091  0.25019258  0.25021578  1  -1.223896  0  -0.571691  -1.036912  0  2.526496  0
O  O170  1  0.59765037  0.35601838  0.30507779  1  -1.173401  0  -0.317336  -0.543233  0  2.333754  0
O  O171  1  0.66575404  0.16442030  0.21699227  1  -1.172338  0  -0.314695  -0.547553  0  2.333717  0
O  O172  1  0.74800413  0.37382237  0.17335597  1  -1.159349  0  -0.310058  -0.531051  0  2.344406  0
O  O173  1  0.59150966  0.24464641  0.29895130  1  -1.168471  0  -0.313651  -0.535525  0  2.307552  0
O  O174  1  0.66219851  0.43355541  0.22593463  1  -1.160359  0  -0.31383  -0.537947  0  2.312768  0
O  O175  1  0.71092501  0.23148576  0.16425787  1  -1.150173  0  -0.308356  -0.535044  0  2.359301  0
O  O176  1  0.87943527  0.20405486  0.17094387  1  -1.158281  0  -0.312225  -0.536759  0  2.307967  0
O  O177  1  0.85522093  0.25235018  0.31346390  1  -1.172984  0  -0.310378  -0.53924  0  2.341438  0
O  O178  1  0.93150112  0.19004326  0.22931223  1  -1.152462  0  -0.307009  -0.526479  0  2.34695  0
O  O179  1  0.75377100  0.36827073  0.30537849  1  -1.170791  0  -0.31277  -0.542561  0  2.326923  0
O  O180  1  0.74505913  0.09315501  0.29835326  1  -1.172038  0  -0.31776  -0.545806  0  2.335997  0
O  O181  1  0.86073929  0.09378143  0.30050693  1  -1.152776  0  -0.31193  -0.530459  0  2.310239  0
O  O182  1  0.25099426  0.74922499  0.74908571  1  -1.221192  0  -0.571638  -1.037176  0  2.525248  0
O  O183  1  0.37801938  0.72339769  0.66759920  1  -1.167507  0  -0.314763  -0.536648  0  2.309227  0
O  O184  1  0.35925942  0.74936464  0.81215632  1  -1.164346  0  -0.309564  -0.53919  0  2.324346  0
O  O185  1  0.16563345  0.93340257  0.72629418  1  -1.159598  0  -0.316337  -0.54259  0  2.328959  0
O  O186  1  0.43554795  0.68088360  0.72668012  1  -1.150462  0  -0.316183  -0.541836  0  2.333157  0
O  O187  1  0.22589729  0.87564890  0.66804955  1  -1.163996  0  -0.314031  -0.535646  0  2.311086  0
O  O188  1  0.25849805  0.86512858  0.80262672  1  -1.164751  0  -0.312487  -0.541569  0  2.366346  0
O  O189  1  0.10241056  0.85146588  0.80819107  1  -1.168431  0  -0.312694  -0.537436  0  2.310457  0
O  O190  1  0.17809812  0.65123448  0.71751866  1  -1.164844  0  -0.311394  -0.542208  0  2.327258  0
O  O191  1  0.08814215  0.75423336  0.78777883  1  -1.163226  0  -0.308672  -0.52903  0  2.344891  0
O  O192  1  0.21962392  0.71953430  0.66363598  1  -1.171011  0  -0.313531  -0.543114  0  2.339741  0
O  O193  1  0.36136567  0.59152361  0.79326766  1  -1.15681  0  -0.30778  -0.52817  0  2.353451  0
O  O194  1  0.23937501  0.60080853  0.80691665  1  -1.145273  0  -0.310491  -0.533276  0  2.306518  0
O  O195  1  0.50070113  0.99949820  0.99942751  1  -1.23715  0  -0.570199  -1.031095  0  2.525047  0
O  O196  1  0.50513341  0.15553804  0.94847129  1  -1.17426  0  -0.317587  -0.544874  0  2.335429  0
O  O197  1  0.38702619  0.99449113  0.94219912  1  -1.167187  0  -0.314166  -0.545319  0  2.337556  0
O  O198  1  0.65255401  0.89203897  0.94432293  1  -1.150631  0  -0.316462  -0.543035  0  2.33052  0
O  O199  1  0.39023101  0.15353836  0.94612889  1  -1.162467  0  -0.314379  -0.535625  0  2.30869  0
O  O200  1  0.65890103  0.00378659  0.94937203  1  -1.170003  0  -0.314165  -0.536104  0  2.310735  0
O  O201  1  0.49583288  0.88384616  0.94273606  1  -1.171546  0  -0.310133  -0.538888  0  2.338005  0
O  O202  1  0.58075789  0.81563647  0.02251543  1  -1.177267  0  -0.315362  -0.541606  0  2.334822  0
O  O203  1  0.53399919  0.03028198  0.08477223  1  -1.170119  0  -0.311955  -0.541859  0  2.337676  0
O  O204  1  0.52575378  0.87385527  0.08102254  1  -1.172696  0  -0.315018  -0.535997  0  2.308076  0
O  O205  1  0.58588130  0.08698123  0.02951512  1  -1.161839  0  -0.311784  -0.54075  0  2.334995  0
O  O206  1  0.31542317  0.07781758  0.02254610  1  -1.141479  0  -0.313446  -0.534805  0  2.307214  0
O  O207  1  0.37563624  0.02869236  0.08067585  1  -1.177225  0  -0.316836  -0.543547  0  2.333779  0
O  O208  1  0.32352787  0.56404880  0.38761475  1  -0.457091  0  -0.145723  -0.341877  0  1.862272  0
O  O209  1  0.25886495  0.54651725  0.44727046  1  -0.419646  0  -0.121012  -0.304083  0  1.893837  0
O  O210  1  0.75927208  0.52213435  0.69616888  1  -0.445028  0  -0.138169  -0.33233  0  1.86354  0
O  O211  1  0.84358378  0.55606516  0.65456122  1  -0.423471  0  -0.124328  -0.309314  0  1.891589  0
O  O212  1  0.04780147  0.26172101  0.69319441  1  -0.443936  0  -0.140585  -0.335193  0  1.855198  0
O  O213  1  0.97022446  0.33851743  0.64778218  1  -0.415912  0  -0.119769  -0.302224  0  1.894258  0
O  O214  1  0.72515302  0.81860391  0.37979601  1  -0.457921  0  -0.147139  -0.344298  0  1.86023  0
O  O215  1  0.75595374  0.75589989  0.44068152  1  -0.421415  0  -0.127  -0.311882  0  1.88876  0
O  O216  1  0.73807266  0.49116962  0.05577763  1  -0.443521  0  -0.14303  -0.338209  0  1.861373  0
O  O217  1  0.70099100  0.40791249  0.09623474  1  -0.424457  0  -0.122059  -0.305233  0  1.89327  0
O  O218  1  0.16643707  0.07820869  0.22854113  1  -0.450686  0  -0.146251  -0.343057  0  1.859492  0
O  O219  1  0.06152609  0.05897069  0.24515974  1  -0.4183  0  -0.129355  -0.314914  0  1.887005  0
O  O220  1  0.53068182  0.42193704  0.85736699  1  -0.457276  0  -0.141222  -0.336448  0  1.861191  0
O  O221  1  0.45017800  0.54357751  0.85677491  1  -0.422442  0  -0.127434  -0.31261  0  1.886986  0
O  O222  1  0.91352917  0.69594420  0.84495639  1  -0.438079  0  -0.140629  -0.335159  0  1.858177  0
O  O223  1  0.03566902  0.66385266  0.84712415  1  -0.427524  0  -0.128202  -0.314781  0  1.890755  0
F  F224  1  0.78359809  0.52157616  0.39745359  1  -0.620165  0  -0.095942  -0.132674  0  1.34383  0
F  F225  1  0.15661298  0.66554277  0.54045234  1  -0.624974  0  -0.096176  -0.131603  0  1.345905  0
F  F226  1  0.70729300  0.21205623  0.08878628  1  -0.625792  0  -0.092429  -0.126855  0  1.350204  0
F  F227  1  0.23217485  0.96673297  0.85155664  1  -0.621422  0  -0.09896  -0.135746  0  1.344554  0
