# generated using pymatgen
data_TbH6C7O9
_symmetry_space_group_name_H-M   'P 1'
_cell_length_a   9.86893207
_cell_length_b   9.86792694
_cell_length_c   13.02186350
_cell_angle_alpha   95.19334723
_cell_angle_beta   109.05722740
_cell_angle_gamma   116.72169929
_symmetry_Int_Tables_number   1
_chemical_formula_structural   TbH6C7O9
_chemical_formula_sum   'Tb4 H24 C28 O36'
_cell_volume   1027.45295183
_cell_formula_units_Z   4
loop_
 _symmetry_equiv_pos_site_id
 _symmetry_equiv_pos_as_xyz
  1  'x, y, z'
loop_
 _atom_site_type_symbol
 _atom_site_label
 _atom_site_symmetry_multiplicity
 _atom_site_fract_x
 _atom_site_fract_y
 _atom_site_fract_z
 _atom_site_occupancy
 _atom_site_hle17_bader_spin_density
 _atom_site_hle17_ddec_charge
 _atom_site_hle17_ddec_spin_density
 _atom_site_hle17_ddec_sum_bond_order
 _atom_site_hle17_magmom
 _atom_site_hse06_10hf_bader_spin_density
 _atom_site_hse06_10hf_ddec_charge
 _atom_site_hse06_10hf_ddec_spin_density
 _atom_site_hse06_10hf_ddec_sum_bond_order
 _atom_site_hse06_10hf_magmom
 _atom_site_hse06_bader_spin_density
 _atom_site_hse06_ddec_charge
 _atom_site_hse06_ddec_spin_density
 _atom_site_hse06_ddec_sum_bond_order
 _atom_site_hse06_magmom
 _atom_site_pbe_bader_spin_density
 _atom_site_pbe_cm5_charge
 _atom_site_pbe_ddec_charge
 _atom_site_pbe_ddec_spin_density
 _atom_site_pbe_ddec_sum_bond_order
 _atom_site_pbe_magmom
Tb  Tb0  1  0.46120701  0.73708388  0.00519576  1  0  2.27419  0  1.653224  0  0  2.128534  0  2.126527  0  0  2.246959  0  1.947817  0  0  1.505463  2.092714  0  2.159428  0
Tb  Tb1  1  0.23170950  0.45596605  0.49482472  1  0  2.2736  0  1.654641  0  0  2.127653  0  2.128643  0  0  2.246263  0  1.949426  0  0  1.504824  2.092041  0  2.161139  0
Tb  Tb2  1  0.53878858  0.26291224  0.99480513  1  0  2.274168  0  1.653288  0  0  2.128517  0  2.126618  0  0  2.24695  0  1.947893  0  0  1.505459  2.092715  0  2.159501  0
Tb  Tb3  1  0.76829091  0.54403718  0.50517860  1  0  2.2736  0  1.654572  0  0  2.127683  0  2.128561  0  0  2.246277  0  1.949365  0  0  1.504802  2.092069  0  2.161064  0
H  H4  1  0.69422827  0.94011680  0.23746768  1  0  0.43983  0  0.813193  0  0  0.421038  0  0.869466  0  0  0.43018  0  0.856965  0  0  0.328045  0.414353  0  0.877615  0
H  H5  1  0.20270553  0.45692079  0.26246294  1  0  0.440878  0  0.811473  0  0  0.422336  0  0.867339  0  0  0.43147  0  0.855079  0  0  0.328018  0.415684  0  0.875439  0
H  H6  1  0.30577368  0.05988524  0.76253287  1  0  0.439801  0  0.813244  0  0  0.421018  0  0.869497  0  0  0.430157  0  0.856997  0  0  0.328055  0.414335  0  0.877645  0
H  H7  1  0.79729374  0.54307417  0.73753649  1  0  0.440825  0  0.811508  0  0  0.422335  0  0.867284  0  0  0.431466  0  0.855072  0  0  0.328025  0.415685  0  0.875379  0
H  H8  1  0.63344724  0.04955452  0.18443759  1  0  0.442116  0  0.850818  0  0  0.410608  0  0.915478  0  0  0.421863  0  0.899083  0  0  0.30689  0.402714  0  0.927134  0
H  H9  1  0.36509250  0.44913076  0.31559105  1  0  0.439637  0  0.854255  0  0  0.408285  0  0.918641  0  0  0.419475  0  0.902358  0  0  0.305087  0.400427  0  0.930256  0
H  H10  1  0.36655532  0.95044870  0.81556165  1  0  0.442124  0  0.850802  0  0  0.410643  0  0.915426  0  0  0.421884  0  0.899045  0  0  0.306943  0.402752  0  0.927076  0
H  H11  1  0.63491222  0.55087251  0.68441181  1  0  0.439657  0  0.854234  0  0  0.408292  0  0.91864  0  0  0.419483  0  0.902355  0  0  0.305096  0.400431  0  0.930259  0
H  H12  1  0.78342434  0.84075174  0.85334219  1  0  0.139434  0  0.953047  0  0  0.147863  0  1.011984  0  0  0.151644  0  1.009727  0  0  0.113859  0.144982  0  1.013804  0
H  H13  1  0.48737543  0.93001794  0.64668430  1  0  0.139538  0  0.951313  0  0  0.147615  0  1.010743  0  0  0.151424  0  1.008459  0  0  0.114003  0.144673  0  1.012644  0
H  H14  1  0.21658407  0.15925040  0.14666306  1  0  0.139481  0  0.953029  0  0  0.147915  0  1.011943  0  0  0.151702  0  1.009686  0  0  0.113883  0.145028  0  1.013761  0
H  H15  1  0.51262340  0.06997825  0.35332124  1  0  0.13945  0  0.951356  0  0  0.147519  0  1.010823  0  0  0.151314  0  1.008555  0  0  0.113946  0.144572  0  1.012722  0
H  H16  1  0.04810902  0.97527719  0.79743329  1  0  0.141207  0  0.934702  0  0  0.150251  0  0.993295  0  0  0.154311  0  0.989909  0  0  0.120233  0.147497  0  0.995453  0
H  H17  1  0.67783574  0.25065482  0.70248419  1  0  0.141928  0  0.933342  0  0  0.151386  0  0.991445  0  0  0.155443  0  0.98808  0  0  0.120712  0.148647  0  0.993577  0
H  H18  1  0.95188255  0.02471537  0.20256714  1  0  0.141206  0  0.934697  0  0  0.150236  0  0.993308  0  0  0.154301  0  0.989917  0  0  0.120225  0.147478  0  0.99547  0
H  H19  1  0.32217313  0.74934612  0.29751802  1  0  0.141982  0  0.933243  0  0  0.151408  0  0.991371  0  0  0.155467  0  0.988006  0  0  0.120702  0.148666  0  0.993506  0
H  H20  1  0.22543391  0.51838402  0.07521205  1  0  0.436292  0  0.816077  0  0  0.413281  0  0.8797  0  0  0.422816  0  0.86918  0  0  0.323904  0.406091  0  0.888755  0
H  H21  1  0.94295913  0.15011327  0.42468235  1  0  0.434823  0  0.816963  0  0  0.411709  0  0.880657  0  0  0.42126  0  0.870154  0  0  0.322178  0.404503  0  0.889732  0
H  H22  1  0.77456168  0.48161210  0.92478807  1  0  0.43629  0  0.816107  0  0  0.413275  0  0.879737  0  0  0.422811  0  0.869213  0  0  0.323905  0.406087  0  0.888793  0
H  H23  1  0.05703957  0.84988873  0.57531586  1  0  0.434808  0  0.816946  0  0  0.411698  0  0.880631  0  0  0.421248  0  0.870129  0  0  0.322197  0.404488  0  0.889716  0
H  H24  1  0.38394659  0.50820116  0.13696123  1  0  0.426445  0  0.869745  0  0  0.393822  0  0.940224  0  0  0.405181  0  0.923606  0  0  0.299491  0.38564  0  0.952312  0
H  H25  1  0.87123350  0.24699857  0.36289215  1  0  0.426237  0  0.870955  0  0  0.393585  0  0.941089  0  0  0.404976  0  0.924374  0  0  0.298665  0.385388  0  0.953222  0
H  H26  1  0.61604747  0.49179612  0.86303935  1  0  0.426469  0  0.869698  0  0  0.393843  0  0.940192  0  0  0.405201  0  0.923577  0  0  0.299497  0.385662  0  0.952278  0
H  H27  1  0.12877122  0.75300468  0.63710918  1  0  0.426254  0  0.870914  0  0  0.393602  0  0.941061  0  0  0.404993  0  0.924346  0  0  0.298679  0.385401  0  0.953193  0
C  C28  1  0.74556287  0.09116736  0.97069795  1  0  0.703484  0  3.914703  0  0  0.658249  0  4.20105  0  0  0.694506  0  4.192245  0  0  0.234929  0.633763  0  4.209063  0
C  C29  1  0.62026776  0.77461562  0.52933784  1  0  0.704176  0  3.914497  0  0  0.658982  0  4.201369  0  0  0.695192  0  4.192568  0  0  0.233197  0.634474  0  4.209477  0
C  C30  1  0.25442858  0.90883107  0.02930205  1  0  0.70339  0  3.914658  0  0  0.658113  0  4.201073  0  0  0.69437  0  4.192266  0  0  0.234781  0.633621  0  4.209089  0
C  C31  1  0.37973242  0.22537704  0.47066628  1  0  0.704219  0  3.914381  0  0  0.659081  0  4.201163  0  0  0.695291  0  4.192359  0  0  0.233248  0.634565  0  4.209279  0
C  C32  1  0.07509829  0.19761390  0.87901039  1  0  0.069133  0  3.658373  0  0  0.058515  0  3.93429  0  0  0.05963  0  3.947132  0  0  0.071185  0.057966  0  3.925024  0
C  C33  1  0.81838731  0.19587449  0.62083982  1  0  0.069501  0  3.655245  0  0  0.05883  0  3.93169  0  0  0.060005  0  3.944495  0  0  0.070899  0.058316  0  3.922379  0
C  C34  1  0.92489855  0.80238456  0.12098866  1  0  0.069067  0  3.658372  0  0  0.058455  0  3.934267  0  0  0.05955  0  3.947131  0  0  0.071172  0.057911  0  3.924997  0
C  C35  1  0.18161197  0.80412046  0.37915731  1  0  0.069543  0  3.655449  0  0  0.058794  0  3.931971  0  0  0.059969  0  3.94477  0  0  0.070865  0.058267  0  3.922674  0
C  C36  1  0.86707624  0.96572418  0.86889781  1  0  -0.135332  0  3.716309  0  0  -0.169313  0  3.984227  0  0  -0.171098  0  4.002609  0  0  -0.099125  -0.167509  0  3.971122  0
C  C37  1  0.59674597  0.99806146  0.63109139  1  0  -0.132516  0  3.714516  0  0  -0.165903  0  3.982516  0  0  -0.167728  0  4.000963  0  0  -0.098114  -0.164045  0  3.969419  0
C  C38  1  0.13291646  0.03427657  0.13109805  1  0  -0.135418  0  3.716459  0  0  -0.169402  0  3.984355  0  0  -0.171202  0  4.002757  0  0  -0.099138  -0.167587  0  3.971228  0
C  C39  1  0.40324922  0.00194406  0.36890923  1  0  -0.132295  0  3.714428  0  0  -0.165661  0  3.98239  0  0  -0.167477  0  4.000846  0  0  -0.098023  -0.163798  0  3.96928  0
C  C40  1  0.23016999  0.33394635  0.88842553  1  0  0.694197  0  3.920937  0  0  0.643554  0  4.220652  0  0  0.680093  0  4.211764  0  0  0.22953  0.618466  0  4.229731  0
C  C41  1  0.94542666  0.34153932  0.61150493  1  0  0.696506  0  3.91634  0  0  0.644714  0  4.218194  0  0  0.681185  0  4.209348  0  0  0.227684  0.619627  0  4.227325  0
C  C42  1  0.76982764  0.66605564  0.11157317  1  0  0.694149  0  3.920883  0  0  0.643524  0  4.220587  0  0  0.680078  0  4.211684  0  0  0.229549  0.618431  0  4.229676  0
C  C43  1  0.05457897  0.65846157  0.38849493  1  0  0.69632  0  3.916644  0  0  0.644556  0  4.218494  0  0  0.681029  0  4.209646  0  0  0.227599  0.619469  0  4.227631  0
C  C44  1  0.00544794  0.03619561  0.84069352  1  0  -0.114367  0  3.695155  0  0  -0.150162  0  3.96793  0  0  -0.150533  0  3.984401  0  0  -0.087202  -0.149421  0  3.956301  0
C  C45  1  0.69538547  0.16463848  0.65921963  1  0  -0.117584  0  3.693089  0  0  -0.15377  0  3.966029  0  0  -0.154146  0  3.98242  0  0  -0.088549  -0.152992  0  3.954327  0
C  C46  1  0.99455355  0.96380760  0.15930700  1  0  -0.114263  0  3.695096  0  0  -0.150054  0  3.967856  0  0  -0.150424  0  3.984336  0  0  -0.087157  -0.149312  0  3.956216  0
C  C47  1  0.30460796  0.83535757  0.34077611  1  0  -0.117703  0  3.69301  0  0  -0.153817  0  3.96594  0  0  -0.154205  0  3.982353  0  0  -0.088559  -0.153033  0  3.95423  0
C  C48  1  0.33997739  0.68322906  0.73619056  1  0  0.578521  0  3.878589  0  0  0.531617  0  4.175134  0  0  0.561634  0  4.172282  0  0  0.227539  0.511  0  4.181859  0
C  C49  1  0.44696959  0.60389203  0.76388071  1  0  0.576235  0  3.881182  0  0  0.529599  0  4.177265  0  0  0.559593  0  4.174451  0  0  0.227852  0.509023  0  4.183939  0
C  C50  1  0.66002790  0.31676714  0.26381046  1  0  0.578611  0  3.879002  0  0  0.531678  0  4.17558  0  0  0.561698  0  4.172719  0  0  0.227575  0.511071  0  4.182296  0
C  C51  1  0.55303695  0.39610652  0.23612000  1  0  0.576235  0  3.881229  0  0  0.52964  0  4.177302  0  0  0.559634  0  4.174485  0  0  0.227898  0.509066  0  4.183965  0
C  C52  1  0.85989333  0.08765924  0.92275476  1  0  0.078323  0  3.659092  0  0  0.074797  0  3.918807  0  0  0.075985  0  3.931257  0  0  0.071388  0.074274  0  3.909087  0
C  C53  1  0.66475023  0.93692297  0.57724911  1  0  0.079363  0  3.659995  0  0  0.075001  0  3.920443  0  0  0.076196  0  3.932927  0  0  0.072842  0.074502  0  3.910705  0
C  C54  1  0.14010106  0.91234271  0.07724160  1  0  0.07836  0  3.659235  0  0  0.074842  0  3.918968  0  0  0.076031  0  3.931413  0  0  0.071395  0.074316  0  3.909245  0
C  C55  1  0.33524910  0.06308022  0.42275086  1  0  0.079297  0  3.66035  0  0  0.0749  0  3.920801  0  0  0.076096  0  3.933277  0  0  0.072808  0.0744  0  3.911065  0
O  O56  1  0.65065256  0.96409810  0.98690194  1  0  -0.775495  0  2.115009  0  0  -0.726604  0  2.385284  0  0  -0.764903  0  2.371653  0  0  -0.415356  -0.707913  0  2.393305  0
O  O57  1  0.47704475  0.66358697  0.51325514  1  0  -0.775821  0  2.117755  0  0  -0.726863  0  2.388153  0  0  -0.76516  0  2.374447  0  0  -0.415509  -0.708206  0  2.396226  0
O  O58  1  0.34934864  0.03590868  0.01310334  1  0  -0.775511  0  2.114781  0  0  -0.726617  0  2.385105  0  0  -0.764918  0  2.371474  0  0  -0.415345  -0.707926  0  2.393119  0
O  O59  1  0.52295907  0.33641862  0.48674534  1  0  -0.775886  0  2.117633  0  0  -0.726957  0  2.388026  0  0  -0.765252  0  2.374314  0  0  -0.41556  -0.708297  0  2.396105  0
O  O60  1  0.74664082  0.22024667  0.99104016  1  0  -0.699705  0  2.000671  0  0  -0.653594  0  2.246673  0  0  -0.686374  0  2.228214  0  0  -0.410792  -0.636807  0  2.256274  0
O  O61  1  0.72891109  0.75532184  0.50888539  1  0  -0.700591  0  2.00065  0  0  -0.65443  0  2.246826  0  0  -0.687208  0  2.228332  0  0  -0.410487  -0.637657  0  2.256429  0
O  O62  1  0.25335250  0.77975529  0.00895900  1  0  -0.699599  0  2.000714  0  0  -0.653473  0  2.246727  0  0  -0.686251  0  2.22827  0  0  -0.410699  -0.636685  0  2.25633  0
O  O63  1  0.27109380  0.24468377  0.49111766  1  0  -0.700559  0  2.000615  0  0  -0.654402  0  2.246746  0  0  -0.687183  0  2.228252  0  0  -0.410468  -0.637624  0  2.256346  0
O  O64  1  0.33736437  0.75804970  0.81919556  1  0  -0.656064  0  2.100923  0  0  -0.598967  0  2.336212  0  0  -0.631114  0  2.325144  0  0  -0.351105  -0.582224  0  2.34228  0
O  O65  1  0.43871575  0.51822379  0.68088596  1  0  -0.653778  0  2.102203  0  0  -0.596811  0  2.337155  0  0  -0.628924  0  2.326113  0  0  -0.350529  -0.580093  0  2.343166  0
O  O66  1  0.66263457  0.24194058  0.18080579  1  0  -0.656011  0  2.101242  0  0  -0.598918  0  2.336552  0  0  -0.631074  0  2.325486  0  0  -0.35104  -0.582184  0  2.342623  0
O  O67  1  0.56128012  0.48176877  0.31911094  1  0  -0.653708  0  2.102329  0  0  -0.596794  0  2.337305  0  0  -0.628901  0  2.326263  0  0  -0.350488  -0.58008  0  2.343312  0
O  O68  1  0.33988261  0.30434847  0.87909450  1  0  -0.74681  0  2.033195  0  0  -0.691647  0  2.28879  0  0  -0.728391  0  2.273405  0  0  -0.417472  -0.672782  0  2.297101  0
O  O69  1  0.92533935  0.46068922  0.62093883  1  0  -0.748381  0  2.031746  0  0  -0.693092  0  2.288327  0  0  -0.729835  0  2.272963  0  0  -0.417924  -0.674266  0  2.296622  0
O  O70  1  0.66011360  0.69564885  0.12090893  1  0  -0.746785  0  2.033272  0  0  -0.691602  0  2.288787  0  0  -0.72835  0  2.273399  0  0  -0.417457  -0.672732  0  2.297102  0
O  O71  1  0.07468313  0.53932127  0.37906816  1  0  -0.74833  0  2.031854  0  0  -0.693006  0  2.28836  0  0  -0.729751  0  2.272995  0  0  -0.417908  -0.67418  0  2.29666  0
O  O72  1  0.98513424  0.23011767  0.92772286  1  0  -0.177746  0  2.405086  0  0  -0.113229  0  2.623152  0  0  -0.126828  0  2.628761  0  0  -0.110734  -0.103886  0  2.618897  0
O  O73  1  0.80217418  0.05714374  0.57219240  1  0  -0.179331  0  2.407513  0  0  -0.114053  0  2.625492  0  0  -0.127689  0  2.631104  0  0  -0.110729  -0.104709  0  2.621231  0
O  O74  1  0.01486214  0.76988194  0.07227385  1  0  -0.177758  0  2.405055  0  0  -0.113243  0  2.623118  0  0  -0.126838  0  2.628729  0  0  -0.11072  -0.103906  0  2.618865  0
O  O75  1  0.19782481  0.94285473  0.42780489  1  0  -0.17937  0  2.407434  0  0  -0.114076  0  2.625455  0  0  -0.127711  0  2.631065  0  0  -0.110726  -0.104731  0  2.6212  0
O  O76  1  0.24786903  0.47048499  0.90884017  1  0  -0.717831  0  2.033697  0  0  -0.67215  0  2.286881  0  0  -0.705087  0  2.269908  0  0  -0.385847  -0.655377  0  2.296501  0
O  O77  1  0.06149140  0.33866993  0.59108768  1  0  -0.718422  0  2.031034  0  0  -0.672234  0  2.284731  0  0  -0.705177  0  2.267733  0  0  -0.383533  -0.655456  0  2.294291  0
O  O78  1  0.75212395  0.52951226  0.09115784  1  0  -0.717861  0  2.033564  0  0  -0.672187  0  2.286745  0  0  -0.705127  0  2.269764  0  0  -0.38592  -0.655418  0  2.296369  0
O  O79  1  0.93850646  0.66132031  0.40891033  1  0  -0.718296  0  2.031177  0  0  -0.672116  0  2.284854  0  0  -0.705061  0  2.267864  0  0  -0.383468  -0.655333  0  2.294413  0
O  O80  1  0.26800295  0.67354150  0.63326848  1  0  -0.667884  0  2.097715  0  0  -0.617191  0  2.34054  0  0  -0.649761  0  2.331021  0  0  -0.335079  -0.600446  0  2.347133  0
O  O81  1  0.54017690  0.63485730  0.86681262  1  0  -0.667395  0  2.097854  0  0  -0.617197  0  2.341119  0  0  -0.64975  0  2.33168  0  0  -0.336664  -0.600424  0  2.347686  0
O  O82  1  0.73200069  0.32646172  0.36672950  1  0  -0.667963  0  2.097873  0  0  -0.617243  0  2.340675  0  0  -0.649794  0  2.33112  0  0  -0.335115  -0.600496  0  2.34726  0
O  O83  1  0.45982516  0.36513881  0.13318144  1  0  -0.667498  0  2.097765  0  0  -0.6173  0  2.341016  0  0  -0.649862  0  2.33159  0  0  -0.336781  -0.600529  0  2.347576  0
O  O84  1  0.59517011  0.93872834  0.18763401  1  0  -0.875557  0  1.833617  0  0  -0.829624  0  2.019344  0  0  -0.856068  0  1.983972  0  0  -0.617836  -0.816909  0  2.039387  0
O  O85  1  0.25108650  0.40772208  0.31237409  1  0  -0.874054  0  1.834946  0  0  -0.828353  0  2.020005  0  0  -0.854744  0  1.984956  0  0  -0.615633  -0.815709  0  2.039887  0
O  O86  1  0.40482690  0.06127248  0.81236523  1  0  -0.875512  0  1.833666  0  0  -0.829607  0  2.01936  0  0  -0.856034  0  1.984021  0  0  -0.617878  -0.816894  0  2.039398  0
O  O87  1  0.74891652  0.59227998  0.68762749  1  0  -0.87403  0  1.834948  0  0  -0.828369  0  2.019949  0  0  -0.854757  0  1.984946  0  0  -0.615663  -0.815722  0  2.039831  0
O  O88  1  0.34058907  0.58199296  0.13187861  1  0  -0.856505  0  1.820487  0  0  -0.809426  0  2.003359  0  0  -0.834445  0  1.970863  0  0  -0.601483  -0.796083  0  2.023639  0
O  O89  1  0.95016695  0.20874497  0.36810300  1  0  -0.854441  0  1.821834  0  0  -0.807254  0  2.003682  0  0  -0.832352  0  1.97126  0  0  -0.598693  -0.793901  0  2.023909  0
O  O90  1  0.65941145  0.41800433  0.86811745  1  0  -0.856507  0  1.820376  0  0  -0.809428  0  2.003267  0  0  -0.834447  0  1.970772  0  0  -0.601488  -0.796082  0  2.023543  0
O  O91  1  0.04983312  0.79125351  0.63189455  1  0  -0.85443  0  1.821782  0  0  -0.807248  0  2.003665  0  0  -0.832347  0  1.971244  0  0  -0.598723  -0.793885  0  2.023921  0
