# generated using pymatgen
data_YCuH22C18IN5O9
_symmetry_space_group_name_H-M   'P 1'
_cell_length_a   10.88946194
_cell_length_b   12.70784801
_cell_length_c   14.54268219
_cell_angle_alpha   92.04969175
_cell_angle_beta   96.01844972
_cell_angle_gamma   120.67387576
_symmetry_Int_Tables_number   1
_chemical_formula_structural   YCuH22C18IN5O9
_chemical_formula_sum   'Y2 Cu2 H44 C36 I2 N10 O18'
_cell_volume   1711.93187927
_cell_formula_units_Z   2
loop_
 _symmetry_equiv_pos_site_id
 _symmetry_equiv_pos_as_xyz
  1  'x, y, z'
loop_
 _atom_site_type_symbol
 _atom_site_label
 _atom_site_symmetry_multiplicity
 _atom_site_fract_x
 _atom_site_fract_y
 _atom_site_fract_z
 _atom_site_occupancy
 _atom_site_pbe_bader_charge
 _atom_site_pbe_bader_spin_density
 _atom_site_pbe_cm5_charge
 _atom_site_pbe_ddec_charge
 _atom_site_pbe_ddec_spin_density
 _atom_site_pbe_ddec_sum_bond_order
 _atom_site_pbe_magmom
Y  Y0  1  0.72260898  0.62502191  0.03636336  1  2.292777  0  1.302519  1.747506  0  2.505821  0
Y  Y1  1  0.27739835  0.37498738  0.96363915  1  2.292784  0  1.302585  1.747452  0  2.505995  0
Cu  Cu2  1  0.48854935  0.00358315  0.41242278  1  0.53224  0  0.367453  0.210918  0  2.74657  0
Cu  Cu3  1  0.51145052  0.99641773  0.58757882  1  0.532641  0  0.367471  0.211001  0  2.746515  0
H  H4  1  0.20233016  0.64656297  0.15972265  1  0.104619  0  0.109533  0.119449  0  1.020636  0
H  H5  1  0.79767073  0.35343799  0.84027492  1  0.10466  0  0.109524  0.119493  0  1.020572  0
H  H6  1  0.26780711  0.20882009  0.22395286  1  0.093675  0  0.106419  0.108083  0  1.019147  0
H  H7  1  0.73220133  0.79119107  0.77604568  1  0.093361  0  0.10638  0.107975  0  1.019184  0
H  H8  1  0.27468323  0.07011094  0.34186046  1  0.123967  0  0.103777  0.084545  0  1.021208  0
H  H9  1  0.72531416  0.92989525  0.65813421  1  0.123955  0  0.103759  0.084539  0  1.021163  0
H  H10  1  0.66221826  0.79463018  0.20148701  1  0.150136  0  0.118332  0.134518  0  1.01536  0
H  H11  1  0.33777696  0.20535608  0.79852475  1  0.150518  0  0.118316  0.134505  0  1.015349  0
H  H12  1  0.68219940  0.94024611  0.33175798  1  0.108811  0  0.101043  0.0814  0  1.03143  0
H  H13  1  0.31779640  0.05974110  0.66825111  1  0.108687  0  0.101041  0.081398  0  1.031233  0
H  H14  1  0.89760426  0.90230146  0.92753994  1  0.073673  0  0.126447  0.04613  0  1.003637  0
H  H15  1  0.10241883  0.09772110  0.07246229  1  0.073846  0  0.126363  0.046022  0  1.003535  0
H  H16  1  0.82147680  0.64386969  0.81407686  1  0.119131  0  0.128015  0.049757  0  0.997913  0
H  H17  1  0.17851049  0.35611538  0.18592592  1  0.119336  0  0.127947  0.049544  0  0.997921  0
H  H18  1  0.72861266  0.38494698  0.24414463  1  0.105207  0  0.110254  0.116619  0  1.027221  0
H  H19  1  0.27138683  0.61504670  0.75586016  1  0.105284  0  0.11027  0.116668  0  1.027138  0
H  H20  1  0.24015847  0.79344954  0.29431679  1  0.125823  0  0.102474  0.084159  0  1.047602  0
H  H21  1  0.75984000  0.20655041  0.70568123  1  0.125786  0  0.102436  0.084092  0  1.047542  0
H  H22  1  0.91029318  0.05101785  0.85242155  1  0.095206  0  0.114498  0.13175  0  0.986852  0
H  H23  1  0.08970892  0.94899841  0.14757315  1  0.09513  0  0.114504  0.131777  0  0.986971  0
H  H24  1  0.89205554  0.16221739  0.91778368  1  0.093281  0  0.10908  0.127847  0  1.03191  0
H  H25  1  0.10794331  0.83779329  0.08221882  1  0.093138  0  0.109085  0.127864  0  1.031818  0
H  H26  1  0.74337248  0.04810608  0.83596162  1  0.060373  0  0.101408  0.114539  0  1.012984  0
H  H27  1  0.25662633  0.95190459  0.16404294  1  0.060427  0  0.101455  0.114634  0  1.01287  0
H  H28  1  0.71711748  0.23619885  0.35961950  1  0.11849  0  0.096284  0.070569  0  1.057769  0
H  H29  1  0.28286818  0.76378976  0.64037774  1  0.118452  0  0.096268  0.070549  0  1.057745  0
H  H30  1  0.88588596  0.56565424  0.71003704  1  0.058785  0  0.116226  0.130316  0  0.976749  0
H  H31  1  0.11410320  0.43432737  0.28995960  1  0.059043  0  0.116197  0.130279  0  0.976617  0
H  H32  1  0.99226264  0.50097879  0.74805696  1  0.094413  0  0.108932  0.129181  0  1.020947  0
H  H33  1  0.00773165  0.49901202  0.25194041  1  0.094562  0  0.108982  0.129271  0  1.0209  0
H  H34  1  0.07645220  0.65262294  0.71154028  1  0.044662  0  0.105458  0.121679  0  0.99596  0
H  H35  1  0.92353472  0.34736126  0.28845556  1  0.045846  0  0.105526  0.121715  0  0.995879  0
H  H36  1  0.10811534  0.67133411  0.97931145  1  0.102385  0  0.11523  0.136573  0  1.001285  0
H  H37  1  0.89188123  0.32866575  0.02068640  1  0.102304  0  0.115219  0.136527  0  1.001373  0
H  H38  1  0.22825935  0.72363519  0.89348950  1  0.02512  0  0.099643  0.105849  0  1.003918  0
H  H39  1  0.77173923  0.27636304  0.10649953  1  0.025053  0  0.099631  0.105806  0  1.003975  0
H  H40  1  0.12351152  0.56367426  0.90583314  1  0.103033  0  0.114079  0.141258  0  1.021519  0
H  H41  1  0.87648381  0.43631839  0.09416369  1  0.102937  0  0.114061  0.141278  0  1.021529  0
H  H42  1  0.64780942  0.92090232  0.06114357  1  0.114556  0  0.113454  0.132218  0  1.022391  0
H  H43  1  0.35218582  0.07908677  0.93885039  1  0.114526  0  0.113487  0.132293  0  1.022405  0
H  H44  1  0.59445479  0.98448545  0.96759798  1  0.053652  0  0.107245  0.117654  0  0.984268  0
H  H45  1  0.40553758  0.01550174  0.03239293  1  0.056306  0  0.107256  0.117683  0  0.984377  0
H  H46  1  0.74044085  0.08409281  0.05606335  1  0.043597  0  0.10668  0.119515  0  1.000445  0
H  H47  1  0.25954325  0.91590290  0.94393259  1  0.043784  0  0.106692  0.119514  0  1.000494  0
C  C48  1  0.49803998  0.30469738  0.22262493  1  -0.041354  0  -0.005224  -0.004655  0  3.950887  0
C  C49  1  0.50196243  0.69530633  0.77737423  1  -0.040916  0  -0.005291  -0.00471  0  3.950895  0
C  C50  1  0.31052470  0.71032676  0.19584222  1  -0.030922  0  -0.083349  -0.145464  0  3.958797  0
C  C51  1  0.68947334  0.28966596  0.80416173  1  -0.030982  0  -0.083359  -0.145474  0  3.958657  0
C  C52  1  0.49901888  0.38277450  0.14730544  1  1.612091  0  0.235449  0.630232  0  4.14845  0
C  C53  1  0.50098324  0.61723719  0.85270219  1  1.611396  0  0.235417  0.630071  0  4.148534  0
C  C54  1  0.41285056  0.61887572  0.09307704  1  1.579649  0  0.232128  0.61798  0  4.156426  0
C  C55  1  0.58714477  0.38112045  0.90692746  1  1.579434  0  0.232127  0.617904  0  4.156611  0
C  C56  1  0.43016229  0.70966283  0.16927785  1  -0.012376  0  -0.006734  -0.014047  0  3.967573  0
C  C57  1  0.56983948  0.29033815  0.83072392  1  -0.012187  0  -0.006715  -0.014139  0  3.967568  0
C  C58  1  0.36933972  0.21708471  0.25225804  1  -0.035442  0  -0.084029  -0.143702  0  3.972921  0
C  C59  1  0.63066076  0.78292065  0.74774650  1  -0.035512  0  -0.083937  -0.143501  0  3.972678  0
C  C60  1  0.37229664  0.14001145  0.31667566  1  0.438315  0  0.035944  0.078948  0  3.928777  0
C  C61  1  0.62769997  0.85999019  0.68332431  1  0.438256  0  0.035962  0.078984  0  3.928537  0
C  C62  1  0.56666358  0.79352834  0.21858040  1  -0.06155  0  -0.07603  -0.13762  0  3.936227  0
C  C63  1  0.43333179  0.20645975  0.78142799  1  -0.062232  0  -0.07604  -0.137591  0  3.936142  0
C  C64  1  0.57838783  0.87413714  0.29074241  1  0.431374  0  0.036405  0.084396  0  3.918222  0
C  C65  1  0.42160919  0.12585551  0.70926489  1  0.431912  0  0.036432  0.084428  0  3.917905  0
C  C66  1  0.82785184  0.90467901  0.97636211  1  1.404934  0  0.185352  0.309153  0  4.118892  0
C  C67  1  0.17216366  0.09533967  0.02363177  1  1.404535  0  0.185613  0.309493  0  4.118374  0
C  C68  1  0.91209165  0.66588308  0.86855900  1  1.352653  0  0.184165  0.314477  0  4.11044  0
C  C69  1  0.08789955  0.33409868  0.13143095  1  1.352642  0  0.184212  0.314708  0  4.110583  0
C  C70  1  0.62631809  0.31457110  0.26317948  1  -0.0546  0  -0.082497  -0.142242  0  3.963343  0
C  C71  1  0.37367955  0.68543237  0.73682064  1  -0.054568  0  -0.082481  -0.142319  0  3.963376  0
C  C72  1  0.33114414  0.79293503  0.26961166  1  0.456143  0  0.033245  0.073899  0  3.92739  0
C  C73  1  0.66885065  0.20706655  0.73038471  1  0.456336  0  0.033362  0.07406  0  3.927189  0
C  C74  1  0.83519586  0.06607338  0.88723209  1  0.236864  0  -0.13247  -0.291267  0  3.905153  0
C  C75  1  0.16480407  0.93393915  0.11276850  1  0.237024  0  -0.132546  -0.291418  0  3.90508  0
C  C76  1  0.62052963  0.23355321  0.32651458  1  0.450009  0  0.033409  0.077587  0  3.936432  0
C  C77  1  0.37947121  0.76644773  0.67348574  1  0.450041  0  0.033409  0.077652  0  3.936463  0
C  C78  1  0.98948869  0.58619187  0.74776971  1  0.284761  0  -0.124064  -0.276274  0  3.884719  0
C  C79  1  0.01049880  0.41379504  0.25222695  1  0.282867  0  -0.124158  -0.276294  0  3.884275  0
C  C80  1  0.12366018  0.65004420  0.90946821  1  0.257229  0  -0.131561  -0.275205  0  3.862131  0
C  C81  1  0.87634142  0.34995142  0.09052995  1  0.257618  0  -0.131557  -0.275145  0  3.862418  0
C  C82  1  0.68603416  0.99389478  0.01482583  1  0.257277  0  -0.126713  -0.263107  0  3.87943  0
C  C83  1  0.31395575  0.00610300  0.98516862  1  0.254419  0  -0.126866  -0.263423  0  3.879749  0
I  I84  1  0.24946738  0.90319254  0.49107176  1  -0.499235  0  -0.275346  -0.446024  0  1.614282  0
I  I85  1  0.75053515  0.09680488  0.50893135  1  -0.49919  0  -0.275349  -0.446032  0  1.614255  0
N  N86  1  0.49536848  0.14503903  0.35169075  1  -1.208015  0  -0.358418  -0.174867  0  3.626171  0
N  N87  1  0.50463680  0.85496658  0.64831147  1  -1.208101  0  -0.358471  -0.174991  0  3.626237  0
N  N88  1  0.46305525  0.87486771  0.31652562  1  -1.202231  0  -0.356371  -0.174108  0  3.63322  0
N  N89  1  0.53694000  0.12512490  0.68347533  1  -1.202606  0  -0.356482  -0.174241  0  3.633121  0
N  N90  1  0.00578027  0.63699400  0.84278707  1  -1.190517  0  -0.274214  0.038789  0  3.717936  0
N  N91  1  0.99421137  0.36299041  0.15721056  1  -1.190164  0  -0.27421  0.038637  0  3.717658  0
N  N92  1  0.91139140  0.67426124  0.20657025  1  0.818087  0  0.086512  0.712663  0  4.415241  0
N  N93  1  0.08862603  0.32575297  0.79343604  1  0.818494  0  0.086448  0.712703  0  4.415311  0
N  N94  1  0.78490550  0.98447102  0.96003769  1  -1.199768  0  -0.27538  0.04022  0  3.717109  0
N  N95  1  0.21509118  0.01553065  0.03995885  1  -1.199241  0  -0.275424  0.040268  0  3.716804  0
O  O96  1  0.62072346  0.46115134  0.12606949  1  -1.205882  0  -0.360745  -0.607794  0  2.327501  0
O  O97  1  0.37928617  0.53885891  0.87393875  1  -1.205653  0  -0.360647  -0.607607  0  2.327744  0
O  O98  1  0.37665845  0.36165565  0.10912846  1  -1.20549  0  -0.369562  -0.631361  0  2.334994  0
O  O99  1  0.62335306  0.63835116  0.89087296  1  -1.204942  0  -0.369608  -0.631371  0  2.334931  0
O  O100  1  0.28631800  0.53876183  0.05417542  1  -1.201014  0  -0.351406  -0.586752  0  2.239562  0
O  O101  1  0.71368702  0.46123663  0.94582381  1  -1.200996  0  -0.35136  -0.586713  0  2.239498  0
O  O102  1  0.52587150  0.62387322  0.07159704  1  -1.224917  0  -0.379094  -0.633762  0  2.396092  0
O  O103  1  0.47413405  0.37613603  0.92839981  1  -1.224744  0  -0.379105  -0.633682  0  2.396305  0
O  O104  1  0.92155174  0.71389369  0.94826767  1  -1.201099  0  -0.348932  -0.524876  0  2.372335  0
O  O105  1  0.07844439  0.28609541  0.05172912  1  -1.201413  0  -0.348815  -0.524758  0  2.372734  0
O  O106  1  0.79473594  0.83723928  0.04141867  1  -1.192272  0  -0.343847  -0.509909  0  2.368411  0
O  O107  1  0.20527617  0.16276847  0.95857871  1  -1.192508  0  -0.34388  -0.509959  0  2.368513  0
O  O108  1  0.82256969  0.71254884  0.19859633  1  -0.565645  0  -0.221526  -0.479443  0  1.984623  0
O  O109  1  0.17744397  0.28746521  0.80140825  1  -0.565664  0  -0.221448  -0.47936  0  1.984779  0
O  O110  1  0.92824518  0.63177630  0.12927688  1  -0.620299  0  -0.235484  -0.512436  0  2.007156  0
O  O111  1  0.07176662  0.36822780  0.87072793  1  -0.620453  0  -0.235505  -0.512469  0  2.007461  0
O  O112  1  0.97701426  0.67711856  0.28181986  1  -0.464701  0  -0.144148  -0.365505  0  1.945405  0
O  O113  1  0.02300744  0.32290482  0.71818296  1  -0.464938  0  -0.144136  -0.365545  0  1.945076  0
