# generated using pymatgen
data_AgH6C4N3
_symmetry_space_group_name_H-M   'P 1'
_cell_length_a   7.37011572
_cell_length_b   11.94075234
_cell_length_c   11.94069769
_cell_angle_alpha   63.56931750
_cell_angle_beta   71.98543533
_cell_angle_gamma   71.98553060
_symmetry_Int_Tables_number   1
_chemical_formula_structural   AgH6C4N3
_chemical_formula_sum   'Ag6 H36 C24 N18'
_cell_volume   876.51079485
_cell_formula_units_Z   6
loop_
 _symmetry_equiv_pos_site_id
 _symmetry_equiv_pos_as_xyz
  1  'x, y, z'
loop_
 _atom_site_type_symbol
 _atom_site_label
 _atom_site_symmetry_multiplicity
 _atom_site_fract_x
 _atom_site_fract_y
 _atom_site_fract_z
 _atom_site_occupancy
 _atom_site_hle17_bader_spin_density
 _atom_site_hle17_ddec_charge
 _atom_site_hle17_ddec_spin_density
 _atom_site_hle17_ddec_sum_bond_order
 _atom_site_hle17_magmom
 _atom_site_hse06_10hf_bader_spin_density
 _atom_site_hse06_10hf_ddec_charge
 _atom_site_hse06_10hf_ddec_spin_density
 _atom_site_hse06_10hf_ddec_sum_bond_order
 _atom_site_hse06_10hf_magmom
 _atom_site_hse06_bader_spin_density
 _atom_site_hse06_ddec_charge
 _atom_site_hse06_ddec_spin_density
 _atom_site_hse06_ddec_sum_bond_order
 _atom_site_hse06_magmom
 _atom_site_pbe_bader_spin_density
 _atom_site_pbe_cm5_charge
 _atom_site_pbe_ddec_charge
 _atom_site_pbe_ddec_spin_density
 _atom_site_pbe_ddec_sum_bond_order
 _atom_site_pbe_magmom
Ag  Ag0  1  0.87813208  0.84144781  0.99790571  1  0  0.473302  0  1.549689  0  0  0.326897  0  2.003815  0  0  0.35272  0  1.964391  0  0  0.467953  0.309455  0  2.0307  0
Ag  Ag1  1  0.28237078  0.99781752  0.84137339  1  0  0.474066  0  1.548895  0  0  0.327588  0  2.003406  0  0  0.353236  0  1.964146  0  0  0.4683  0.310201  0  2.030269  0
Ag  Ag2  1  0.37813285  0.49790787  0.34144876  1  0  0.473309  0  1.549704  0  0  0.326904  0  2.003834  0  0  0.35272  0  1.964419  0  0  0.467945  0.309465  0  2.030705  0
Ag  Ag3  1  0.78237196  0.34137491  0.49781974  1  0  0.474045  0  1.548915  0  0  0.327572  0  2.00343  0  0  0.353231  0  1.964152  0  0  0.468281  0.310184  0  2.03029  0
Ag  Ag4  1  0.91875132  0.08166110  0.08116574  1  0  0.45192  0  1.552836  0  0  0.299749  0  2.00966  0  0  0.329428  0  1.964601  0  0  0.451231  0.27932  0  2.040759  0
Ag  Ag5  1  0.41874793  0.58116284  0.58166636  1  0  0.45183  0  1.552914  0  0  0.299685  0  2.009691  0  0  0.329363  0  1.964634  0  0  0.451197  0.279254  0  2.040787  0
H  H6  1  0.86019459  0.64157638  0.86939741  1  0  0.119  0  0.969654  0  0  0.144662  0  1.025219  0  0  0.145617  0  1.02554  0  0  0.095136  0.143951  0  1.025005  0
H  H7  1  0.62906023  0.86929483  0.64157487  1  0  0.119365  0  0.970725  0  0  0.144645  0  1.026608  0  0  0.145597  0  1.026919  0  0  0.095372  0.143947  0  1.026385  0
H  H8  1  0.36019619  0.36940009  0.14157311  1  0  0.11905  0  0.969604  0  0  0.144689  0  1.025184  0  0  0.14565  0  1.025499  0  0  0.095162  0.14398  0  1.024967  0
H  H9  1  0.12905808  0.14158195  0.36928966  1  0  0.119429  0  0.970719  0  0  0.144739  0  1.026556  0  0  0.145691  0  1.026869  0  0  0.0954  0.144035  0  1.026335  0
H  H10  1  0.05647063  0.51019059  0.90946092  1  0  0.115435  0  0.944578  0  0  0.139249  0  1.001219  0  0  0.140428  0  1.001445  0  0  0.09499  0.138421  0  1.001038  0
H  H11  1  0.52413386  0.90953113  0.51020755  1  0  0.115401  0  0.944359  0  0  0.139279  0  1.000932  0  0  0.140434  0  1.001184  0  0  0.094693  0.138451  0  1.000762  0
H  H12  1  0.55647382  0.40946391  0.01018930  1  0  0.115462  0  0.944505  0  0  0.139289  0  1.001127  0  0  0.140468  0  1.00135  0  0  0.094999  0.13846  0  1.000947  0
H  H13  1  0.02413990  0.01021468  0.40952767  1  0  0.115387  0  0.944386  0  0  0.139237  0  1.000998  0  0  0.140393  0  1.001252  0  0  0.094653  0.138409  0  1.000827  0
H  H14  1  0.01218849  0.57953480  0.75263086  1  0  0.120337  0  0.949201  0  0  0.14285  0  1.008525  0  0  0.144437  0  1.007903  0  0  0.095381  0.141677  0  1.009  0
H  H15  1  0.65584822  0.75261410  0.57949037  1  0  0.120158  0  0.949992  0  0  0.142685  0  1.009255  0  0  0.14426  0  1.008642  0  0  0.095264  0.14149  0  1.00976  0
H  H16  1  0.51218334  0.25263738  0.07952883  1  0  0.120293  0  0.949242  0  0  0.142817  0  1.008543  0  0  0.144402  0  1.007925  0  0  0.09537  0.141642  0  1.009019  0
H  H17  1  0.15585177  0.07949380  0.25261134  1  0  0.120137  0  0.950053  0  0  0.142674  0  1.009296  0  0  0.14427  0  1.008659  0  0  0.095256  0.141476  0  1.009802  0
H  H18  1  0.86277816  0.37015515  0.85635160  1  0  0.119341  0  0.947847  0  0  0.142301  0  1.004917  0  0  0.143617  0  1.005023  0  0  0.096078  0.141266  0  1.004937  0
H  H19  1  0.91026197  0.85676586  0.36980989  1  0  0.119723  0  0.948506  0  0  0.142244  0  1.006011  0  0  0.143582  0  1.006097  0  0  0.096299  0.141223  0  1.006013  0
H  H20  1  0.36277552  0.35634863  0.87016127  1  0  0.119233  0  0.947775  0  0  0.142227  0  1.004813  0  0  0.143547  0  1.004919  0  0  0.096008  0.141192  0  1.004834  0
H  H21  1  0.41026557  0.86980878  0.35676397  1  0  0.119741  0  0.948509  0  0  0.14226  0  1.006023  0  0  0.143599  0  1.006109  0  0  0.096312  0.141239  0  1.006025  0
H  H22  1  0.69491250  0.44142566  0.75072922  1  0  0.107072  0  0.960094  0  0  0.124253  0  1.035148  0  0  0.127064  0  1.031545  0  0  0.086516  0.122161  0  1.037805  0
H  H23  1  0.11224229  0.75104192  0.44129707  1  0  0.108021  0  0.958617  0  0  0.125452  0  1.033025  0  0  0.128212  0  1.029541  0  0  0.087457  0.123383  0  1.035627  0
H  H24  1  0.19490682  0.25072757  0.94142878  1  0  0.107094  0  0.960102  0  0  0.124273  0  1.035143  0  0  0.127083  0  1.031543  0  0  0.086504  0.122176  0  1.037812  0
H  H25  1  0.61224842  0.94130025  0.25103885  1  0  0.108002  0  0.958583  0  0  0.12543  0  1.033003  0  0  0.128189  0  1.029522  0  0  0.087439  0.123363  0  1.035604  0
H  H26  1  0.94867663  0.41181226  0.68841820  1  0  0.131178  0  0.95191  0  0  0.149418  0  1.01427  0  0  0.151222  0  1.014139  0  0  0.098151  0.148121  0  1.014391  0
H  H27  1  0.95043716  0.68880571  0.41166912  1  0  0.131914  0  0.951025  0  0  0.150244  0  1.013288  0  0  0.151951  0  1.013339  0  0  0.098543  0.149002  0  1.013329  0
H  H28  1  0.44867246  0.18841352  0.91182124  1  0  0.131152  0  0.951935  0  0  0.149374  0  1.014322  0  0  0.151174  0  1.014198  0  0  0.098133  0.148079  0  1.014432  0
H  H29  1  0.45044241  0.91166747  0.18880297  1  0  0.131886  0  0.951022  0  0  0.150235  0  1.013269  0  0  0.151944  0  1.013318  0  0  0.098543  0.148993  0  1.01331  0
H  H30  1  0.92945815  0.97129675  0.64077089  1  0  0.124843  0  0.939038  0  0  0.147122  0  0.994278  0  0  0.148389  0  0.994963  0  0  0.096496  0.146201  0  0.993818  0
H  H31  1  0.45896191  0.64053749  0.97138336  1  0  0.126508  0  0.940528  0  0  0.148921  0  0.995389  0  0  0.150184  0  0.996088  0  0  0.097011  0.148007  0  0.994924  0
H  H32  1  0.42945825  0.14077170  0.47129923  1  0  0.124823  0  0.939066  0  0  0.147082  0  0.994329  0  0  0.148349  0  0.995014  0  0  0.096487  0.146162  0  0.993869  0
H  H33  1  0.95896026  0.47138358  0.14053558  1  0  0.126537  0  0.940524  0  0  0.14895  0  0.995378  0  0  0.150213  0  0.996077  0  0  0.097035  0.148035  0  0.994912  0
H  H34  1  0.70356182  0.07622221  0.60551258  1  0  0.122417  0  0.959239  0  0  0.140176  0  1.026293  0  0  0.141944  0  1.025754  0  0  0.094261  0.138854  0  1.026754  0
H  H35  1  0.61488076  0.60540460  0.07633149  1  0  0.122775  0  0.957547  0  0  0.140666  0  1.024597  0  0  0.142421  0  1.024055  0  0  0.094438  0.139353  0  1.025069  0
H  H36  1  0.20356255  0.10551193  0.57622217  1  0  0.122429  0  0.959221  0  0  0.140195  0  1.026261  0  0  0.141963  0  1.025721  0  0  0.094266  0.138872  0  1.026721  0
H  H37  1  0.11487671  0.57633125  0.10540290  1  0  0.122817  0  0.957522  0  0  0.140677  0  1.024601  0  0  0.142433  0  1.024059  0  0  0.094437  0.139365  0  1.02507  0
H  H38  1  0.70900064  0.93796333  0.75140405  1  0  0.10424  0  0.976504  0  0  0.122117  0  1.051695  0  0  0.124774  0  1.047938  0  0  0.088538  0.120049  0  1.054599  0
H  H39  1  0.60206597  0.75116849  0.93797567  1  0  0.104987  0  0.974896  0  0  0.122677  0  1.050297  0  0  0.125332  0  1.046539  0  0  0.088634  0.120609  0  1.053214  0
H  H40  1  0.20900347  0.25140250  0.43796520  1  0  0.104284  0  0.976507  0  0  0.122137  0  1.051721  0  0  0.124786  0  1.047973  0  0  0.088542  0.12007  0  1.054621  0
H  H41  1  0.10206166  0.43797640  0.25116584  1  0  0.104983  0  0.974942  0  0  0.122686  0  1.050322  0  0  0.125342  0  1.046562  0  0  0.088644  0.120609  0  1.053246  0
C  C42  1  0.14034387  0.69175554  0.79242400  1  0  0.375863  0  3.806425  0  0  0.365551  0  4.066676  0  0  0.378151  0  4.086207  0  0  0.193643  0.357135  0  4.053175  0
C  C43  1  0.37553430  0.79242141  0.69180689  1  0  0.373856  0  3.803163  0  0  0.364156  0  4.062811  0  0  0.376735  0  4.082275  0  0  0.192421  0.355776  0  4.049327  0
C  C44  1  0.64033597  0.29242396  0.19175307  1  0  0.375968  0  3.806277  0  0  0.365569  0  4.06663  0  0  0.378187  0  4.086137  0  0  0.193607  0.357153  0  4.053128  0
C  C45  1  0.87552998  0.19180875  0.29241931  1  0  0.373963  0  3.803283  0  0  0.364211  0  4.062985  0  0  0.376784  0  4.082459  0  0  0.192423  0.355831  0  4.049496  0
C  C46  1  0.00986257  0.60126650  0.83324026  1  0  -0.374294  0  3.721209  0  0  -0.453636  0  3.946215  0  0  -0.45676  0  3.953902  0  0  -0.237198  -0.451248  0  3.940807  0
C  C47  1  0.55580549  0.83324325  0.60127693  1  0  -0.373724  0  3.721673  0  0  -0.452956  0  3.946543  0  0  -0.456002  0  3.954203  0  0  -0.236614  -0.450588  0  3.941126  0
C  C48  1  0.50986005  0.33324473  0.10126454  1  0  -0.374309  0  3.721284  0  0  -0.453623  0  3.946329  0  0  -0.456758  0  3.954004  0  0  -0.237184  -0.451236  0  3.940924  0
C  C49  1  0.05580685  0.10128394  0.33323824  1  0  -0.373763  0  3.721713  0  0  -0.452989  0  3.94657  0  0  -0.456057  0  3.954216  0  0  -0.23659  -0.450614  0  3.94116  0
C  C50  1  0.83351785  0.37402678  0.76994561  1  0  -0.37972  0  3.717065  0  0  -0.458656  0  3.951295  0  0  -0.462411  0  3.958229  0  0  -0.234924  -0.4558  0  3.946445  0
C  C51  1  0.02200284  0.77022290  0.37388406  1  0  -0.382664  0  3.718661  0  0  -0.461065  0  3.952729  0  0  -0.464827  0  3.959633  0  0  -0.23582  -0.458204  0  3.947865  0
C  C52  1  0.33351417  0.26993988  0.87403419  1  0  -0.379575  0  3.717049  0  0  -0.45852  0  3.951258  0  0  -0.46228  0  3.958193  0  0  -0.234782  -0.45566  0  3.94641  0
C  C53  1  0.52200798  0.87388238  0.27022157  1  0  -0.38265  0  3.718614  0  0  -0.46109  0  3.952695  0  0  -0.464852  0  3.9596  0  0  -0.235819  -0.458231  0  3.947833  0
C  C54  1  0.78514413  0.01527635  0.68197584  1  0  -0.384477  0  3.733962  0  0  -0.468514  0  3.977959  0  0  -0.4714  0  3.983122  0  0  -0.238204  -0.466277  0  3.974484  0
C  C55  1  0.51787452  0.68183987  0.01529428  1  0  -0.387861  0  3.733725  0  0  -0.472287  0  3.977941  0  0  -0.475164  0  3.983077  0  0  -0.239664  -0.47003  0  3.974397  0
C  C56  1  0.28514432  0.18197533  0.51527821  1  0  -0.384496  0  3.733987  0  0  -0.468515  0  3.977985  0  0  -0.471396  0  3.983152  0  0  -0.238206  -0.466279  0  3.974508  0
C  C57  1  0.01787336  0.51529133  0.18183868  1  0  -0.387942  0  3.733625  0  0  -0.47234  0  3.977821  0  0  -0.475215  0  3.982956  0  0  -0.239693  -0.47008  0  3.974296  0
C  C58  1  0.80233675  0.09109128  0.74708436  1  0  0.39394  0  3.778497  0  0  0.377606  0  4.040975  0  0  0.392141  0  4.057912  0  0  0.202031  0.367883  0  4.029318  0
C  C59  1  0.35950677  0.74705076  0.09103874  1  0  0.392834  0  3.780919  0  0  0.377316  0  4.042084  0  0  0.391827  0  4.059083  0  0  0.203086  0.367615  0  4.03039  0
C  C60  1  0.30233891  0.24708431  0.59109311  1  0  0.39395  0  3.778332  0  0  0.377655  0  4.040752  0  0  0.39219  0  4.057686  0  0  0.202044  0.367932  0  4.029094  0
C  C61  1  0.85950441  0.59104114  0.24704619  1  0  0.392893  0  3.780708  0  0  0.377368  0  4.0419  0  0  0.391876  0  4.058898  0  0  0.203086  0.367667  0  4.030202  0
C  C62  1  0.82536274  0.24505216  0.78593185  1  0  0.392597  0  3.770748  0  0  0.378368  0  4.031079  0  0  0.392174  0  4.050517  0  0  0.202983  0.369193  0  4.01758  0
C  C63  1  0.14343173  0.78600657  0.24501695  1  0  0.394926  0  3.773503  0  0  0.379955  0  4.034611  0  0  0.393808  0  4.054034  0  0  0.202149  0.370741  0  4.021158  0
C  C64  1  0.32536545  0.28592913  0.74505715  1  0  0.392541  0  3.77085  0  0  0.378297  0  4.031208  0  0  0.392105  0  4.050648  0  0  0.202897  0.369123  0  4.017708  0
C  C65  1  0.64343940  0.74501728  0.28600508  1  0  0.394954  0  3.77342  0  0  0.380039  0  4.03447  0  0  0.393892  0  4.053891  0  0  0.202193  0.370824  0  4.021018  0
N  N66  1  0.30225460  0.69786223  0.69765097  1  0  -0.533169  0  3.242042  0  0  -0.453428  0  3.531294  0  0  -0.478081  0  3.543065  0  0  -0.388302  -0.436613  0  3.52278  0
N  N67  1  0.80225065  0.19765303  0.19786050  1  0  -0.533345  0  3.242066  0  0  -0.453549  0  3.531357  0  0  -0.478206  0  3.543122  0  0  -0.388306  -0.436735  0  3.522845  0
N  N68  1  0.11491921  0.77711553  0.84257563  1  0  -0.33557  0  3.157758  0  0  -0.277013  0  3.447684  0  0  -0.293113  0  3.464485  0  0  -0.272887  -0.266081  0  3.436156  0
N  N69  1  0.26554965  0.84221779  0.77751395  1  0  -0.334184  0  3.156979  0  0  -0.275757  0  3.446607  0  0  -0.291756  0  3.463369  0  0  -0.27307  -0.264901  0  3.435108  0
N  N70  1  0.61491598  0.34257626  0.27711990  1  0  -0.33561  0  3.157628  0  0  -0.277025  0  3.447576  0  0  -0.293128  0  3.464367  0  0  -0.272857  -0.26609  0  3.436046  0
N  N71  1  0.76555072  0.27751139  0.34221821  1  0  -0.334214  0  3.157146  0  0  -0.27577  0  3.446771  0  0  -0.291768  0  3.463536  0  0  -0.273086  -0.264915  0  3.435269  0
N  N72  1  0.80547102  0.21767163  0.69170169  1  0  -0.494989  0  3.217361  0  0  -0.409604  0  3.50028  0  0  -0.434527  0  3.513645  0  0  -0.382302  -0.392749  0  3.490753  0
N  N73  1  0.28491075  0.69165580  0.21762161  1  0  -0.494817  0  3.219561  0  0  -0.409393  0  3.502567  0  0  -0.434336  0  3.515886  0  0  -0.383042  -0.392536  0  3.493088  0
N  N74  1  0.30546977  0.19170130  0.71767616  1  0  -0.494981  0  3.21722  0  0  -0.409592  0  3.500108  0  0  -0.434514  0  3.513472  0  0  -0.382248  -0.392737  0  3.490581  0
N  N75  1  0.78491134  0.71761955  0.19165764  1  0  -0.494809  0  3.219651  0  0  -0.409421  0  3.502669  0  0  -0.434364  0  3.515985  0  0  -0.383055  -0.392567  0  3.49319  0
N  N76  1  0.81890326  0.04247598  0.86876605  1  0  -0.338496  0  3.277738  0  0  -0.271786  0  3.57633  0  0  -0.287851  0  3.589623  0  0  -0.292878  -0.261003  0  3.56722  0
N  N77  1  0.27005731  0.86880652  0.04246087  1  0  -0.338498  0  3.278508  0  0  -0.272156  0  3.577003  0  0  -0.288231  0  3.590305  0  0  -0.293429  -0.261367  0  3.567887  0
N  N78  1  0.31890389  0.36876636  0.54247918  1  0  -0.338548  0  3.277728  0  0  -0.271864  0  3.576329  0  0  -0.287927  0  3.589619  0  0  -0.292896  -0.261079  0  3.567215  0
N  N79  1  0.77005401  0.54246103  0.36880493  1  0  -0.338529  0  3.278428  0  0  -0.272178  0  3.576924  0  0  -0.288255  0  3.590227  0  0  -0.293405  -0.261387  0  3.567806  0
N  N80  1  0.83419435  0.14085920  0.89419961  1  0  -0.352091  0  3.239125  0  0  -0.285455  0  3.534082  0  0  -0.30307  0  3.548959  0  0  -0.285489  -0.273591  0  3.523879  0
N  N81  1  0.13081133  0.89429924  0.14085336  1  0  -0.351434  0  3.23635  0  0  -0.284424  0  3.531121  0  0  -0.302137  0  3.546014  0  0  -0.283235  -0.272477  0  3.520905  0
N  N82  1  0.33419945  0.39419617  0.64086430  1  0  -0.352016  0  3.239176  0  0  -0.285373  0  3.53412  0  0  -0.302991  0  3.549  0  0  -0.28549  -0.273508  0  3.523913  0
N  N83  1  0.63081350  0.64085366  0.39430116  1  0  -0.351433  0  3.23622  0  0  -0.284439  0  3.530962  0  0  -0.302153  0  3.54586  0  0  -0.283237  -0.272493  0  3.520745  0
