# generated using pymatgen
data_SrAgH4C6N3O8
_symmetry_space_group_name_H-M   'P 1'
_cell_length_a   6.93323301
_cell_length_b   7.21496393
_cell_length_c   11.21149916
_cell_angle_alpha   79.25096359
_cell_angle_beta   89.23639268
_cell_angle_gamma   74.75425603
_symmetry_Int_Tables_number   1
_chemical_formula_structural   SrAgH4C6N3O8
_chemical_formula_sum   'Sr2 Ag2 H8 C12 N6 O16'
_cell_volume   531.22379057
_cell_formula_units_Z   2
loop_
 _symmetry_equiv_pos_site_id
 _symmetry_equiv_pos_as_xyz
  1  'x, y, z'
loop_
 _atom_site_type_symbol
 _atom_site_label
 _atom_site_symmetry_multiplicity
 _atom_site_fract_x
 _atom_site_fract_y
 _atom_site_fract_z
 _atom_site_occupancy
 _atom_site_hle17_bader_spin_density
 _atom_site_hle17_ddec_charge
 _atom_site_hle17_ddec_spin_density
 _atom_site_hle17_ddec_sum_bond_order
 _atom_site_hle17_magmom
 _atom_site_hse06_10hf_bader_spin_density
 _atom_site_hse06_10hf_ddec_charge
 _atom_site_hse06_10hf_ddec_spin_density
 _atom_site_hse06_10hf_ddec_sum_bond_order
 _atom_site_hse06_10hf_magmom
 _atom_site_hse06_bader_spin_density
 _atom_site_hse06_ddec_charge
 _atom_site_hse06_ddec_spin_density
 _atom_site_hse06_ddec_sum_bond_order
 _atom_site_hse06_magmom
 _atom_site_pbe_bader_spin_density
 _atom_site_pbe_cm5_charge
 _atom_site_pbe_ddec_charge
 _atom_site_pbe_ddec_spin_density
 _atom_site_pbe_ddec_sum_bond_order
 _atom_site_pbe_magmom
Sr  Sr0  1  0.70333794  0.15657225  0.06465998  1  0  1.61864  0  1.062262  0  0  1.471101  0  1.428223  0  0  1.511181  0  1.382448  0  0  0.943413  1.44136  0  1.460697  0
Sr  Sr1  1  0.29666530  0.84342255  0.93534137  1  0  1.61866  0  1.062228  0  0  1.47111  0  1.428171  0  0  1.511195  0  1.382386  0  0  0.943426  1.441366  0  1.460643  0
Ag  Ag2  1  0.24858822  0.70930097  0.37499837  1  0  0.58549  0  1.251293  0  0  0.444136  0  1.653853  0  0  0.471772  0  1.612027  0  0  0.494257  0.425169  0  1.683435  0
Ag  Ag3  1  0.75141490  0.29069966  0.62499959  1  0  0.58549  0  1.251306  0  0  0.444121  0  1.653888  0  0  0.471759  0  1.612061  0  0  0.494257  0.425156  0  1.683477  0
H  H4  1  0.18529052  0.34003491  0.56017070  1  0  0.101114  0  0.981546  0  0  0.104239  0  1.05416  0  0  0.10797  0  1.050534  0  0  0.119838  0.101604  0  1.056815  0
H  H5  1  0.81472115  0.65995548  0.43982847  1  0  0.101084  0  0.981506  0  0  0.104266  0  1.05411  0  0  0.107996  0  1.050484  0  0  0.119777  0.101624  0  1.056776  0
H  H6  1  0.20544865  0.99002182  0.55965213  1  0  0.104848  0  0.991976  0  0  0.109946  0  1.059533  0  0  0.113566  0  1.056408  0  0  0.122662  0.107182  0  1.062048  0
H  H7  1  0.79454189  0.00997735  0.44034519  1  0  0.104794  0  0.992005  0  0  0.109924  0  1.059501  0  0  0.113545  0  1.056382  0  0  0.122655  0.107201  0  1.061973  0
H  H8  1  0.96863939  0.76627883  0.18939179  1  0  0.407221  0  0.911884  0  0  0.374592  0  0.981168  0  0  0.385488  0  0.965094  0  0  0.28631  0.366888  0  0.992525  0
H  H9  1  0.03135585  0.23371890  0.81060835  1  0  0.407205  0  0.911911  0  0  0.374558  0  0.981232  0  0  0.385454  0  0.965159  0  0  0.286292  0.366857  0  0.992586  0
H  H10  1  0.75842897  0.73055751  0.20767407  1  0  0.422101  0  0.871468  0  0  0.393239  0  0.934304  0  0  0.403973  0  0.918301  0  0  0.297935  0.385582  0  0.94571  0
H  H11  1  0.24156612  0.26944608  0.79232714  1  0  0.422129  0  0.871401  0  0  0.393276  0  0.934243  0  0  0.40401  0  0.91824  0  0  0.297951  0.38562  0  0.945655  0
C  C12  1  0.24381372  0.06886680  0.14953245  1  0  0.649203  0  3.985151  0  0  0.591945  0  4.292455  0  0  0.627211  0  4.280713  0  0  0.219962  0.567938  0  4.299633  0
C  C13  1  0.75619042  0.93113532  0.85046889  1  0  0.649258  0  3.985607  0  0  0.591967  0  4.292959  0  0  0.627227  0  4.28123  0  0  0.220099  0.56796  0  4.300134  0
C  C14  1  0.26030434  0.47501592  0.15168035  1  0  0.64448  0  3.933686  0  0  0.588379  0  4.233218  0  0  0.62147  0  4.226103  0  0  0.227245  0.566032  0  4.237271  0
C  C15  1  0.73970327  0.52497884  0.84831652  1  0  0.644549  0  3.933438  0  0  0.588244  0  4.233184  0  0  0.621331  0  4.226067  0  0  0.227218  0.565897  0  4.237237  0
C  C16  1  0.22574408  0.34314681  0.26751619  1  0  0.055746  0  3.650669  0  0  0.050953  0  3.893872  0  0  0.050867  0  3.90959  0  0  0.131558  0.050282  0  3.884275  0
C  C17  1  0.77425864  0.65685530  0.73248249  1  0  0.055411  0  3.650909  0  0  0.050906  0  3.893802  0  0  0.050833  0  3.909505  0  0  0.131528  0.050236  0  3.884202  0
C  C18  1  0.22973801  0.14719671  0.26649969  1  0  0.10022  0  3.616701  0  0  0.094837  0  3.860038  0  0  0.099277  0  3.87203  0  0  0.150094  0.091067  0  3.852994  0
C  C19  1  0.77025605  0.85280541  0.73349993  1  0  0.100322  0  3.616692  0  0  0.094868  0  3.859977  0  0  0.099306  0  3.871969  0  0  0.150053  0.091098  0  3.852931  0
C  C20  1  0.19522956  0.28687143  0.47504376  1  0  0.071592  0  3.658342  0  0  0.041298  0  3.914943  0  0  0.044112  0  3.929804  0  0  0.047792  0.038825  0  3.905729  0
C  C21  1  0.80477620  0.71312480  0.52495383  1  0  0.071648  0  3.658303  0  0  0.041226  0  3.914996  0  0  0.044042  0  3.929855  0  0  0.047775  0.038755  0  3.905788  0
C  C22  1  0.20498250  0.09207543  0.47468820  1  0  0.07933  0  3.653584  0  0  0.04717  0  3.908707  0  0  0.051412  0  3.923717  0  0  0.051565  0.044132  0  3.899333  0
C  C23  1  0.79501930  0.90791937  0.52531315  1  0  0.079313  0  3.653637  0  0  0.047169  0  3.908769  0  0  0.051407  0  3.923786  0  0  0.051598  0.044098  0  3.899374  0
N  N24  1  0.20668400  0.41223816  0.37175468  1  0  -0.244928  0  3.263  0  0  -0.17209  0  3.528709  0  0  -0.184361  0  3.544311  0  0  -0.308003  -0.163622  0  3.518607  0
N  N25  1  0.79333040  0.58775809  0.62824465  1  0  -0.244793  0  3.262978  0  0  -0.172016  0  3.528638  0  0  -0.184292  0  3.544239  0  0  -0.307906  -0.163549  0  3.518535  0
N  N26  1  0.22175850  0.02146008  0.37070914  1  0  -0.263112  0  3.255601  0  0  -0.188504  0  3.533319  0  0  -0.202799  0  3.546086  0  0  -0.310913  -0.178934  0  3.525253  0
N  N27  1  0.77824028  0.97854057  0.62929063  1  0  -0.26308  0  3.255508  0  0  -0.188488  0  3.533245  0  0  -0.20278  0  3.54601  0  0  -0.31092  -0.178921  0  3.525193  0
N  N28  1  0.68262267  0.39143371  0.29080773  1  0  0.690696  0  4.151569  0  0  0.728565  0  4.437342  0  0  0.756704  0  4.444328  0  0  0.09302  0.709802  0  4.431925  0
N  N29  1  0.31737342  0.60857138  0.70919865  1  0  0.690657  0  4.151579  0  0  0.728475  0  4.437427  0  0  0.756612  0  4.444414  0  0  0.09303  0.709712  0  4.432006  0
O  O30  1  0.19893397  0.65916036  0.14476633  1  0  -0.673462  0  2.089  0  0  -0.600533  0  2.329522  0  0  -0.628019  0  2.319107  0  0  -0.334349  -0.581302  0  2.336163  0
O  O31  1  0.80106973  0.34083294  0.85522896  1  0  -0.673513  0  2.088956  0  0  -0.600522  0  2.329568  0  0  -0.628006  0  2.319153  0  0  -0.334366  -0.581291  0  2.33621  0
O  O32  1  0.35506069  0.39250680  0.07120099  1  0  -0.647833  0  1.99987  0  0  -0.592635  0  2.238993  0  0  -0.618704  0  2.231457  0  0  -0.328642  -0.574271  0  2.243478  0
O  O33  1  0.64495176  0.60749674  0.92879478  1  0  -0.647766  0  1.999698  0  0  -0.592505  0  2.238879  0  0  -0.618573  0  2.231348  0  0  -0.328583  -0.57414  0  2.243361  0
O  O34  1  0.41429919  0.97098402  0.12422120  1  0  -0.69044  0  1.983716  0  0  -0.628057  0  2.22385  0  0  -0.656432  0  2.214016  0  0  -0.357796  -0.607572  0  2.229814  0
O  O35  1  0.58569155  0.02901960  0.87578271  1  0  -0.690461  0  1.983681  0  0  -0.628059  0  2.223795  0  0  -0.656456  0  2.214005  0  0  -0.357877  -0.607569  0  2.229754  0
O  O36  1  0.08268375  0.09968163  0.08899555  1  0  -0.673283  0  1.978798  0  0  -0.61096  0  2.221004  0  0  -0.639482  0  2.211625  0  0  -0.349357  -0.590366  0  2.226674  0
O  O37  1  0.91730520  0.90032341  0.91100285  1  0  -0.673352  0  1.979416  0  0  -0.610959  0  2.221546  0  0  -0.639473  0  2.212171  0  0  -0.349397  -0.590368  0  2.227215  0
O  O38  1  0.67128088  0.21714473  0.29374964  1  0  -0.508919  0  1.814006  0  0  -0.493344  0  2.037476  0  0  -0.51152  0  2.033528  0  0  -0.209368  -0.480374  0  2.039971  0
O  O39  1  0.32871562  0.78285889  0.70625513  1  0  -0.508948  0  1.813969  0  0  -0.493304  0  2.0374  0  0  -0.511477  0  2.03345  0  0  -0.209364  -0.480322  0  2.039889  0
O  O40  1  0.73320782  0.48432835  0.19350681  1  0  -0.455636  0  1.776784  0  0  -0.442553  0  1.982251  0  0  -0.456153  0  1.975386  0  0  -0.151436  -0.433212  0  1.986918  0
O  O41  1  0.26679402  0.51567675  0.80650131  1  0  -0.455706  0  1.776725  0  0  -0.442641  0  1.982247  0  0  -0.456238  0  1.975377  0  0  -0.151543  -0.433304  0  1.986924  0
O  O42  1  0.64096841  0.46960444  0.38348739  1  0  -0.49269  0  1.834083  0  0  -0.480375  0  2.090149  0  0  -0.49675  0  2.078659  0  0  -0.195651  -0.468988  0  2.098105  0
O  O43  1  0.35901902  0.53040066  0.61651904  1  0  -0.492585  0  1.83416  0  0  -0.480243  0  2.090213  0  0  -0.496624  0  2.078737  0  0  -0.195587  -0.468866  0  2.098185  0
O  O44  1  0.83120156  0.82985700  0.21160385  1  0  -0.880339  0  1.82678  0  0  -0.831353  0  2.016399  0  0  -0.85078  0  1.983599  0  0  -0.640121  -0.817226  0  2.039193  0
O  O45  1  0.16879682  0.17014512  0.78839574  1  0  -0.880355  0  1.82669  0  0  -0.831369  0  2.01631  0  0  -0.850798  0  1.98352  0  0  -0.640132  -0.817247  0  2.039091  0
