# generated using pymatgen
data_FeH6(C2O3)2
_symmetry_space_group_name_H-M   'P 1'
_cell_length_a   7.84620935
_cell_length_b   9.09738602
_cell_length_c   8.81500443
_cell_angle_alpha   89.93467272
_cell_angle_beta   89.77421042
_cell_angle_gamma   89.96448316
_symmetry_Int_Tables_number   1
_chemical_formula_structural   FeH6(C2O3)2
_chemical_formula_sum   'Fe4 H24 C16 O24'
_cell_volume   629.20956077
_cell_formula_units_Z   4
loop_
 _symmetry_equiv_pos_site_id
 _symmetry_equiv_pos_as_xyz
  1  'x, y, z'
loop_
 _atom_site_type_symbol
 _atom_site_label
 _atom_site_symmetry_multiplicity
 _atom_site_fract_x
 _atom_site_fract_y
 _atom_site_fract_z
 _atom_site_occupancy
 _atom_site_hle17_ddec_charge
 _atom_site_hle17_ddec_spin_density
 _atom_site_hle17_ddec_sum_bond_order
 _atom_site_hle17_magmom
 _atom_site_hse06_10hf_ddec_charge
 _atom_site_hse06_10hf_ddec_spin_density
 _atom_site_hse06_10hf_ddec_sum_bond_order
 _atom_site_hse06_10hf_magmom
 _atom_site_hse06_ddec_charge
 _atom_site_hse06_ddec_spin_density
 _atom_site_hse06_ddec_sum_bond_order
 _atom_site_hse06_magmom
 _atom_site_pbe_cm5_charge
 _atom_site_pbe_ddec_charge
 _atom_site_pbe_ddec_spin_density
 _atom_site_pbe_ddec_sum_bond_order
 _atom_site_pbe_magmom
Fe  Fe0  1  0.10140950  0.07228688  0.88689136  1  1.151566  -3.928959  1.860929  -3.663  1.029905  -3.878289  2.330664  -3.659  1.097232  -3.90966  2.254142  -3.713  0.655381  0.976465  -3.862124  2.387455  -3.606
Fe  Fe1  1  0.39950245  0.92793189  0.38626898  1  1.153592  3.883572  1.875217  3.663  1.032896  3.858181  2.345637  3.66  1.099222  3.884047  2.268765  3.712  0.6596  0.981877  3.838496  2.40417  3.613
Fe  Fe2  1  0.60091218  0.42764081  0.11377438  1  1.154237  3.886631  1.882326  3.664  1.035679  3.861031  2.35244  3.661  1.101046  3.885588  2.27604  3.712  0.661821  0.985104  3.843983  2.411939  3.616
Fe  Fe3  1  0.89759463  0.57291523  0.61170052  1  1.153819  3.892386  1.867622  3.664  1.034508  3.864821  2.336327  3.661  1.100769  3.891187  2.260321  3.713  0.659915  0.984028  3.846873  2.393323  3.614
H  H4  1  0.00120366  0.33958309  0.03225979  1  0.430379  4.6e-05  0.853421  0.0  0.398404  -8.5e-05  0.925941  0.0  0.409568  -7.9e-05  0.909928  0.0  0.300799  0.390589  -5.1e-05  0.937109  0.0
H  H5  1  0.49883015  0.65979870  0.53482647  1  0.429258  -0.000272  0.856637  0.0  0.397603  -5.6e-05  0.92795  0.0  0.408689  -0.000211  0.912066  0.0  0.30017  0.389767  9.5e-05  0.939121  0.001
H  H6  1  0.49969282  0.16043991  0.96507344  1  0.429858  8.8e-05  0.857341  0.0  0.39866  0.000279  0.926807  0.0  0.409692  0.000208  0.911004  0.0  0.300105  0.390688  0.000332  0.938189  0.0
H  H7  1  0.99985327  0.83960247  0.46588159  1  0.431211  -0.000346  0.853502  0.0  0.398821  -0.000194  0.926404  0.0  0.409927  -0.000288  0.910492  0.0  0.300381  0.390982  -0.000106  0.937595  0.0
H  H8  1  0.03416857  0.35411783  0.85429386  1  0.433766  -0.000138  0.85634  0.0  0.401071  -0.000418  0.932056  0.0  0.412093  -0.000378  0.916015  0.0  0.304478  0.392802  -0.000283  0.944083  0.0
H  H9  1  0.46952066  0.64490044  0.35685206  1  0.43409  -0.00033  0.855683  0.0  0.401221  -9.2e-05  0.931663  0.0  0.412084  -0.000208  0.915837  0.0  0.305074  0.393353  -0.000148  0.94309  0.0
H  H10  1  0.52849458  0.14599068  0.14340839  1  0.433305  -0.0003  0.856984  0.0  0.400207  -6.1e-05  0.933396  0.0  0.411122  -0.000177  0.917503  0.0  0.304336  0.392422  -0.00013  0.944684  0.0
H  H11  1  0.96773761  0.85307692  0.64428691  1  0.433728  7.1e-05  0.855218  0.0  0.400867  0.000331  0.931961  0.0  0.411877  0.000281  0.915926  0.0  0.304894  0.392798  0.000194  0.943702  0.0
H  H12  1  0.84188771  0.99383122  0.26107028  1  0.072193  -0.000264  0.911289  0.0  0.082875  -0.000335  0.966925  0.0  0.085303  -0.000338  0.964937  0.0  0.119101  0.081024  -0.000284  0.968274  0.0
H  H13  1  0.65891178  0.00549974  0.75788570  1  0.072171  0.000284  0.908624  0.0  0.083091  0.000385  0.964705  0.0  0.085513  0.000354  0.962669  0.0  0.119539  0.081225  0.000381  0.966232  0.0
H  H14  1  0.34437618  0.50737933  0.74129275  1  0.072106  -0.000239  0.909899  0.0  0.082887  -7.7e-05  0.965852  0.0  0.085283  -0.000121  0.963805  0.0  0.119334  0.080926  -0.000136  0.967329  0.0
H  H15  1  0.15516603  0.49176002  0.23697500  1  0.071711  -0.000222  0.910645  0.0  0.081889  -7.8e-05  0.967659  0.0  0.084276  -0.000127  0.965605  0.0  0.11881  0.079942  -0.000122  0.969032  0.0
H  H16  1  0.76366302  0.08727880  0.04102645  1  0.395376  -0.000426  0.885974  -0.001  0.371542  -0.000464  0.953227  -0.001  0.382536  -0.000414  0.941094  -0.001  0.301653  0.363326  -0.000593  0.962256  -0.002
H  H17  1  0.73576580  0.91313834  0.53790557  1  0.394029  0.000304  0.889532  0.001  0.370378  0.000427  0.956193  0.001  0.381192  0.00027  0.944382  0.001  0.301334  0.362553  0.000535  0.964612  0.002
H  H18  1  0.26629074  0.41321023  0.96096987  1  0.394439  0.000445  0.888998  0.001  0.370569  0.000528  0.955788  0.002  0.381312  0.000438  0.944139  0.001  0.301942  0.362722  0.000647  0.964231  0.002
H  H19  1  0.23401910  0.58683877  0.45822248  1  0.396343  0.000424  0.886065  0.002  0.372557  0.000567  0.952777  0.002  0.383476  0.000361  0.940771  0.002  0.302324  0.364421  0.000693  0.961662  0.002
H  H20  1  0.86347778  0.74539749  0.02935727  1  0.145314  -0.000201  0.912219  0.0  0.157761  -7.7e-05  0.97055  0.0  0.161062  -4.3e-05  0.968809  0.0  0.114047  0.154978  -0.000259  0.972099  -0.001
H  H21  1  0.64027024  0.25730766  0.52947638  1  0.145062  -0.000298  0.911617  0.0  0.158168  -0.000399  0.969461  0.0  0.16129  -0.000363  0.967864  0.0  0.114489  0.156158  -0.000475  0.970345  0.0
H  H22  1  0.35858834  0.75639420  0.97227566  1  0.144316  6.5e-05  0.911155  0.0  0.157796  0.00014  0.968672  0.0  0.160906  7.4e-05  0.967097  0.0  0.114093  0.155579  0.000222  0.969777  0.001
H  H23  1  0.13791423  0.24763579  0.47411333  1  0.144776  -0.000294  0.913627  0.0  0.157926  -0.000181  0.971111  0.0  0.161252  -0.000151  0.969402  0.0  0.113987  0.154948  -0.000364  0.972834  0.0
H  H24  1  0.90740892  0.71191635  0.22268484  1  0.121628  -0.000225  0.941199  0.0  0.135533  -0.000138  1.001916  0.0  0.13764  -0.000129  1.001666  0.0  0.109155  0.133438  -0.00033  1.002741  0.0
H  H25  1  0.59525648  0.28815201  0.72326001  1  0.121423  -0.00047  0.941417  -0.001  0.135759  -0.000563  1.001921  -0.001  0.137702  -0.000439  1.001829  0.0  0.109746  0.134306  -0.000718  1.002146  -0.001
H  H26  1  0.40544975  0.78990262  0.77917419  1  0.121355  0.000323  0.943101  0.001  0.135228  0.000421  1.004365  0.001  0.137128  0.00026  1.004348  0.001  0.109608  0.133659  0.000612  1.00462  0.001
H  H27  1  0.09218275  0.20970591  0.28229127  1  0.121648  0.000203  0.942406  0.0  0.134997  0.000373  1.003886  0.0  0.137163  0.000314  1.003629  0.0  0.109074  0.132881  0.000282  1.004636  0.0
C  C28  1  0.90472406  0.94308333  0.16200131  1  0.135324  0.000478  3.650825  0.001  0.112362  0.00016  3.901854  0.0  0.114773  0.000109  3.909708  0.0  -0.002122  0.110453  0.000184  3.896647  0.0
C  C29  1  0.59621109  0.05769239  0.65986536  1  0.138924  -0.000393  3.642921  -0.001  0.113939  7.5e-05  3.897638  0.0  0.116571  3e-05  3.905036  0.0  -0.001943  0.111618  6.2e-05  3.893149  0.0
C  C30  1  0.40616388  0.55874707  0.84000404  1  0.13733  0.001812  3.647063  0.004  0.112854  0.001842  3.900249  0.003  0.115539  0.001209  3.907627  0.002  -0.002348  0.110678  0.00254  3.895759  0.004
C  C31  1  0.09302615  0.44216073  0.33703166  1  0.139014  0.001967  3.648082  0.004  0.113866  0.002039  3.901793  0.003  0.116591  0.001311  3.909293  0.002  -0.002381  0.111952  0.002811  3.896757  0.005
C  C32  1  0.09629058  0.94476154  0.19202639  1  0.639693  0.000285  3.814772  0.0  0.586126  -0.000176  4.121025  -0.001  0.620573  -0.000349  4.115959  -0.001  0.220971  0.561305  0.000285  4.124212  0.0
C  C33  1  0.40472959  0.05552256  0.69134521  1  0.637327  -0.000298  3.815  0.0  0.584486  0.000194  4.12184  0.001  0.619074  0.000364  4.116349  0.001  0.219609  0.559455  -0.000259  4.125365  0.0
C  C34  1  0.59768439  0.55764299  0.80927130  1  0.636712  -0.002318  3.817558  -0.004  0.585259  0.001552  4.122398  0.003  0.619981  0.001308  4.116809  0.003  0.218973  0.559129  -0.000503  4.12665  -0.001
C  C35  1  0.90146614  0.44206492  0.30782360  1  0.635848  -0.002662  3.818427  -0.004  0.584321  0.001414  4.12319  0.002  0.619034  0.001227  4.117715  0.003  0.218414  0.557812  -0.001189  4.127914  -0.002
C  C36  1  0.65124552  0.77170355  0.18368288  1  0.740527  -0.002333  3.766944  -0.002  0.690441  0.002243  4.065252  0.005  0.728558  0.002986  4.055939  0.007  0.225635  0.659563  -0.003587  4.073913  -0.004
C  C37  1  0.85082152  0.22730671  0.68360663  1  0.740092  -0.006022  3.770861  -0.009  0.689352  -0.006095  4.070462  -0.009  0.726591  -0.004125  4.06202  -0.006  0.227787  0.662349  -0.009034  4.075596  -0.012
C  C38  1  0.15019794  0.72665804  0.81550708  1  0.738529  0.005334  3.774913  0.008  0.689826  0.005488  4.072839  0.008  0.72695  0.003664  4.064269  0.005  0.226514  0.662554  0.0083  4.078639  0.011
C  C39  1  0.34816385  0.27224093  0.31713291  1  0.739278  -0.002225  3.768767  -0.002  0.69048  0.002228  4.065952  0.005  0.728553  0.002947  4.056599  0.006  0.225213  0.659547  -0.003657  4.074763  -0.005
C  C40  1  0.83894231  0.78562917  0.14500383  1  -0.322105  0.001562  3.622686  0.003  -0.365908  0.001151  3.868083  0.002  -0.372162  0.000753  3.872694  0.002  -0.164334  -0.361159  0.001594  3.86662  0.004
C  C41  1  0.66333535  0.21494501  0.64448963  1  -0.322968  -0.001003  3.617535  -0.001  -0.367111  -0.001082  3.864496  -0.001  -0.373245  -0.000845  3.869312  -0.001  -0.164637  -0.362881  -0.001417  3.861508  -0.001
C  C42  1  0.33730328  0.71533059  0.85657906  1  -0.322274  0.000767  3.618422  0.001  -0.367229  0.000963  3.865936  0.001  -0.373367  0.000665  3.870888  0.001  -0.16475  -0.36288  0.001236  3.86304  0.001
C  C43  1  0.16076617  0.28555077  0.35731287  1  -0.322822  0.001367  3.622252  0.003  -0.366679  0.001164  3.867911  0.002  -0.373192  0.00073  3.8727  0.002  -0.1649  -0.36186  0.001458  3.866554  0.003
O  O44  1  0.58125891  0.64574167  0.18440157  1  -0.658777  0.026136  2.163464  0.047  -0.598927  0.02642  2.434561  0.043  -0.631986  0.021917  2.420124  0.035  -0.310984  -0.573433  0.032069  2.443925  0.055
O  O45  1  0.92247272  0.35242797  0.68354352  1  -0.658842  0.018774  2.155167  0.031  -0.598768  0.018204  2.424753  0.026  -0.631625  0.01604  2.410929  0.022  -0.308502  -0.573583  0.020711  2.432898  0.031
O  O46  1  0.07646038  0.85099460  0.81774670  1  -0.659495  -0.019088  2.149964  -0.031  -0.599801  -0.018243  2.419217  -0.026  -0.632628  -0.016161  2.405164  -0.022  -0.309243  -0.574967  -0.020692  2.428227  -0.031
O  O47  1  0.41932022  0.14662330  0.31693362  1  -0.659814  0.025886  2.161655  0.046  -0.600153  0.026064  2.433107  0.042  -0.633337  0.021713  2.418582  0.034  -0.311381  -0.574917  0.031665  2.442955  0.054
O  O48  1  0.08425826  0.31433991  0.95024723  1  -0.815565  -0.014815  1.931109  -0.023  -0.759598  -0.016811  2.143226  -0.023  -0.783951  -0.014759  2.107033  -0.02  -0.548401  -0.740651  -0.019268  2.168887  -0.027
O  O49  1  0.41745008  0.68493587  0.45195276  1  -0.816061  0.014943  1.924835  0.024  -0.760756  0.01754  2.135962  0.026  -0.784862  0.014924  2.100001  0.022  -0.54929  -0.741169  0.02084  2.160032  0.031
O  O50  1  0.58050983  0.18607284  0.04824234  1  -0.816791  0.014724  1.930138  0.023  -0.761846  0.017125  2.141252  0.024  -0.786256  0.014782  2.105678  0.021  -0.549268  -0.742035  0.020097  2.165317  0.029
O  O51  1  0.91728732  0.81405314  0.54838412  1  -0.816842  0.015435  1.933489  0.025  -0.761152  0.017706  2.147923  0.025  -0.785578  0.015283  2.111826  0.022  -0.548911  -0.742199  0.020546  2.173409  0.031
O  O52  1  0.57150605  0.88841340  0.22171709  1  -0.646382  0.029583  2.095107  0.04  -0.585068  0.028815  2.368716  0.033  -0.616767  0.024809  2.350856  0.025  -0.325684  -0.561471  0.034272  2.383958  0.046
O  O53  1  0.92837222  0.11002316  0.72269745  1  -0.644333  -0.029054  2.092288  -0.039  -0.582678  -0.029149  2.365509  -0.034  -0.614668  -0.025202  2.348564  -0.027  -0.324406  -0.558318  -0.03275  2.37677  -0.04
O  O54  1  0.07552728  0.60933680  0.77315460  1  -0.642921  0.027939  2.093422  0.039  -0.584129  0.027999  2.366626  0.034  -0.615679  0.024183  2.349709  0.027  -0.32421  -0.560929  0.031638  2.378716  0.04
O  O55  1  0.42627852  0.38913696  0.27749659  1  -0.6446  0.028908  2.095942  0.04  -0.585919  0.028026  2.370154  0.033  -0.617119  0.024099  2.352111  0.025  -0.325631  -0.562745  0.033429  2.385649  0.046
O  O56  1  0.19567718  0.00182278  0.09568748  1  -0.594905  -0.025679  2.081158  -0.038  -0.543691  -0.023818  2.34945  -0.031  -0.575287  -0.020871  2.33753  -0.025  -0.299721  -0.520757  -0.026877  2.358644  -0.037
O  O57  1  0.30549741  0.99777696  0.59617739  1  -0.594725  0.025314  2.080077  0.038  -0.544246  0.023656  2.34842  0.031  -0.575387  0.020673  2.335949  0.026  -0.299977  -0.521455  0.026474  2.358034  0.037
O  O58  1  0.69702132  0.50090767  0.90489877  1  -0.59208  0.025634  2.084997  0.041  -0.54383  0.024894  2.353334  0.036  -0.57473  0.021301  2.340908  0.029  -0.297927  -0.521131  0.029265  2.363347  0.045
O  O59  1  0.80191318  0.49753619  0.40476362  1  -0.594045  0.025977  2.086976  0.042  -0.544824  0.025134  2.35574  0.036  -0.575789  0.021445  2.342945  0.029  -0.299101  -0.522773  0.029578  2.366519  0.046
O  O60  1  0.14605597  0.88913522  0.31843964  1  -0.639933  0.022213  2.065668  0.032  -0.576097  0.02184  2.325455  0.027  -0.609587  0.018522  2.313194  0.022  -0.309541  -0.550905  0.025586  2.332772  0.033
O  O61  1  0.35487490  0.11071491  0.81814776  1  -0.638954  -0.022616  2.067216  -0.032  -0.576287  -0.02185  2.328294  -0.027  -0.609626  -0.018662  2.315667  -0.022  -0.309475  -0.550899  -0.025457  2.33525  -0.032
O  O62  1  0.64726118  0.61275306  0.68192057  1  -0.640645  0.026594  2.064745  0.039  -0.577541  0.027143  2.324877  0.035  -0.611365  0.02289  2.312444  0.028  -0.311705  -0.551815  0.032092  2.332525  0.043
O  O63  1  0.85192589  0.38670778  0.18115923  1  -0.639141  0.02649  2.06326  0.039  -0.576211  0.02704  2.322098  0.035  -0.609898  0.02282  2.309947  0.028  -0.311239  -0.550922  0.031789  2.330803  0.043
O  O64  1  0.87106829  0.02857264  0.02986162  1  -0.58826  -0.012989  2.199723  -0.02  -0.535991  -0.014435  2.449156  -0.02  -0.557619  -0.012522  2.436172  -0.017  -0.393942  -0.518758  -0.016652  2.457548  -0.024
O  O65  1  0.62989283  0.97380268  0.52656748  1  -0.58929  0.013309  2.199577  0.021  -0.536351  0.015141  2.449273  0.022  -0.558137  0.012914  2.436727  0.018  -0.394061  -0.518776  0.017567  2.456954  0.026
O  O66  1  0.37264166  0.47310457  0.97235850  1  -0.588546  0.014088  2.203034  0.022  -0.535033  0.016141  2.452737  0.023  -0.556951  0.013802  2.440328  0.019  -0.394123  -0.517333  0.018876  2.460581  0.027
O  O67  1  0.12484740  0.53038601  0.46732574  1  -0.590181  0.014124  2.207147  0.022  -0.536289  0.016289  2.45712  0.023  -0.558349  0.013822  2.444522  0.019  -0.394168  -0.518651  0.019157  2.465025  0.028
