# generated using pymatgen
data_H14PbC16Cl2O5
_symmetry_space_group_name_H-M   'P 1'
_cell_length_a   7.23347892
_cell_length_b   9.75819659
_cell_length_c   12.72519267
_cell_angle_alpha   85.49344484
_cell_angle_beta   83.95930106
_cell_angle_gamma   72.11904099
_symmetry_Int_Tables_number   1
_chemical_formula_structural   H14PbC16Cl2O5
_chemical_formula_sum   'H28 Pb2 C32 Cl4 O10'
_cell_volume   849.06700995
_cell_formula_units_Z   2
loop_
 _symmetry_equiv_pos_site_id
 _symmetry_equiv_pos_as_xyz
  1  'x, y, z'
loop_
 _atom_site_type_symbol
 _atom_site_label
 _atom_site_symmetry_multiplicity
 _atom_site_fract_x
 _atom_site_fract_y
 _atom_site_fract_z
 _atom_site_occupancy
 _atom_site_pbe_bader_spin_density
 _atom_site_pbe_cm5_charge
 _atom_site_pbe_ddec_charge
 _atom_site_pbe_ddec_spin_density
 _atom_site_pbe_ddec_sum_bond_order
 _atom_site_pbe_magmom
H  H0  1  0.61618957  0.08588977  0.93456359  1  0  0.106372  0.118277  0  1.013676  0
H  H1  1  0.38379686  0.91413487  0.06542423  1  0  0.106401  0.118291  0  1.013573  0
H  H2  1  0.31270437  0.14521743  0.84667733  1  0  0.107117  0.120973  0  1.0144  0
H  H3  1  0.68727653  0.85478013  0.15330718  1  0  0.107112  0.120968  0  1.014394  0
H  H4  1  0.64845762  0.03626620  0.54695634  1  0  0.089182  0.093596  0  1.067513  0
H  H5  1  0.35156554  0.96376384  0.45302750  1  0  0.089135  0.093546  0  1.067648  0
H  H6  1  0.95337571  0.98021476  0.63590694  1  0  0.087587  0.086476  0  1.050853  0
H  H7  1  0.04663157  0.01980594  0.36409650  1  0  0.087566  0.086467  0  1.050946  0
H  H8  1  0.96550783  0.03841731  0.92317669  1  0  0.106656  0.134829  0  0.984843  0
H  H9  1  0.03448849  0.96157618  0.07681826  1  0  0.106652  0.134873  0  0.98478  0
H  H10  1  0.10285898  0.02961596  0.80000527  1  0  0.091569  0.109624  0  1.050469  0
H  H11  1  0.89713603  0.97036691  0.19999757  1  0  0.091549  0.109591  0  1.050461  0
H  H12  1  0.34998091  0.26079458  0.30997053  1  0  0.100422  0.110002  0  1.006788  0
H  H13  1  0.65002995  0.73921150  0.69000544  1  0  0.100429  0.110028  0  1.006771  0
H  H14  1  0.66805432  0.16040123  0.38684044  1  0  0.091429  0.097391  0  1.052414  0
H  H15  1  0.33196226  0.83959086  0.61313698  1  0  0.091402  0.097339  0  1.052338  0
H  H16  1  0.71008705  0.58956571  0.40106632  1  0  0.092956  0.10448  0  1.046245  0
H  H17  1  0.28993050  0.41044393  0.59892397  1  0  0.092981  0.104532  0  1.046317  0
H  H18  1  0.39338298  0.68940882  0.32151418  1  0  0.094418  0.099607  0  1.059629  0
H  H19  1  0.60660109  0.31060356  0.67850606  1  0  0.094451  0.099673  0  1.059711  0
H  H20  1  0.06625020  0.47511815  0.27777187  1  0  0.101193  0.124  0  1.011244  0
H  H21  1  0.93375151  0.52486892  0.72222480  1  0  0.101192  0.124033  0  1.011167  0
H  H22  1  0.07995160  0.65069020  0.28935074  1  0  0.096176  0.119358  0  1.020023  0
H  H23  1  0.92000711  0.34933369  0.71065518  1  0  0.096255  0.119459  0  1.02014  0
H  H24  1  0.24249507  0.24895113  0.08409803  1  0  0.286818  0.387927  0  0.947656  0
H  H25  1  0.75749391  0.75105328  0.91590285  1  0  0.28682  0.388001  0  0.94757  0
H  H26  1  0.46887825  0.23938927  0.07253319  1  0  0.299069  0.396786  0  0.923681  0
H  H27  1  0.53110348  0.76060883  0.92747639  1  0  0.299117  0.39693  0  0.923474  0
Pb  Pb28  1  0.26699736  0.50705215  0.90875025  1  0  0.653719  1.140174  0  1.781415  0
Pb  Pb29  1  0.73302112  0.49292429  0.09125252  1  0  0.653724  1.140227  0  1.781549  0
C  C30  1  0.80744335  0.02802521  0.79196936  1  0  -0.012351  0.138447  0  3.969595  0
C  C31  1  0.19256742  0.97197702  0.20802811  1  0  -0.012339  0.138351  0  3.969548  0
C  C32  1  0.62545535  0.07392863  0.84960933  1  0  -0.082617  -0.108716  0  3.936961  0
C  C33  1  0.37455117  0.92606376  0.15038356  1  0  -0.082657  -0.108677  0  3.93712  0
C  C34  1  0.45245487  0.10728347  0.80024867  1  0  -0.096466  -0.162581  0  4.012507  0
C  C35  1  0.54754905  0.89271206  0.19973942  1  0  -0.096482  -0.16261  0  4.012498  0
C  C36  1  0.46370233  0.09247197  0.69149120  1  0  0.006404  0.134354  0  4.04176  0
C  C37  1  0.53630972  0.90754090  0.30849916  1  0  0.006528  0.134493  0  4.041362  0
C  C38  1  0.64276389  0.04642478  0.63183850  1  0  -0.105865  -0.159328  0  4.029784  0
C  C39  1  0.35725708  0.95355919  0.36816282  1  0  -0.105777  -0.159092  0  4.029785  0
C  C40  1  0.81346768  0.01564141  0.68259224  1  0  -0.095258  -0.126615  0  3.988577  0
C  C41  1  0.18653740  0.98438467  0.31741017  1  0  -0.095291  -0.126818  0  3.988738  0
C  C42  1  0.99247508  0.98862978  0.84624287  1  0  -0.162939  -0.347026  0  3.925399  0
C  C43  1  0.00752182  0.01135195  0.15375758  1  0  -0.162851  -0.346778  0  3.925206  0
C  C44  1  0.08652931  0.82613848  0.86545986  1  0  0.209603  0.634795  0  4.14144  0
C  C45  1  0.91345627  0.17383354  0.13454190  1  0  0.209314  0.63407  0  4.141553  0
C  C46  1  0.34962872  0.48248571  0.30987203  1  0  -0.016099  0.125481  0  3.994901  0
C  C47  1  0.65036620  0.51751439  0.69012882  1  0  -0.016113  0.125587  0  3.995052  0
C  C48  1  0.42831801  0.33363070  0.32941425  1  0  -0.087691  -0.114943  0  3.945601  0
C  C49  1  0.57168983  0.66635781  0.67059849  1  0  -0.087548  -0.114793  0  3.946082  0
C  C50  1  0.60698797  0.27637794  0.37309942  1  0  -0.100897  -0.147862  0  3.999464  0
C  C51  1  0.39302691  0.72362038  0.62691696  1  0  -0.100995  -0.147986  0  3.999631  0
C  C52  1  0.70719290  0.36929205  0.39810661  1  0  0.009222  0.143054  0  4.052949  0
C  C53  1  0.29281426  0.63072612  0.60187972  1  0  0.009247  0.143105  0  4.053132  0
C  C54  1  0.63196905  0.51811992  0.37950207  1  0  -0.103033  -0.171086  0  4.040329  0
C  C55  1  0.36798945  0.48190748  0.62051619  1  0  -0.103042  -0.17105  0  4.04049  0
C  C56  1  0.45372242  0.57328836  0.33532675  1  0  -0.094992  -0.144749  0  4.007965  0
C  C57  1  0.54626330  0.42671387  0.66467367  1  0  -0.095067  -0.145027  0  4.007948  0
C  C58  1  0.16126368  0.54421396  0.25919808  1  0  -0.158785  -0.350679  0  3.931013  0
C  C59  1  0.83871467  0.45578867  0.74082159  1  0  -0.158908  -0.350909  0  3.931171  0
C  C60  1  0.18645284  0.56393330  0.13917316  1  0  0.226085  0.660335  0  4.102977  0
C  C61  1  0.81356855  0.43606610  0.86084278  1  0  0.226329  0.660801  0  4.102431  0
Cl  Cl62  1  0.25038159  0.13662896  0.62677481  1  0  0.02782  -0.066041  0  1.674847  0
Cl  Cl63  1  0.74964443  0.86333966  0.37321551  1  0  0.027747  -0.066124  0  1.674706  0
Cl  Cl64  1  0.92824280  0.30098400  0.45399521  1  0  0.005527  -0.072232  0  1.612114  0
Cl  Cl65  1  0.07175217  0.69901935  0.54600619  1  0  0.005546  -0.072231  0  1.612105  0
O  O66  1  0.25878565  0.78269660  0.89470137  1  0  -0.313525  -0.586407  0  2.160999  0
O  O67  1  0.74119405  0.21728298  0.10530098  1  0  -0.313394  -0.586102  0  2.16099  0
O  O68  1  0.98931623  0.74047451  0.85143237  1  0  -0.30948  -0.587675  0  2.202625  0
O  O69  1  0.01063577  0.25953200  0.14856963  1  0  -0.309385  -0.587407  0  2.20248  0
O  O70  1  0.35316391  0.55622614  0.09197780  1  0  -0.285233  -0.579583  0  2.290914  0
O  O71  1  0.64687019  0.44376583  0.90804267  1  0  -0.285193  -0.579734  0  2.291105  0
O  O72  1  0.03835774  0.58655930  0.08655867  1  0  -0.294716  -0.583235  0  2.223203  0
O  O73  1  0.96168073  0.41342589  0.91344710  1  0  -0.294894  -0.583459  0  2.222964  0
O  O74  1  0.35217051  0.26013805  0.03382499  1  0  -0.569436  -0.771273  0  1.994601  0
O  O75  1  0.64782443  0.73986204  0.96617507  1  0  -0.569522  -0.771502  0  1.994317  0
