# generated using pymatgen
data_ZnH7C5N3O2
_symmetry_space_group_name_H-M   'P 1'
_cell_length_a   11.37103709
_cell_length_b   13.75798941
_cell_length_c   13.76014341
_cell_angle_alpha   80.14286477
_cell_angle_beta   65.57182876
_cell_angle_gamma   65.59331776
_symmetry_Int_Tables_number   1
_chemical_formula_structural   ZnH7C5N3O2
_chemical_formula_sum   'Zn8 H56 C40 N24 O16'
_cell_volume   1784.81480722
_cell_formula_units_Z   8
loop_
 _symmetry_equiv_pos_site_id
 _symmetry_equiv_pos_as_xyz
  1  'x, y, z'
loop_
 _atom_site_type_symbol
 _atom_site_label
 _atom_site_symmetry_multiplicity
 _atom_site_fract_x
 _atom_site_fract_y
 _atom_site_fract_z
 _atom_site_occupancy
 _atom_site_pbe_bader_charge
 _atom_site_pbe_bader_spin_density
 _atom_site_pbe_cm5_charge
 _atom_site_pbe_ddec_charge
 _atom_site_pbe_ddec_spin_density
 _atom_site_pbe_ddec_sum_bond_order
 _atom_site_pbe_magmom
Zn  Zn0  1  0.33746881  0.47277704  0.54776485  1  1.231603  0  0.713697  0.687445  0  2.49503  0
Zn  Zn1  1  0.85814837  0.02725596  0.95224632  1  1.226859  0  0.713086  0.686566  0  2.493554  0
Zn  Zn2  1  0.81024098  0.04779881  0.52735611  1  1.230334  0  0.713247  0.686848  0  2.49118  0
Zn  Zn3  1  0.88506516  0.45235183  0.97288600  1  1.227649  0  0.713236  0.686554  0  2.493974  0
Zn  Zn4  1  0.66253478  0.52722278  0.45223453  1  1.231657  0  0.713696  0.687456  0  2.49506  0
Zn  Zn5  1  0.14185010  0.97274466  0.04775392  1  1.227055  0  0.713108  0.686605  0  2.493449  0
Zn  Zn6  1  0.18975909  0.95220261  0.47264407  1  1.2303  0  0.713249  0.6869  0  2.491152  0
Zn  Zn7  1  0.11493643  0.54764799  0.02711345  1  1.22767  0  0.713224  0.686546  0  2.494009  0
H  H8  1  0.91424208  0.35290424  0.42318056  1  0.081624  0  0.10339  0.150395  0  1.020363  0
H  H9  1  0.19042927  0.14710387  0.07674207  1  0.056691  0  0.103584  0.150958  0  1.018714  0
H  H10  1  0.26741436  0.92325221  0.64709604  1  0.079892  0  0.103159  0.150439  0  1.019595  0
H  H11  1  0.33746405  0.57668126  0.85276420  1  0.078137  0  0.103205  0.150296  0  1.019798  0
H  H12  1  0.08576109  0.64709478  0.57682061  1  0.081627  0  0.103406  0.150429  0  1.020329  0
H  H13  1  0.80957349  0.85289436  0.92325315  1  0.056632  0  0.103592  0.150972  0  1.01874  0
H  H14  1  0.73258754  0.07674682  0.35290446  1  0.079891  0  0.103146  0.150431  0  1.019609  0
H  H15  1  0.66253353  0.42332495  0.14723703  1  0.078141  0  0.103198  0.150287  0  1.019836  0
H  H16  1  0.96679212  0.22372734  0.37356260  1  0.05176  0  0.102119  0.155355  0  0.981916  0
H  H17  1  0.06412518  0.27626801  0.12634466  1  0.050166  0  0.102495  0.155634  0  0.981758  0
H  H18  1  0.19075070  0.87356470  0.77629089  1  0.067008  0  0.103331  0.155417  0  0.981577  0
H  H19  1  0.34038169  0.62642863  0.72360134  1  0.06752  0  0.101689  0.154876  0  0.982179  0
H  H20  1  0.03321218  0.77627089  0.62643784  1  0.051773  0  0.102095  0.155348  0  0.982011  0
H  H21  1  0.93587772  0.72373101  0.87365195  1  0.050085  0  0.102495  0.155655  0  0.981738  0
H  H22  1  0.80924904  0.12643592  0.22371001  1  0.066988  0  0.103318  0.155376  0  0.981528  0
H  H23  1  0.65961142  0.37357598  0.27639936  1  0.067561  0  0.101688  0.15489  0  0.982136  0
H  H24  1  0.94835324  0.23767718  0.50407316  1  0.099843  0  0.110466  0.181432  0  0.98098  0
H  H25  1  0.19036745  0.26235381  0.99588818  1  0.123512  0  0.110451  0.181395  0  0.978999  0
H  H26  1  0.18629565  0.00406668  0.76231598  1  0.118806  0  0.110062  0.180923  0  0.979382  0
H  H27  1  0.45248040  0.49589934  0.73750839  1  0.127018  0  0.109777  0.180749  0  0.979172  0
H  H28  1  0.05164793  0.76232184  0.49592807  1  0.099921  0  0.110475  0.181471  0  0.980998  0
H  H29  1  0.80963531  0.73764442  0.00410704  1  0.123556  0  0.110464  0.181385  0  0.979021  0
H  H30  1  0.81370595  0.99593315  0.23768347  1  0.118819  0  0.110069  0.18094  0  0.979351  0
H  H31  1  0.54752247  0.50410846  0.26249159  1  0.126923  0  0.109787  0.180749  0  0.979157  0
H  H32  1  0.49544770  0.21703853  0.57577256  1  0.156884  0  0.14864  0.120366  0  0.972356  0
H  H33  1  0.78810924  0.28328685  0.92455272  1  0.181351  0  0.148012  0.119383  0  0.972371  0
H  H34  1  0.71280098  0.07569971  0.78315560  1  0.192303  0  0.148213  0.119555  0  0.973461  0
H  H35  1  0.07136173  0.42405545  0.71705182  1  0.172731  0  0.148429  0.119904  0  0.971437  0
H  H36  1  0.50455398  0.78296129  0.42422583  1  0.156847  0  0.148661  0.120425  0  0.972328  0
H  H37  1  0.21188735  0.71671297  0.07545076  1  0.181407  0  0.147995  0.119305  0  0.972409  0
H  H38  1  0.28719998  0.92430011  0.21684352  1  0.192294  0  0.148239  0.119607  0  0.973543  0
H  H39  1  0.92864083  0.57594517  0.28294723  1  0.172623  0  0.148408  0.119916  0  0.971398  0
H  H40  1  0.19150193  0.43351222  0.28109321  1  0.03866  0  0.090543  0.144775  0  1.024786  0
H  H41  1  0.40556807  0.06685930  0.21911851  1  0.037533  0  0.089759  0.144518  0  1.024943  0
H  H42  1  0.62495039  0.78095385  0.56671166  1  0.049735  0  0.090476  0.144675  0  1.025133  0
H  H43  1  0.47237893  0.71901331  0.93323820  1  0.039329  0  0.089806  0.144332  0  1.024472  0
H  H44  1  0.80849642  0.56648681  0.71890987  1  0.038696  0  0.090542  0.144778  0  1.024746  0
H  H45  1  0.59442555  0.93313813  0.78087948  1  0.037514  0  0.089741  0.144497  0  1.024961  0
H  H46  1  0.37505160  0.21904517  0.43328779  1  0.049669  0  0.090466  0.144653  0  1.025187  0
H  H47  1  0.52761761  0.28098571  0.06676283  1  0.039322  0  0.08979  0.144297  0  1.024466  0
H  H48  1  0.04690873  0.47064902  0.40755582  1  0.074947  0  0.093497  0.152267  0  1.035903  0
H  H49  1  0.42495826  0.02966954  0.09258882  1  0.090097  0  0.093572  0.151643  0  1.034724  0
H  H50  1  0.51748948  0.90742851  0.52960770  1  0.068454  0  0.093306  0.151719  0  1.035634  0
H  H51  1  0.45433694  0.59250721  0.97042969  1  0.065713  0  0.092821  0.151244  0  1.033202  0
H  H52  1  0.95308898  0.52935000  0.59244693  1  0.074973  0  0.093508  0.152289  0  1.035881  0
H  H53  1  0.57503921  0.97032709  0.90740765  1  0.090174  0  0.093585  0.151641  0  1.034645  0
H  H54  1  0.48251251  0.09257051  0.47039174  1  0.068328  0  0.093294  0.151707  0  1.035662  0
H  H55  1  0.54566072  0.40749102  0.02957062  1  0.065782  0  0.092812  0.151212  0  1.033227  0
H  H56  1  0.16666832  0.33643307  0.38494536  1  0.076396  0  0.099785  0.166408  0  1.005565  0
H  H57  1  0.38798012  0.16388807  0.11516164  1  0.103904  0  0.099925  0.166639  0  1.00504  0
H  H58  1  0.50311927  0.88471862  0.66381609  1  0.089601  0  0.10014  0.16666  0  1.005473  0
H  H59  1  0.55149944  0.61522047  0.83619945  1  0.076558  0  0.099907  0.166129  0  1.004924  0
H  H60  1  0.83333315  0.66356516  0.61505693  1  0.07639  0  0.099795  0.166416  0  1.005573  0
H  H61  1  0.61201623  0.83610936  0.88483556  1  0.103877  0  0.099957  0.166709  0  1.004909  0
H  H62  1  0.49688690  0.11528040  0.33618111  1  0.089615  0  0.100115  0.166639  0  1.005588  0
H  H63  1  0.44849797  0.38477935  0.16380224  1  0.076803  0  0.099896  0.166116  0  1.004957  0
C  C64  1  0.90310850  0.27584967  0.44405593  1  -0.015441  0  -0.231116  -0.476591  0  3.923675  0
C  C65  1  0.12318518  0.22415117  0.05583016  1  -0.016737  0  -0.231886  -0.477552  0  3.92147  0
C  C66  1  0.17919035  0.94407433  0.72412320  1  -0.045227  0  -0.232112  -0.47674  0  3.922933  0
C  C67  1  0.34719607  0.55588380  0.77570899  1  -0.058421  0  -0.229922  -0.475483  0  3.922318  0
C  C68  1  0.09689476  0.72414935  0.55594418  1  -0.01546  0  -0.231097  -0.476634  0  3.923737  0
C  C69  1  0.87681509  0.77584786  0.94416619  1  -0.016697  0  -0.231879  -0.477539  0  3.921372  0
C  C70  1  0.82080979  0.05592549  0.27587770  1  -0.0452  0  -0.232068  -0.476677  0  3.922832  0
C  C71  1  0.65280167  0.44412081  0.22429191  1  -0.058311  0  -0.229954  -0.475558  0  3.92236  0
C  C72  1  0.75476533  0.28963157  0.48299482  1  0.983062  0  0.227367  0.397021  0  3.978582  0
C  C73  1  0.02755235  0.21043747  0.01691262  1  0.984867  0  0.225883  0.396108  0  3.977364  0
C  C74  1  0.04466173  0.98295039  0.71037681  1  0.984835  0  0.22575  0.396082  0  3.978894  0
C  C75  1  0.23780186  0.51692826  0.78954560  1  0.992269  0  0.226471  0.395687  0  3.97626  0
C  C76  1  0.24523885  0.71036746  0.51700245  1  0.983094  0  0.227366  0.397052  0  3.978551  0
C  C77  1  0.97244589  0.78956235  0.98308729  1  0.985112  0  0.225884  0.396113  0  3.977199  0
C  C78  1  0.95533850  0.01704944  0.28962303  1  0.984834  0  0.225721  0.396085  0  3.978824  0
C  C79  1  0.76220267  0.48307076  0.21045517  1  0.991367  0  0.226506  0.395818  0  3.976177  0
C  C80  1  0.56674675  0.25847701  0.54486338  1  1.043462  0  0.157012  0.161886  0  3.957149  0
C  C81  1  0.87004294  0.24170562  0.95527513  1  0.992872  0  0.158147  0.16348  0  3.955642  0
C  C82  1  0.82549051  0.04480356  0.74162041  1  0.982742  0  0.15785  0.164369  0  3.957673  0
C  C83  1  0.11166457  0.45499481  0.75847601  1  1.014229  0  0.157719  0.163813  0  3.956101  0
C  C84  1  0.43325662  0.74152362  0.45513389  1  1.04341  0  0.157045  0.161961  0  3.956938  0
C  C85  1  0.12994991  0.75829659  0.04472703  1  0.992775  0  0.158205  0.163608  0  3.955706  0
C  C86  1  0.17451157  0.95519546  0.25837798  1  0.982696  0  0.157838  0.164351  0  3.957703  0
C  C87  1  0.88833909  0.54500342  0.24152410  1  1.014274  0  0.157739  0.163797  0  3.9562  0
C  C88  1  0.15758928  0.41978034  0.36731583  1  -0.071169  0  -0.251578  -0.527988  0  3.876495  0
C  C89  1  0.44441350  0.08052344  0.13288158  1  -0.101923  0  -0.251758  -0.528088  0  3.873004  0
C  C90  1  0.57732279  0.86716988  0.58044649  1  -0.093158  0  -0.251376  -0.527924  0  3.877322  0
C  C91  1  0.52474747  0.63278300  0.91955456  1  -0.067433  0  -0.249303  -0.525894  0  3.870627  0
C  C92  1  0.84240907  0.58021868  0.63268725  1  -0.071218  0  -0.251609  -0.528053  0  3.876449  0
C  C93  1  0.55558306  0.91947319  0.86711773  1  -0.101819  0  -0.251787  -0.528141  0  3.872873  0
C  C94  1  0.42268378  0.13282835  0.41955071  1  -0.093025  0  -0.251354  -0.527908  0  3.877309  0
C  C95  1  0.47525043  0.36721602  0.08044607  1  -0.067726  0  -0.249249  -0.525792  0  3.870697  0
C  C96  1  0.24574852  0.44210392  0.41084563  1  1.511005  0  0.195023  0.674507  0  4.151262  0
C  C97  1  0.59853750  0.05807652  0.08947100  1  1.492287  0  0.197059  0.677846  0  4.149508  0
C  C98  1  0.68779195  0.91078357  0.55806319  1  1.514594  0  0.195587  0.676857  0  4.151518  0
C  C99  1  0.65649984  0.58928867  0.94185377  1  1.512505  0  0.195625  0.676657  0  4.14983  0
C  C100  1  0.75425089  0.55789590  0.58915600  1  1.510956  0  0.19509  0.674648  0  4.151154  0
C  C101  1  0.40145959  0.94192250  0.91053142  1  1.49212  0  0.197077  0.677895  0  4.1493  0
C  C102  1  0.31219885  0.08922184  0.44193652  1  1.514777  0  0.195635  0.677035  0  4.15177  0
C  C103  1  0.34349877  0.41071275  0.05814786  1  1.512697  0  0.195645  0.676593  0  4.149652  0
N  N104  1  0.52884798  0.36294936  0.52687155  1  -0.822914  0  -0.259185  -0.193794  0  3.564381  0
N  N105  1  0.91864856  0.13719759  0.97316264  1  -0.812979  0  -0.258814  -0.193399  0  3.560746  0
N  N106  1  0.89198204  0.02683052  0.63713957  1  -0.823837  0  -0.259513  -0.19599  0  3.560659  0
N  N107  1  0.05577383  0.47296488  0.86295946  1  -0.821194  0  -0.259584  -0.196108  0  3.563436  0
N  N108  1  0.47115379  0.63705046  0.47312579  1  -0.822662  0  -0.259192  -0.193855  0  3.564455  0
N  N109  1  0.08134676  0.86280223  0.02684018  1  -0.812876  0  -0.258798  -0.193335  0  3.560806  0
N  N110  1  0.10801859  0.97316850  0.36286027  1  -0.823831  0  -0.259508  -0.196  0  3.56063  0
N  N111  1  0.94422831  0.52703494  0.13704137  1  -0.82124  0  -0.259591  -0.196112  0  3.563527  0
N  N112  1  0.64918887  0.38299098  0.48733683  1  -0.796359  0  -0.256121  -0.251333  0  3.480887  0
N  N113  1  0.01964513  0.11708840  0.01252726  1  -0.795674  0  -0.25519  -0.2489  0  3.476589  0
N  N114  1  0.03237602  0.98729263  0.61704754  1  -0.786149  0  -0.252983  -0.246814  0  3.474857  0
N  N115  1  0.13658222  0.51251333  0.88293902  1  -0.798223  0  -0.255215  -0.247592  0  3.475641  0
N  N116  1  0.35081305  0.61700964  0.51266189  1  -0.796647  0  -0.256129  -0.251359  0  3.480989  0
N  N117  1  0.98035221  0.88291302  0.98747371  1  -0.795936  0  -0.255227  -0.249001  0  3.476573  0
N  N118  1  0.96762661  0.01270639  0.38295224  1  -0.786124  0  -0.252975  -0.246814  0  3.474862  0
N  N119  1  0.86341992  0.48748649  0.11706181  1  -0.798187  0  -0.255198  -0.247591  0  3.475634  0
N  N120  1  0.70609703  0.20970889  0.51878725  1  -1.27842  0  -0.355769  -0.37401  0  3.485204  0
N  N121  1  0.93465298  0.29040389  0.98131246  1  -1.258713  0  -0.355529  -0.375654  0  3.485733  0
N  N122  1  0.91613305  0.01871460  0.79033022  1  -1.264756  0  -0.356681  -0.375994  0  3.485005  0
N  N123  1  0.22489525  0.48117037  0.70966196  1  -1.270431  0  -0.355724  -0.374775  0  3.484349  0
N  N124  1  0.29390465  0.79029093  0.48121114  1  -1.278402  0  -0.35583  -0.374133  0  3.485152  0
N  N125  1  0.06534558  0.70959673  0.01868673  1  -1.258725  0  -0.355574  -0.375736  0  3.485718  0
N  N126  1  0.08386781  0.98128523  0.20966995  1  -1.264751  0  -0.356697  -0.376052  0  3.485031  0
N  N127  1  0.77510968  0.51882785  0.29033881  1  -1.26954  0  -0.355736  -0.374834  0  3.484435  0
O  O128  1  0.20596600  0.43830941  0.51503604  1  -1.165176  0  -0.354556  -0.584844  0  2.265036  0
O  O129  1  0.65941285  0.06156401  0.98527781  1  -1.165226  0  -0.354185  -0.585243  0  2.264464  0
O  O130  1  0.64430670  0.01495817  0.56173813  1  -1.16469  0  -0.354007  -0.585218  0  2.264532  0
O  O131  1  0.72061648  0.48508957  0.93866326  1  -1.16663  0  -0.354482  -0.584778  0  2.266025  0
O  O132  1  0.79403348  0.56169281  0.48496625  1  -1.16516  0  -0.354562  -0.584905  0  2.265055  0
O  O133  1  0.34058712  0.93843342  0.01472348  1  -1.165352  0  -0.354228  -0.585313  0  2.264467  0
O  O134  1  0.35569503  0.98504085  0.43825675  1  -1.164652  0  -0.354014  -0.585311  0  2.264358  0
O  O135  1  0.27938504  0.51491185  0.06133546  1  -1.166682  0  -0.354469  -0.584752  0  2.265931  0
O  O136  1  0.35122332  0.46209915  0.35179575  1  -1.199394  0  -0.332957  -0.583123  0  2.106262  0
O  O137  1  0.66471773  0.03832602  0.14860480  1  -1.189199  0  -0.334699  -0.585633  0  2.107306  0
O  O138  1  0.81325389  0.85175338  0.53811321  1  -1.198701  0  -0.334849  -0.585041  0  2.105829  0
O  O139  1  0.70317596  0.64840963  0.96135298  1  -1.193202  0  -0.33424  -0.58533  0  2.105563  0
O  O140  1  0.64877867  0.53789987  0.64820370  1  -1.199414  0  -0.333012  -0.583187  0  2.10628  0
O  O141  1  0.33527111  0.96168259  0.85139913  1  -1.189159  0  -0.334665  -0.585605  0  2.107068  0
O  O142  1  0.18676274  0.14824325  0.46188439  1  -1.198862  0  -0.334843  -0.58506  0  2.106564  0
O  O143  1  0.29681387  0.35159099  0.03865492  1  -1.193343  0  -0.3343  -0.585328  0  2.105422  0
