# generated using pymatgen
data_Zn4H26C32O13F4
_symmetry_space_group_name_H-M   'P 1'
_cell_length_a   17.91333223
_cell_length_b   18.51737421
_cell_length_c   20.15453285
_cell_angle_alpha   61.56992382
_cell_angle_beta   63.74922772
_cell_angle_gamma   90.01229294
_symmetry_Int_Tables_number   1
_chemical_formula_structural   Zn4H26C32O13F4
_chemical_formula_sum   'Zn8 H52 C64 O26 F8'
_cell_volume   5081.01318105
_cell_formula_units_Z   2
loop_
 _symmetry_equiv_pos_site_id
 _symmetry_equiv_pos_as_xyz
  1  'x, y, z'
loop_
 _atom_site_type_symbol
 _atom_site_label
 _atom_site_symmetry_multiplicity
 _atom_site_fract_x
 _atom_site_fract_y
 _atom_site_fract_z
 _atom_site_occupancy
 _atom_site_pbe_bader_charge
 _atom_site_pbe_bader_spin_density
 _atom_site_pbe_cm5_charge
 _atom_site_pbe_ddec_charge
 _atom_site_pbe_ddec_spin_density
 _atom_site_pbe_ddec_sum_bond_order
 _atom_site_pbe_magmom
Zn  Zn0  1  0.12896295  0.54189537  0.92451869  1  1.298412  0  0.667657  0.951308  0  2.403989  0
Zn  Zn1  1  0.96212989  0.55061306  0.06742904  1  1.307369  0  0.671269  0.959985  0  2.378645  0
Zn  Zn2  1  0.96933600  0.38063378  0.06237651  1  1.306772  0  0.667396  0.948381  0  2.421124  0
Zn  Zn3  1  0.95365611  0.54282428  0.91302803  1  1.313916  0  0.673131  0.970799  0  2.330955  0
Zn  Zn4  1  0.37840742  0.97049394  0.06201314  1  1.303106  0  0.667809  0.950627  0  2.407902  0
Zn  Zn5  1  0.54198824  0.12732463  0.91926474  1  1.302906  0  0.66748  0.948694  0  2.41969  0
Zn  Zn6  1  0.53788840  0.95749063  0.91583113  1  1.312633  0  0.672074  0.961871  0  2.381125  0
Zn  Zn7  1  0.55675475  0.96219212  0.06701467  1  1.310094  0  0.673381  0.971509  0  2.326187  0
H  H8  1  0.21371273  0.84227256  0.31453314  1  0.118855  0  0.122762  0.157212  0  0.973364  0
H  H9  1  0.30168645  0.66704669  0.66894930  1  0.15063  0  0.122163  0.156357  0  0.974568  0
H  H10  1  0.66416755  0.29826476  0.66285721  1  0.128742  0  0.122725  0.156955  0  0.972725  0
H  H11  1  0.83710910  0.20913653  0.32019814  1  0.125661  0  0.122992  0.157423  0  0.972734  0
H  H12  1  0.21489490  0.31471767  0.88443091  1  0.028311  0  0.091509  0.086322  0  0.978223  0
H  H13  1  0.13067119  0.22933642  0.98516160  1  0.067928  0  0.093215  0.092823  0  0.983763  0
H  H14  1  0.22209765  0.13950984  0.98026569  1  0.044551  0  0.093386  0.092974  0  0.983941  0
H  H15  1  0.30647731  0.22604317  0.88075811  1  0.057134  0  0.091339  0.085847  0  0.976204  0
H  H16  1  0.20115891  0.10970236  0.12357325  1  0.042957  0  0.093537  0.094336  0  0.984065  0
H  H17  1  0.27234332  0.17256505  0.12661853  1  0.010853  0  0.090348  0.084378  0  0.979239  0
H  H18  1  0.11198325  0.20200770  0.12723019  1  0.074759  0  0.093295  0.094267  0  0.986894  0
H  H19  1  0.18529669  0.26567480  0.12740644  1  0.004148  0  0.089855  0.083785  0  0.978851  0
H  H20  1  0.31953618  0.40821940  0.88421341  1  0.035206  0  0.091212  0.091027  0  0.982504  0
H  H21  1  0.30643172  0.38934573  0.98328143  1  0.020477  0  0.089972  0.087174  0  0.980702  0
H  H22  1  0.39512528  0.29674520  0.98379516  1  0.015049  0  0.089821  0.087362  0  0.981642  0
H  H23  1  0.41006088  0.31756234  0.88354449  1  0.02353  0  0.091477  0.091085  0  0.983477  0
H  H24  1  0.90685534  0.81577118  0.87682755  1  0.0241  0  0.091649  0.086063  0  0.97968  0
H  H25  1  0.88827772  0.79093471  0.98017805  1  0.032737  0  0.092714  0.091172  0  0.984771  0
H  H26  1  0.79897247  0.88294506  0.98040989  1  0.033262  0  0.092944  0.091665  0  0.984322  0
H  H27  1  0.81715083  0.90632977  0.87761301  1  0.032173  0  0.091721  0.086796  0  0.977487  0
H  H28  1  0.67689290  0.76052281  0.11858295  1  0.025384  0  0.094044  0.095986  0  0.982799  0
H  H29  1  0.60610105  0.69740633  0.11549205  1  0.050089  0  0.089799  0.083748  0  0.980233  0
H  H30  1  0.76502200  0.66727657  0.11801201  1  0.043451  0  0.094162  0.096721  0  0.986633  0
H  H31  1  0.69492311  0.60602779  0.11255331  1  0.018398  0  0.08951  0.083294  0  0.97998  0
H  H32  1  0.80794840  0.72681706  0.86803272  1  0.042325  0  0.091473  0.091055  0  0.981614  0
H  H33  1  0.72206290  0.64041230  0.96381355  1  0.039088  0  0.089533  0.085805  0  0.981862  0
H  H34  1  0.63114942  0.73060630  0.96718323  1  -0.004845  0  0.089128  0.085632  0  0.982739  0
H  H35  1  0.71662059  0.81658037  0.87058118  1  0.036519  0  0.092597  0.093537  0  0.982001  0
H  H36  1  0.17499811  0.80679885  0.91804150  1  0.016707  0  0.091253  0.085919  0  0.979353  0
H  H37  1  0.26543283  0.77636089  0.86473935  1  0.006568  0  0.093987  0.094051  0  0.982451  0
H  H38  1  0.35481069  0.87232259  0.86056209  1  0.048384  0  0.094845  0.095115  0  0.981219  0
H  H39  1  0.26367516  0.90131691  0.91505959  1  0.015128  0  0.09122  0.086069  0  0.978757  0
H  H40  1  0.40113169  0.75063617  0.94628690  1  0.035139  0  0.093997  0.095981  0  0.98422  0
H  H41  1  0.34470640  0.69412120  0.06147970  1  0.030798  0  0.089141  0.082697  0  0.981136  0
H  H42  1  0.31034000  0.65374297  0.95240392  1  0.052132  0  0.093239  0.095821  0  0.985678  0
H  H43  1  0.25329575  0.59913247  0.06751217  1  0.012499  0  0.089221  0.082773  0  0.981687  0
H  H44  1  0.09131514  0.72681549  0.08407728  1  0.032155  0  0.091514  0.09131  0  0.983338  0
H  H45  1  0.12273453  0.64159871  0.14507991  1  0.017232  0  0.090592  0.087666  0  0.979037  0
H  H46  1  0.21372523  0.73598402  0.14098392  1  0.010793  0  0.089426  0.086693  0  0.981587  0
H  H47  1  0.18147865  0.82104571  0.08088659  1  0.02066  0  0.09064  0.090144  0  0.984649  0
H  H48  1  0.91209115  0.27989818  0.90689175  1  0.032916  0  0.09144  0.085866  0  0.979398  0
H  H49  1  0.87525872  0.36357703  0.84972836  1  0.037894  0  0.094361  0.092806  0  0.979704  0
H  H50  1  0.78910296  0.26596318  0.85274763  1  0.024354  0  0.093264  0.092853  0  0.984394  0
H  H51  1  0.82371043  0.18228702  0.91299108  1  0.025257  0  0.091411  0.085651  0  0.97925  0
H  H52  1  0.65993216  0.30746137  0.93066290  1  0.038523  0  0.093194  0.095402  0  0.985948  0
H  H53  1  0.60049755  0.25103591  0.04580157  1  0.031224  0  0.08955  0.08358  0  0.979868  0
H  H54  1  0.74676946  0.40233091  0.93044575  1  0.040149  0  0.093848  0.094968  0  0.985447  0
H  H55  1  0.68822629  0.34391866  0.04562702  1  0.019136  0  0.08946  0.083054  0  0.980486  0
H  H56  1  0.82925254  0.19453206  0.07294887  1  0.040108  0  0.090864  0.090931  0  0.986196  0
H  H57  1  0.73939560  0.22145981  0.13042209  1  0.020888  0  0.088957  0.085525  0  0.980621  0
H  H58  1  0.64807850  0.12872531  0.13314308  1  0.053291  0  0.090396  0.087751  0  0.980051  0
H  H59  1  0.73761589  0.09905478  0.07913917  1  0.030836  0  0.091184  0.090698  0  0.983097  0
C  C60  1  0.14033046  0.63622515  0.00379678  1  1.535196  0  0.234901  0.603605  0  4.094509  0
C  C61  1  0.88260569  0.37868709  0.22730811  1  1.621677  0  0.227028  0.618461  0  4.165744  0
C  C62  1  0.14596780  0.36476951  0.99904538  1  1.528504  0  0.233886  0.601813  0  4.103035  0
C  C63  1  0.86367405  0.36774819  0.98657524  1  1.556299  0  0.234936  0.603207  0  4.095018  0
C  C64  1  0.12955568  0.62286511  0.75666630  1  1.539844  0  0.22805  0.620961  0  4.161968  0
C  C65  1  0.86294764  0.64404082  0.98648453  1  1.52489  0  0.235734  0.603967  0  4.091952  0
C  C66  1  0.36399434  0.14473204  0.99475715  1  1.533821  0  0.23374  0.60064  0  4.098368  0
C  C67  1  0.61509594  0.12868871  0.75560353  1  1.580173  0  0.226872  0.618612  0  4.163464  0
C  C68  1  0.35860983  0.86445079  0.99559466  1  1.535289  0  0.235329  0.603597  0  4.095328  0
C  C69  1  0.64425657  0.86461847  0.98963193  1  1.560316  0  0.235563  0.604517  0  4.093468  0
C  C70  1  0.38516035  0.88652777  0.22660827  1  1.605034  0  0.228708  0.624647  0  4.15509  0
C  C71  1  0.64819627  0.14005107  0.99096904  1  1.5432  0  0.23594  0.605572  0  4.093643  0
C  C72  1  0.36006137  0.80849046  0.38219915  1  0.492937  0  0.115209  0.247986  0  3.992267  0
C  C73  1  0.23867738  0.81976239  0.35921889  1  0.023152  0  -0.09414  -0.210618  0  3.998062  0
C  C74  1  0.18295558  0.77550861  0.44734899  1  0.482932  0  0.098283  0.254251  0  4.067422  0
C  C75  1  0.21175895  0.74507129  0.50893104  1  0.070451  0  -0.012156  -0.104143  0  4.007639  0
C  C76  1  0.15555420  0.69936524  0.60099422  1  0.528152  0  0.115901  0.249905  0  3.986958  0
C  C77  1  0.27679492  0.68882325  0.62421081  1  0.049786  0  -0.093636  -0.210166  0  3.998122  0
C  C78  1  0.33258545  0.73251157  0.53603719  1  0.457433  0  0.0989  0.255517  0  4.066372  0
C  C79  1  0.30392013  0.76268540  0.47433711  1  0.085334  0  -0.012599  -0.104218  0  4.006167  0
C  C80  1  0.32927390  0.83725432  0.32427810  1  0.056402  0  -0.021747  -0.125126  0  3.982854  0
C  C81  1  0.18615753  0.67106683  0.65911093  1  0.078231  0  -0.023249  -0.127145  0  3.982603  0
C  C82  1  0.69340184  0.15330669  0.60274755  1  0.502468  0  0.115449  0.247669  0  3.993719  0
C  C83  1  0.68581325  0.27346824  0.62015733  1  0.117751  0  -0.094479  -0.212536  0  3.998455  0
C  C84  1  0.73172104  0.32811066  0.53155909  1  0.398825  0  0.099506  0.256249  0  4.063943  0
C  C85  1  0.76125570  0.29918816  0.47265928  1  0.100055  0  -0.011644  -0.103036  0  4.007951  0
C  C86  1  0.80787229  0.35413770  0.38023042  1  0.484053  0  0.115285  0.246904  0  3.993049  0
C  C87  1  0.81562122  0.23392839  0.36290193  1  0.115978  0  -0.093759  -0.211396  0  3.997658  0
C  C88  1  0.77105652  0.17928766  0.45152186  1  0.460082  0  0.099551  0.255885  0  4.064096  0
C  C89  1  0.74130124  0.20824990  0.51037526  1  0.03208  0  -0.012628  -0.104352  0  4.009629  0
C  C90  1  0.66541673  0.18409627  0.65803451  1  0.073003  0  -0.022112  -0.12311  0  3.984742  0
C  C91  1  0.83469436  0.32332086  0.32496897  1  0.034808  0  -0.022154  -0.123423  0  3.983881  0
C  C92  1  0.19840328  0.26475814  0.95101376  1  -0.079412  0  -0.155249  -0.170688  0  3.851901  0
C  C93  1  0.25884879  0.20512334  0.94858408  1  -0.050393  0  -0.155538  -0.168618  0  3.848762  0
C  C94  1  0.30701826  0.20550872  0.99603274  1  0.049984  0  -0.016759  0.020879  0  3.811464  0
C  C95  1  0.23896998  0.17502416  0.09131938  1  -0.032798  0  -0.157705  -0.171657  0  3.856671  0
C  C96  1  0.18012039  0.23624745  0.09278658  1  -0.042612  0  -0.157712  -0.170116  0  3.858765  0
C  C97  1  0.20655850  0.30722701  0.99858495  1  0.074937  0  -0.016529  0.020334  0  3.81482  0
C  C98  1  0.30094335  0.35736493  0.95097294  1  -0.016292  0  -0.164636  -0.176941  0  3.886468  0
C  C99  1  0.36033160  0.29682060  0.95050796  1  -0.00018  0  -0.165386  -0.178596  0  3.887975  0
C  C100  1  0.85602466  0.79335681  0.94405630  1  -0.023765  0  -0.155168  -0.168517  0  3.849142  0
C  C101  1  0.79634753  0.85402305  0.94462772  1  -0.017093  0  -0.155676  -0.170933  0  3.852238  0
C  C102  1  0.70194292  0.80411599  0.98832614  1  0.016226  0  -0.016027  0.020787  0  3.808524  0
C  C103  1  0.67396835  0.73204585  0.08258273  1  -0.030577  0  -0.158933  -0.172851  0  3.862688  0
C  C104  1  0.73298336  0.67106460  0.08140768  1  -0.026976  0  -0.158724  -0.172909  0  3.863538  0
C  C105  1  0.80259597  0.70211007  0.98650261  1  0.054892  0  -0.017098  0.019954  0  3.808297  0
C  C106  1  0.75843981  0.70524922  0.93531575  1  -0.030036  0  -0.163488  -0.174851  0  3.883633  0
C  C107  1  0.69831172  0.76512164  0.93701015  1  -0.00829  0  -0.164572  -0.177746  0  3.883024  0
C  C108  1  0.23074397  0.78365214  0.92083924  1  0.015798  0  -0.154988  -0.17035  0  3.851472  0
C  C109  1  0.29007036  0.84680665  0.91839003  1  -0.032243  0  -0.155698  -0.169972  0  3.851866  0
C  C110  1  0.29819504  0.80122714  0.00126991  1  0.061565  0  -0.016735  0.019542  0  3.813299  0
C  C111  1  0.33647519  0.72574640  0.00402291  1  -0.037156  0  -0.157949  -0.172199  0  3.860923  0
C  C112  1  0.27617943  0.66230305  0.00763314  1  -0.024557  0  -0.158409  -0.172471  0  3.86373  0
C  C113  1  0.19743108  0.69508614  0.00587921  1  0.048024  0  -0.0166  0.019458  0  3.812698  0
C  C114  1  0.14794508  0.70458775  0.08465894  1  -0.002249  0  -0.163379  -0.174633  0  3.882114  0
C  C115  1  0.20787403  0.76718224  0.08215569  1  -0.014801  0  -0.164224  -0.177423  0  3.886617  0
C  C116  1  0.85381858  0.29995549  0.90852609  1  -0.044183  0  -0.154203  -0.167282  0  3.84832  0
C  C117  1  0.79555120  0.23555082  0.91118703  1  -0.009217  0  -0.154923  -0.168667  0  3.850952  0
C  C118  1  0.70449222  0.19978619  0.99297403  1  0.049171  0  -0.017293  0.019266  0  3.811896  0
C  C119  1  0.66615517  0.27559961  0.98916248  1  -0.04457  0  -0.158293  -0.173364  0  3.855705  0
C  C120  1  0.72436183  0.33814088  0.98859649  1  -0.018549  0  -0.159499  -0.172353  0  3.863893  0
C  C121  1  0.80340905  0.30612744  0.99014325  1  0.038221  0  -0.01684  0.019216  0  3.808884  0
C  C122  1  0.77264113  0.21679319  0.07243222  1  -0.036118  0  -0.163846  -0.175151  0  3.884487  0
C  C123  1  0.71267056  0.15430940  0.07502582  1  -0.032523  0  -0.163883  -0.176208  0  3.889969  0
O  O124  1  0.00255029  0.50519542  0.99081151  1  -1.207335  0  -0.57274  -1.02777  0  2.54428  0
O  O125  1  0.17835649  0.61645083  0.94662042  1  -1.173088  0  -0.317565  -0.552351  0  2.35133  0
O  O126  1  0.89388975  0.45880445  0.19200520  1  -1.159654  0  -0.308407  -0.533955  0  2.346355  0
O  O127  1  0.06516615  0.32779652  0.04540020  1  -1.163913  0  -0.316438  -0.549146  0  2.353714  0
O  O128  1  0.05937522  0.61276810  0.05713492  1  -1.177411  0  -0.312195  -0.544966  0  2.354461  0
O  O129  1  0.17980825  0.44500745  0.95222493  1  -1.190691  0  -0.31359  -0.547353  0  2.362912  0
O  O130  1  0.90768033  0.33862969  0.18784799  1  -1.17315  0  -0.313232  -0.538916  0  2.338433  0
O  O131  1  0.89362294  0.33449739  0.03799172  1  -1.190957  0  -0.315887  -0.550559  0  2.384216  0
O  O132  1  0.04802461  0.60659409  0.78936992  1  -1.151473  0  -0.309344  -0.537499  0  2.339523  0
O  O133  1  0.88102715  0.44729759  0.93185353  1  -1.175003  0  -0.313949  -0.548469  0  2.322693  0
O  O134  1  0.17029332  0.60229126  0.79860900  1  -1.155533  0  -0.313678  -0.540485  0  2.338509  0
O  O135  1  0.89255002  0.62805455  0.03781902  1  -1.179783  0  -0.317107  -0.552135  0  2.355313  0
O  O136  1  0.88013838  0.61675915  0.93537793  1  -1.175868  0  -0.311813  -0.546167  0  2.344448  0
O  O137  1  0.50454055  0.00290209  0.99215997  1  -1.20818  0  -0.57347  -1.028445  0  2.549294  0
O  O138  1  0.32577383  0.06592452  0.03555663  1  -1.172037  0  -0.317142  -0.550653  0  2.340368  0
O  O139  1  0.58815428  0.16851261  0.79518545  1  -1.171078  0  -0.313704  -0.540894  0  2.334697  0
O  O140  1  0.43760205  0.89013864  0.93543749  1  -1.177333  0  -0.316128  -0.552243  0  2.345075  0
O  O141  1  0.44541729  0.17663647  0.95285436  1  -1.183842  0  -0.31301  -0.545267  0  2.366013  0
O  O142  1  0.32603567  0.88760484  0.05043214  1  -1.172275  0  -0.313463  -0.544769  0  2.361096  0
O  O143  1  0.60362201  0.04853690  0.79093908  1  -1.154085  0  -0.308274  -0.533867  0  2.347415  0
O  O144  1  0.61177289  0.88314114  0.94051050  1  -1.181733  0  -0.31304  -0.545867  0  2.370207  0
O  O145  1  0.46603209  0.89408892  0.19265479  1  -1.159442  0  -0.30861  -0.536723  0  2.321404  0
O  O146  1  0.63311144  0.89230524  0.03971001  1  -1.178354  0  -0.316147  -0.553306  0  2.331797  0
O  O147  1  0.34412762  0.91686498  0.18574749  1  -1.170223  0  -0.315572  -0.544478  0  2.342924  0
O  O148  1  0.63124170  0.17470341  0.92905345  1  -1.175208  0  -0.320342  -0.555135  0  2.353805  0
O  O149  1  0.62284992  0.06096829  0.04965670  1  -1.177971  0  -0.311255  -0.546588  0  2.343429  0
F  F150  1  0.41849938  0.74700629  0.50758755  1  -0.623589  0  -0.102527  -0.140539  0  1.344561  0
F  F151  1  0.44575282  0.82448757  0.35191311  1  -0.620956  0  -0.085323  -0.112971  0  1.400483  0
F  F152  1  0.09705225  0.76089532  0.47574501  1  -0.627723  0  -0.102031  -0.139947  0  1.345759  0
F  F153  1  0.06997254  0.68402959  0.63082568  1  -0.613336  0  -0.085631  -0.113073  0  1.403319  0
F  F154  1  0.75519469  0.09443332  0.48321370  1  -0.626563  0  -0.102044  -0.140099  0  1.345474  0
F  F155  1  0.67463616  0.06882028  0.63581098  1  -0.625189  0  -0.084644  -0.11142  0  1.40644  0
F  F156  1  0.74882009  0.41294160  0.49989893  1  -0.627438  0  -0.101562  -0.139578  0  1.345188  0
F  F157  1  0.82582222  0.43865639  0.34709355  1  -0.611423  0  -0.084724  -0.111304  0  1.405611  0
