# generated using pymatgen
data_ZnH16C20(N3O2)2
_symmetry_space_group_name_H-M   'P 1'
_cell_length_a   5.42754411
_cell_length_b   10.51612420
_cell_length_c   16.63867568
_cell_angle_alpha   90.00132027
_cell_angle_beta   89.99815659
_cell_angle_gamma   89.99999587
_symmetry_Int_Tables_number   1
_chemical_formula_structural   ZnH16C20(N3O2)2
_chemical_formula_sum   'Zn2 H32 C40 N12 O8'
_cell_volume   949.68116496
_cell_formula_units_Z   2
loop_
 _symmetry_equiv_pos_site_id
 _symmetry_equiv_pos_as_xyz
  1  'x, y, z'
loop_
 _atom_site_type_symbol
 _atom_site_label
 _atom_site_symmetry_multiplicity
 _atom_site_fract_x
 _atom_site_fract_y
 _atom_site_fract_z
 _atom_site_occupancy
 _atom_site_hle17_bader_spin_density
 _atom_site_hle17_ddec_charge
 _atom_site_hle17_ddec_spin_density
 _atom_site_hle17_ddec_sum_bond_order
 _atom_site_hle17_magmom
 _atom_site_hse06_10hf_bader_spin_density
 _atom_site_hse06_10hf_ddec_charge
 _atom_site_hse06_10hf_ddec_spin_density
 _atom_site_hse06_10hf_ddec_sum_bond_order
 _atom_site_hse06_10hf_magmom
 _atom_site_hse06_bader_spin_density
 _atom_site_hse06_ddec_charge
 _atom_site_hse06_ddec_spin_density
 _atom_site_hse06_ddec_sum_bond_order
 _atom_site_hse06_magmom
 _atom_site_pbe_bader_spin_density
 _atom_site_pbe_cm5_charge
 _atom_site_pbe_ddec_charge
 _atom_site_pbe_ddec_spin_density
 _atom_site_pbe_ddec_sum_bond_order
 _atom_site_pbe_magmom
Zn  Zn0  1  0.12545383  0.99999914  0.50000029  1  0  1.005202  0  1.86996  0  0  0.816653  0  2.344286  0  0  0.863402  0  2.289789  0  0  0.704552  0.783979  0  2.381755  0
Zn  Zn1  1  0.87452673  0.50002547  0.99999882  1  0  1.005333  0  1.869947  0  0  0.816818  0  2.344172  0  0  0.863571  0  2.289663  0  0  0.70451  0.784112  0  2.381703  0
H  H2  1  0.06462838  0.25757640  0.60666346  1  0  0.117053  0  0.925319  0  0  0.122714  0  0.993659  0  0  0.125954  0  0.990077  0  0  0.147042  0.120336  0  0.996194  0
H  H3  1  0.06460915  0.74241942  0.39333394  1  0  0.117108  0  0.925111  0  0  0.122672  0  0.993572  0  0  0.12591  0  0.989995  0  0  0.147032  0.120297  0  0.996104  0
H  H4  1  0.93542072  0.24244007  0.10666595  1  0  0.117045  0  0.925191  0  0  0.122649  0  0.993619  0  0  0.12589  0  0.990032  0  0  0.147067  0.120271  0  0.996153  0
H  H5  1  0.93537982  0.75759657  0.89332789  1  0  0.117094  0  0.925212  0  0  0.122638  0  0.993689  0  0  0.125875  0  0.99011  0  0  0.147022  0.120264  0  0.996219  0
H  H6  1  0.66452126  0.00510569  0.59015642  1  0  0.105795  0  0.962515  0  0  0.116652  0  1.018276  0  0  0.119236  0  1.015745  0  0  0.137006  0.114454  0  1.020505  0
H  H7  1  0.66453885  0.99487012  0.40984764  1  0  0.105964  0  0.96222  0  0  0.116776  0  1.01805  0  0  0.119305  0  1.015597  0  0  0.13701  0.114578  0  1.020278  0
H  H8  1  0.33545601  0.49486455  0.09015534  1  0  0.106018  0  0.962187  0  0  0.116855  0  1.017985  0  0  0.119385  0  1.015527  0  0  0.137016  0.11466  0  1.020211  0
H  H9  1  0.33546482  0.50512555  0.90984565  1  0  0.105917  0  0.962309  0  0  0.116746  0  1.018118  0  0  0.119297  0  1.015632  0  0  0.136972  0.114549  0  1.020344  0
H  H10  1  0.23486282  0.39651748  0.72063854  1  0  0.093766  0  0.927832  0  0  0.109467  0  0.990509  0  0  0.109816  0  0.991269  0  0  0.118365  0.109328  0  0.989977  0
H  H11  1  0.23486941  0.60347453  0.27935734  1  0  0.093748  0  0.927843  0  0  0.109452  0  0.990536  0  0  0.109799  0  0.991296  0  0  0.118333  0.109312  0  0.990003  0
H  H12  1  0.76520468  0.10348696  0.22063870  1  0  0.093673  0  0.927389  0  0  0.109286  0  0.990242  0  0  0.109633  0  0.990996  0  0  0.11831  0.109146  0  0.989712  0
H  H13  1  0.76512511  0.89653544  0.77936206  1  0  0.093767  0  0.927828  0  0  0.109491  0  0.990486  0  0  0.109839  0  0.991246  0  0  0.118332  0.109351  0  0.989956  0
H  H14  1  0.50164358  0.33760600  0.77162956  1  0  0.122808  0  0.920586  0  0  0.134327  0  0.984712  0  0  0.136252  0  0.983216  0  0  0.125265  0.132913  0  0.985904  0
H  H15  1  0.50167253  0.66238788  0.22836635  1  0  0.122753  0  0.920465  0  0  0.134277  0  0.984617  0  0  0.136197  0  0.983124  0  0  0.12528  0.132855  0  0.985811  0
H  H16  1  0.49840524  0.16239362  0.27163777  1  0  0.122804  0  0.920372  0  0  0.134209  0  0.98465  0  0  0.136129  0  0.983151  0  0  0.125285  0.132807  0  0.985832  0
H  H17  1  0.49835357  0.83761358  0.72836116  1  0  0.122807  0  0.920393  0  0  0.134254  0  0.984637  0  0  0.136175  0  0.983144  0  0  0.12528  0.13284  0  0.985833  0
H  H18  1  0.34145326  0.50752440  0.57661780  1  0  0.086035  0  0.948084  0  0  0.099824  0  1.005763  0  0  0.102396  0  1.00539  0  0  0.098398  0.09796  0  1.00617  0
H  H19  1  0.34141404  0.49246094  0.42337292  1  0  0.086111  0  0.948519  0  0  0.099871  0  1.006215  0  0  0.102468  0  1.005801  0  0  0.098457  0.09801  0  1.006616  0
H  H20  1  0.65861398  0.99245065  0.07662462  1  0  0.086029  0  0.948606  0  0  0.099796  0  1.006285  0  0  0.102396  0  1.005866  0  0  0.098458  0.097932  0  1.006684  0
H  H21  1  0.65851809  0.00756129  0.92337770  1  0  0.086076  0  0.948063  0  0  0.099781  0  1.005867  0  0  0.102331  0  1.005519  0  0  0.098339  0.097912  0  1.006279  0
H  H22  1  0.58250801  0.69319171  0.52698733  1  0  0.096654  0  0.955102  0  0  0.103  0  1.022177  0  0  0.106038  0  1.020606  0  0  0.098895  0.100777  0  1.02336  0
H  H23  1  0.58245026  0.30680028  0.47301867  1  0  0.096532  0  0.955257  0  0  0.102863  0  1.022348  0  0  0.105949  0  1.020722  0  0  0.098862  0.100633  0  1.023535  0
H  H24  1  0.41754459  0.80678345  0.02699659  1  0  0.096638  0  0.955173  0  0  0.102965  0  1.022228  0  0  0.10602  0  1.020638  0  0  0.09892  0.100733  0  1.023418  0
H  H25  1  0.41742281  0.19322566  0.97300247  1  0  0.096846  0  0.955089  0  0  0.103216  0  1.022098  0  0  0.106291  0  1.020481  0  0  0.098922  0.100979  0  1.023289  0
H  H26  1  0.08913928  0.65262235  0.72375971  1  0  0.095028  0  0.985145  0  0  0.094655  0  1.066093  0  0  0.0989  0  1.062848  0  0  0.096018  0.091605  0  1.068424  0
H  H27  1  0.08914806  0.34735160  0.27624288  1  0  0.095057  0  0.985045  0  0  0.09469  0  1.065975  0  0  0.098934  0  1.062723  0  0  0.096002  0.091641  0  1.068303  0
H  H28  1  0.91088917  0.84738275  0.22378017  1  0  0.095049  0  0.984913  0  0  0.094629  0  1.065914  0  0  0.098876  0  1.062665  0  0  0.09603  0.091576  0  1.068249  0
H  H29  1  0.91083391  0.15262632  0.77621628  1  0  0.094865  0  0.985333  0  0  0.09456  0  1.066181  0  0  0.098808  0  1.062932  0  0  0.095972  0.091506  0  1.068513  0
H  H30  1  0.84261342  0.46735728  0.77525367  1  0  0.10324  0  0.984758  0  0  0.112819  0  1.047428  0  0  0.115812  0  1.046614  0  0  0.098339  0.110657  0  1.048132  0
H  H31  1  0.84262989  0.53261851  0.22474279  1  0  0.103257  0  0.98466  0  0  0.112762  0  1.047439  0  0  0.115755  0  1.046623  0  0  0.098298  0.110569  0  1.048183  0
H  H32  1  0.15742762  0.03265389  0.27525642  1  0  0.103227  0  0.984848  0  0  0.112854  0  1.04748  0  0  0.115845  0  1.046665  0  0  0.0983  0.110694  0  1.048186  0
H  H33  1  0.15737635  0.96735810  0.72472994  1  0  0.103082  0  0.984762  0  0  0.112732  0  1.047392  0  0  0.115726  0  1.046578  0  0  0.098332  0.110594  0  1.048078  0
C  C34  1  0.24448836  0.21363637  0.61324399  1  0  0.174356  0  3.625216  0  0  0.096074  0  3.88866  0  0  0.110649  0  3.899351  0  0  0.171722  0.086901  0  3.880979  0
C  C35  1  0.24448462  0.78636324  0.38675120  1  0  0.174246  0  3.625183  0  0  0.096047  0  3.888683  0  0  0.110622  0  3.899378  0  0  0.171703  0.08687  0  3.881006  0
C  C36  1  0.75554156  0.28637274  0.11324512  1  0  0.174531  0  3.625334  0  0  0.096251  0  3.888843  0  0  0.110842  0  3.899528  0  0  0.171723  0.08708  0  3.881154  0
C  C37  1  0.75551615  0.71364300  0.88674791  1  0  0.174182  0  3.625314  0  0  0.09604  0  3.888844  0  0  0.110617  0  3.899538  0  0  0.171651  0.086865  0  3.881161  0
C  C38  1  0.55211588  0.08633840  0.60704949  1  0  0.225026  0  3.669366  0  0  0.170998  0  3.957196  0  0  0.183354  0  3.9681  0  0  0.156459  0.163047  0  3.949814  0
C  C39  1  0.55211327  0.91364122  0.39295077  1  0  0.22481  0  3.669545  0  0  0.170776  0  3.957408  0  0  0.183165  0  3.968329  0  0  0.156406  0.162826  0  3.950023  0
C  C40  1  0.44787053  0.41363055  0.10705042  1  0  0.22471  0  3.669694  0  0  0.170624  0  3.957599  0  0  0.183015  0  3.968515  0  0  0.156352  0.162679  0  3.950207  0
C  C41  1  0.44786653  0.58636525  0.89295438  1  0  0.224863  0  3.669521  0  0  0.170854  0  3.957398  0  0  0.183231  0  3.968317  0  0  0.156462  0.162904  0  3.95001  0
C  C42  1  0.42811271  0.36765119  0.71323063  1  0  -0.06819  0  3.630215  0  0  -0.147836  0  3.879041  0  0  -0.144305  0  3.888403  0  0  -0.041941  -0.150236  0  3.872762  0
C  C43  1  0.42811293  0.63234175  0.28676653  1  0  -0.06817  0  3.630028  0  0  -0.147866  0  3.878856  0  0  -0.144347  0  3.888253  0  0  -0.041997  -0.150251  0  3.872565  0
C  C44  1  0.57192984  0.13235773  0.21323053  1  0  -0.067658  0  3.62967  0  0  -0.147309  0  3.878576  0  0  -0.143765  0  3.887948  0  0  -0.041811  -0.149718  0  3.872312  0
C  C45  1  0.57188812  0.86766087  0.78676595  1  0  -0.068126  0  3.629903  0  0  -0.147777  0  3.878668  0  0  -0.144252  0  3.888056  0  0  -0.04197  -0.15017  0  3.872389  0
C  C46  1  0.57966202  0.47509319  0.67886743  1  0  0.079425  0  3.747166  0  0  0.095575  0  3.995068  0  0  0.096602  0  4.018777  0  0  -0.012757  0.095248  0  3.978691  0
C  C47  1  0.57962334  0.52488263  0.32112658  1  0  0.079336  0  3.747306  0  0  0.095646  0  3.994987  0  0  0.09667  0  4.018699  0  0  -0.012609  0.095316  0  3.978608  0
C  C48  1  0.42041021  0.02490783  0.17887793  1  0  0.079222  0  3.747542  0  0  0.095746  0  3.994947  0  0  0.096775  0  4.018645  0  0  -0.012701  0.095414  0  3.978578  0
C  C49  1  0.42033512  0.97511744  0.82112411  1  0  0.07892  0  3.747322  0  0  0.095359  0  3.994901  0  0  0.096384  0  4.018602  0  0  -0.012841  0.095025  0  3.978533  0
C  C50  1  0.50734969  0.53779468  0.60848640  1  0  -0.119132  0  3.74803  0  0  -0.141339  0  4.002512  0  0  -0.145933  0  4.024668  0  0  -0.092922  -0.138294  0  3.987415  0
C  C51  1  0.50731777  0.46218875  0.39151606  1  0  -0.119154  0  3.748318  0  0  -0.141409  0  4.002755  0  0  -0.146018  0  4.024906  0  0  -0.092926  -0.138364  0  3.987659  0
C  C52  1  0.49272315  0.96218438  0.10849606  1  0  -0.119163  0  3.748631  0  0  -0.141456  0  4.002983  0  0  -0.14606  0  4.025117  0  0  -0.092975  -0.138407  0  3.987875  0
C  C53  1  0.49261613  0.03782472  0.89150893  1  0  -0.118856  0  3.74793  0  0  -0.141143  0  4.002335  0  0  -0.145718  0  4.024509  0  0  -0.092824  -0.138095  0  3.987229  0
C  C54  1  0.64134191  0.64151964  0.58030524  1  0  -0.04524  0  3.728655  0  0  -0.067571  0  3.977696  0  0  -0.065839  0  3.997223  0  0  -0.082863  -0.068547  0  3.964523  0
C  C55  1  0.64130311  0.35846188  0.41969783  1  0  -0.045013  0  3.728672  0  0  -0.067392  0  3.977671  0  0  -0.065698  0  3.997195  0  0  -0.082911  -0.06836  0  3.964494  0
C  C56  1  0.35871386  0.85845745  0.08031698  1  0  -0.045221  0  3.729109  0  0  -0.067542  0  3.978162  0  0  -0.065822  0  3.997691  0  0  -0.082992  -0.068508  0  3.964979  0
C  C57  1  0.35858154  0.14155072  0.91968381  1  0  -0.045521  0  3.728466  0  0  -0.067845  0  3.977449  0  0  -0.066141  0  3.996963  0  0  -0.082749  -0.068808  0  3.964265  0
C  C58  1  0.85126508  0.68335328  0.62176884  1  0  -0.074865  0  3.765195  0  0  -0.050913  0  3.991919  0  0  -0.06003  0  4.016053  0  0  -0.024247  -0.044945  0  3.975659  0
C  C59  1  0.85124019  0.31663677  0.37822995  1  0  -0.075122  0  3.765296  0  0  -0.051043  0  3.991893  0  0  -0.060165  0  4.016039  0  0  -0.024237  -0.045077  0  3.975633  0
C  C60  1  0.14879705  0.81664242  0.12178545  1  0  -0.074768  0  3.765254  0  0  -0.050818  0  3.991957  0  0  -0.059934  0  4.016101  0  0  -0.02408  -0.04485  0  3.975689  0
C  C61  1  0.14867679  0.18336861  0.87821120  1  0  -0.074739  0  3.764851  0  0  -0.05073  0  3.991546  0  0  -0.059847  0  4.015692  0  0  -0.024348  -0.04476  0  3.975271  0
C  C62  1  0.92644246  0.61928246  0.69147611  1  0  -0.079202  0  3.759881  0  0  -0.101027  0  4.012418  0  0  -0.100953  0  4.033163  0  0  -0.092029  -0.100699  0  3.998147  0
C  C63  1  0.92642731  0.38070664  0.30852141  1  0  -0.079098  0  3.75945  0  0  -0.100964  0  4.011938  0  0  -0.10088  0  4.032663  0  0  -0.091911  -0.100634  0  3.997657  0
C  C64  1  0.07361729  0.88072623  0.19149673  1  0  -0.079114  0  3.758967  0  0  -0.100873  0  4.011555  0  0  -0.100801  0  4.032296  0  0  -0.09196  -0.100545  0  3.99729  0
C  C65  1  0.07352705  0.11928576  0.80850480  1  0  -0.079232  0  3.759937  0  0  -0.101116  0  4.012464  0  0  -0.101042  0  4.033209  0  0  -0.092024  -0.100786  0  3.998196  0
C  C66  1  0.79083808  0.51603106  0.71981115  1  0  -0.137259  0  3.749849  0  0  -0.156738  0  3.99843  0  0  -0.161322  0  4.020424  0  0  -0.101561  -0.153665  0  3.983415  0
C  C67  1  0.79082062  0.48396471  0.28019359  1  0  -0.137258  0  3.74976  0  0  -0.156724  0  3.998279  0  0  -0.161303  0  4.020257  0  0  -0.101654  -0.15363  0  3.98329  0
C  C68  1  0.20924241  0.98398436  0.21982005  1  0  -0.137529  0  3.749879  0  0  -0.157193  0  3.998453  0  0  -0.161777  0  4.020438  0  0  -0.101798  -0.154127  0  3.983446  0
C  C69  1  0.20916274  0.01602762  0.78017906  1  0  -0.136893  0  3.749645  0  0  -0.156548  0  3.998196  0  0  -0.161131  0  4.020191  0  0  -0.10157  -0.153503  0  3.983175  0
C  C70  1  0.99414895  0.79725881  0.59409917  1  0  0.621611  0  3.933944  0  0  0.576239  0  4.219995  0  0  0.609903  0  4.213145  0  0  0.195358  0.553203  0  4.224128  0
C  C71  1  0.99411723  0.20274550  0.40591938  1  0  0.621613  0  3.933416  0  0  0.576197  0  4.219499  0  0  0.609862  0  4.212651  0  0  0.195352  0.55316  0  4.223621  0
C  C72  1  0.00587210  0.70274540  0.09410577  1  0  0.621776  0  3.933633  0  0  0.576427  0  4.219678  0  0  0.61009  0  4.212818  0  0  0.195438  0.553392  0  4.223807  0
C  C73  1  0.00578924  0.29726469  0.90589516  1  0  0.621637  0  3.934046  0  0  0.576154  0  4.220217  0  0  0.609823  0  4.213359  0  0  0.195286  0.553115  0  4.224338  0
N  N74  1  0.32015627  0.10608089  0.57776829  1  0  -0.404556  0  3.270994  0  0  -0.324347  0  3.582792  0  0  -0.345939  0  3.590207  0  0  -0.349257  -0.30978  0  3.577303  0
N  N75  1  0.32015772  0.89391016  0.42223224  1  0  -0.404465  0  3.271364  0  0  -0.324191  0  3.583075  0  0  -0.34578  0  3.590473  0  0  -0.349147  -0.30962  0  3.577583  0
N  N76  1  0.67985004  0.39391647  0.07777107  1  0  -0.404653  0  3.271215  0  0  -0.324324  0  3.582904  0  0  -0.345911  0  3.590296  0  0  -0.349181  -0.309751  0  3.577401  0
N  N77  1  0.67983534  0.60609737  0.92222685  1  0  -0.404435  0  3.271308  0  0  -0.324261  0  3.583089  0  0  -0.345856  0  3.590496  0  0  -0.349112  -0.309683  0  3.577587  0
N  N78  1  0.62352651  0.17614522  0.65784654  1  0  -0.268383  0  2.836428  0  0  -0.263615  0  3.103004  0  0  -0.273087  0  3.116782  0  0  -0.212858  -0.257222  0  3.09381  0
N  N79  1  0.62354809  0.82383060  0.34215789  1  0  -0.26842  0  2.836495  0  0  -0.263568  0  3.103003  0  0  -0.273044  0  3.116775  0  0  -0.212846  -0.257174  0  3.093806  0
N  N80  1  0.37647809  0.32383983  0.15784799  1  0  -0.268426  0  2.836949  0  0  -0.263579  0  3.103458  0  0  -0.273036  0  3.117231  0  0  -0.212806  -0.257189  0  3.094268  0
N  N81  1  0.37646695  0.67616167  0.84215263  1  0  -0.268409  0  2.836467  0  0  -0.26358  0  3.102996  0  0  -0.273051  0  3.116765  0  0  -0.212845  -0.257189  0  3.093806  0
N  N82  1  0.42520457  0.25561087  0.66129119  1  0  0.050877  0  3.575428  0  0  0.169888  0  3.764636  0  0  0.159749  0  3.788516  0  0  -0.126917  0.175776  0  3.749963  0
N  N83  1  0.42520259  0.74438017  0.33870900  1  0  0.05102  0  3.575596  0  0  0.16998  0  3.764838  0  0  0.159853  0  3.788696  0  0  -0.126901  0.175869  0  3.750164  0
N  N84  1  0.57482359  0.24439046  0.16129091  1  0  0.050824  0  3.575793  0  0  0.169842  0  3.764986  0  0  0.159636  0  3.788973  0  0  -0.126957  0.175727  0  3.750319  0
N  N85  1  0.57479257  0.75562529  0.83871155  1  0  0.051081  0  3.575504  0  0  0.170025  0  3.764771  0  0  0.159899  0  3.788625  0  0  -0.126825  0.17591  0  3.750103  0
O  O86  1  0.19728954  0.82435684  0.62525204  1  0  -0.608578  0  1.951236  0  0  -0.562953  0  2.181006  0  0  -0.585563  0  2.173557  0  0  -0.317716  -0.547418  0  2.185753  0
O  O87  1  0.19728347  0.17563517  0.37475379  1  0  -0.60889  0  1.950519  0  0  -0.563244  0  2.180296  0  0  -0.58586  0  2.172842  0  0  -0.31795  -0.547722  0  2.185066  0
O  O88  1  0.80273718  0.67564565  0.12526134  1  0  -0.608701  0  1.951316  0  0  -0.563086  0  2.181083  0  0  -0.585696  0  2.173624  0  0  -0.317787  -0.547554  0  2.185842  0
O  O89  1  0.80260811  0.32434917  0.87473909  1  0  -0.608548  0  1.951038  0  0  -0.562922  0  2.180774  0  0  -0.585542  0  2.173328  0  0  -0.317687  -0.547395  0  2.185533  0
O  O90  1  0.89218893  0.86475128  0.53713285  1  0  -0.668807  0  2.056527  0  0  -0.594193  0  2.32417  0  0  -0.623362  0  2.3105  0  0  -0.340045  -0.573352  0  2.332856  0
O  O91  1  0.89217656  0.13524163  0.46288000  1  0  -0.668581  0  2.056734  0  0  -0.593926  0  2.324344  0  0  -0.623083  0  2.31069  0  0  -0.339915  -0.573084  0  2.333017  0
O  O92  1  0.10782014  0.63524611  0.03713514  1  0  -0.668968  0  2.05648  0  0  -0.594345  0  2.32411  0  0  -0.623506  0  2.31043  0  0  -0.340114  -0.573497  0  2.332796  0
O  O93  1  0.10775847  0.36476302  0.96285166  1  0  -0.669106  0  2.057083  0  0  -0.59439  0  2.324715  0  0  -0.623551  0  2.311027  0  0  -0.340057  -0.573549  0  2.333404  0
