# generated using pymatgen
data_H10PbC12N2O5
_symmetry_space_group_name_H-M   'P 1'
_cell_length_a   7.11427190
_cell_length_b   10.61381646
_cell_length_c   10.70770664
_cell_angle_alpha   113.71546534
_cell_angle_beta   101.10731134
_cell_angle_gamma   106.31133327
_symmetry_Int_Tables_number   1
_chemical_formula_structural   H10PbC12N2O5
_chemical_formula_sum   'H20 Pb2 C24 N4 O10'
_cell_volume   666.10839994
_cell_formula_units_Z   2
loop_
 _symmetry_equiv_pos_site_id
 _symmetry_equiv_pos_as_xyz
  1  'x, y, z'
loop_
 _atom_site_type_symbol
 _atom_site_label
 _atom_site_symmetry_multiplicity
 _atom_site_fract_x
 _atom_site_fract_y
 _atom_site_fract_z
 _atom_site_occupancy
 _atom_site_hle17_bader_spin_density
 _atom_site_hle17_ddec_charge
 _atom_site_hle17_ddec_spin_density
 _atom_site_hle17_ddec_sum_bond_order
 _atom_site_hle17_magmom
 _atom_site_hse06_10hf_bader_spin_density
 _atom_site_hse06_10hf_ddec_charge
 _atom_site_hse06_10hf_ddec_spin_density
 _atom_site_hse06_10hf_ddec_sum_bond_order
 _atom_site_hse06_10hf_magmom
 _atom_site_hse06_bader_spin_density
 _atom_site_hse06_ddec_charge
 _atom_site_hse06_ddec_spin_density
 _atom_site_hse06_ddec_sum_bond_order
 _atom_site_hse06_magmom
 _atom_site_pbe_bader_spin_density
 _atom_site_pbe_cm5_charge
 _atom_site_pbe_ddec_charge
 _atom_site_pbe_ddec_spin_density
 _atom_site_pbe_ddec_sum_bond_order
 _atom_site_pbe_magmom
H  H0  1  0.21741630  0.14769876  0.74339905  1  0  0.073005  0  0.959102  0  0  0.081542  0  1.023967  0  0  0.083615  0  1.022953  0  0  0.110216  0.080006  0  1.024421  0
H  H1  1  0.97392839  0.40442194  0.25686994  1  0  0.072982  0  0.95975  0  0  0.081304  0  1.024801  0  0  0.08344  0  1.023729  0  0  0.110421  0.079708  0  1.025365  0
H  H2  1  0.23125873  0.89919709  0.69610561  1  0  0.118758  0  0.946541  0  0  0.12671  0  1.008354  0  0  0.130459  0  1.00662  0  0  0.110642  0.124093  0  1.009524  0
H  H3  1  0.03523210  0.20320295  0.30413150  1  0  0.119076  0  0.946862  0  0  0.126472  0  1.009273  0  0  0.1302  0  1.007596  0  0  0.110646  0.123822  0  1.010369  0
H  H4  1  0.43542681  0.06674597  0.15960862  1  0  0.118561  0  0.941965  0  0  0.126158  0  1.003948  0  0  0.129673  0  1.002808  0  0  0.111248  0.123669  0  1.004793  0
H  H5  1  0.77618162  0.90753713  0.84067228  1  0  0.117248  0  0.943352  0  0  0.125316  0  1.004777  0  0  0.128811  0  1.0037  0  0  0.111454  0.122805  0  1.005596  0
H  H6  1  0.41953164  0.31049262  0.18887945  1  0  0.068022  0  0.940219  0  0  0.07835  0  1.001526  0  0  0.080208  0  1.001116  0  0  0.11113  0.077164  0  1.001685  0
H  H7  1  0.73080650  0.12196878  0.81139079  1  0  0.068023  0  0.940564  0  0  0.078314  0  1.002031  0  0  0.080156  0  1.001665  0  0  0.111214  0.07738  0  1.001645  0
H  H8  1  0.63717747  0.83015281  0.25854537  1  0  0.087908  0  0.955138  0  0  0.096429  0  1.018994  0  0  0.098898  0  1.017145  0  0  0.117662  0.094609  0  1.020524  0
H  H9  1  0.87852562  0.57153971  0.74138136  1  0  0.087439  0  0.95567  0  0  0.096826  0  1.018647  0  0  0.099332  0  1.016715  0  0  0.118131  0.095106  0  1.01989  0
H  H10  1  0.97640730  0.04226087  0.42667088  1  0  0.120669  0  0.971336  0  0  0.125484  0  1.040154  0  0  0.12999  0  1.036754  0  0  0.108857  0.122283  0  1.04259  0
H  H11  1  0.04951881  0.61528660  0.57287176  1  0  0.120861  0  0.970493  0  0  0.125465  0  1.039586  0  0  0.130025  0  1.03607  0  0  0.108823  0.122467  0  1.041803  0
H  H12  1  0.63250490  0.27597195  0.64917640  1  0  0.111303  0  0.972037  0  0  0.119918  0  1.037591  0  0  0.123439  0  1.03574  0  0  0.109808  0.117246  0  1.039375  0
H  H13  1  0.48364310  0.62686324  0.35086774  1  0  0.109732  0  0.973543  0  0  0.117551  0  1.040331  0  0  0.121159  0  1.038358  0  0  0.109467  0.115884  0  1.040474  0
H  H14  1  0.30715720  0.05514302  0.47055083  1  0  0.088425  0  0.93886  0  0  0.095718  0  1.004158  0  0  0.09902  0  1.000388  0  0  0.1179  0.093338  0  1.006886  0
H  H15  1  0.33685496  0.58476298  0.52971778  1  0  0.088113  0  0.93985  0  0  0.095528  0  1.004881  0  0  0.098943  0  1.000967  0  0  0.117807  0.093128  0  1.0076  0
H  H16  1  0.51738491  0.57319947  0.14789918  1  0  0.409363  0  0.906978  0  0  0.376339  0  0.975788  0  0  0.388072  0  0.958781  0  0  0.279387  0.368284  0  0.987234  0
H  H17  1  0.86974811  0.42523066  0.85200945  1  0  0.408982  0  0.907525  0  0  0.376599  0  0.975333  0  0  0.388254  0  0.958422  0  0  0.279263  0.368398  0  0.987147  0
H  H18  1  0.32620312  0.41944630  0.03478024  1  0  0.378429  0  0.949309  0  0  0.334246  0  1.035547  0  0  0.34631  0  1.018662  0  0  0.27218  0.325752  0  1.047278  0
H  H19  1  0.79166673  0.38477953  0.96533776  1  0  0.37849  0  0.949291  0  0  0.33434  0  1.035523  0  0  0.34638  0  1.018658  0  0  0.272135  0.325995  0  1.0471  0
Pb  Pb20  1  0.46921755  0.55854966  0.85372106  1  0  1.33502  0  1.364404  0  0  1.151525  0  1.75653  0  0  1.215184  0  1.711276  0  0  0.63887  1.108364  0  1.785462  0
Pb  Pb21  1  0.11529683  0.70466153  0.14596677  1  0  1.337233  0  1.36354  0  0  1.153977  0  1.755393  0  0  1.217549  0  1.710084  0  0  0.63896  1.109271  0  1.784979  0
C  C22  1  0.26285036  0.12498740  0.83295917  1  0  0.108175  0  3.725336  0  0  0.080392  0  3.982802  0  0  0.084589  0  4.0017  0  0  0.041388  0.077957  0  3.969422  0
C  C23  1  0.92985186  0.29218972  0.16731147  1  0  0.10991  0  3.725995  0  0  0.082498  0  3.98281  0  0  0.086624  0  4.001662  0  0  0.041728  0.079947  0  3.969769  0
C  C24  1  0.26970927  0.98703994  0.80660092  1  0  -0.124706  0  3.703885  0  0  -0.146359  0  3.951234  0  0  -0.151067  0  3.972191  0  0  -0.078037  -0.143283  0  3.937092  0
C  C25  1  0.96316845  0.18061220  0.19366015  1  0  -0.126625  0  3.705001  0  0  -0.147858  0  3.951958  0  0  -0.152635  0  3.97298  0  0  -0.078591  -0.144838  0  3.937757  0
C  C26  1  0.33126590  0.96409313  0.92535924  1  0  -0.009403  0  3.72812  0  0  0.009597  0  3.962083  0  0  0.006295  0  3.982535  0  0  0.002261  0.011753  0  3.948347  0
C  C27  1  0.90598861  0.03896008  0.07487725  1  0  -0.008136  0  3.7251  0  0  0.011493  0  3.958103  0  0  0.008293  0  3.978419  0  0  0.002325  0.013566  0  3.944524  0
C  C28  1  0.38596721  0.08126804  0.06538424  1  0  -0.117921  0  3.706193  0  0  -0.142101  0  3.958834  0  0  -0.146336  0  3.97911  0  0  -0.076853  -0.139259  0  3.945252  0
C  C29  1  0.82081410  0.01622641  0.93488428  1  0  -0.115595  0  3.704393  0  0  -0.140294  0  3.956873  0  0  -0.144617  0  3.977182  0  0  -0.076822  -0.137531  0  3.943461  0
C  C30  1  0.37647050  0.21582134  0.08111364  1  0  0.122098  0  3.72621  0  0  0.094238  0  3.98242  0  0  0.09931  0  4.000216  0  0  0.045782  0.090888  0  3.970275  0
C  C31  1  0.79548083  0.13501265  0.91914807  1  0  0.12075  0  3.72648  0  0  0.093072  0  3.982875  0  0  0.098122  0  4.000707  0  0  0.045055  0.089644  0  3.970542  0
C  C32  1  0.34958835  0.81996792  0.90530650  1  0  0.637071  0  3.925294  0  0  0.584696  0  4.218217  0  0  0.619996  0  4.211488  0  0  0.211063  0.5609  0  4.221881  0
C  C33  1  0.94420177  0.91473661  0.09469994  1  0  0.637834  0  3.923896  0  0  0.585114  0  4.216933  0  0  0.620413  0  4.210201  0  0  0.211324  0.561357  0  4.220513  0
C  C34  1  0.64199275  0.92987627  0.34750866  1  0  0.127434  0  3.711948  0  0  0.097925  0  3.967042  0  0  0.104065  0  3.9855  0  0  0.04785  0.093904  0  3.954726  0
C  C35  1  0.79449767  0.58231702  0.65240921  1  0  0.126612  0  3.710096  0  0  0.096277  0  3.965272  0  0  0.102453  0  3.983707  0  0  0.047135  0.0922  0  3.953099  0
C  C36  1  0.83214486  0.04853448  0.44233316  1  0  -0.127752  0  3.710338  0  0  -0.15079  0  3.960429  0  0  -0.155929  0  3.980565  0  0  -0.082198  -0.147477  0  3.94677  0
C  C37  1  0.88970303  0.60598726  0.55740083  1  0  -0.128317  0  3.708005  0  0  -0.151041  0  3.958107  0  0  -0.156153  0  3.978162  0  0  -0.082336  -0.147789  0  3.944792  0
C  C38  1  0.83376997  0.17683275  0.55345536  1  0  -0.01811  0  3.74384  0  0  0.001597  0  3.975742  0  0  -0.001425  0  3.996695  0  0  -0.003225  0.003766  0  3.961112  0
C  C39  1  0.78022082  0.62315726  0.44629568  1  0  -0.017121  0  3.74244  0  0  0.002509  0  3.974228  0  0  -0.000513  0  3.99523  0  0  -0.002796  0.004529  0  3.960558  0
C  C40  1  0.64194479  0.17932326  0.56530081  1  0  -0.134529  0  3.709868  0  0  -0.154702  0  3.953456  0  0  -0.15987  0  3.97392  0  0  -0.081747  -0.151619  0  3.940063  0
C  C41  1  0.57674416  0.61399741  0.43469838  1  0  -0.131953  0  3.712421  0  0  -0.151592  0  3.956125  0  0  -0.156763  0  3.976536  0  0  -0.080637  -0.148974  0  3.942123  0
C  C42  1  0.45876020  0.05496485  0.46613840  1  0  0.135342  0  3.69939  0  0  0.106453  0  3.95133  0  0  0.113275  0  3.968065  0  0  0.051842  0.102065  0  3.940053  0
C  C43  1  0.49277619  0.58893258  0.53397832  1  0  0.133643  0  3.703358  0  0  0.104852  0  3.954651  0  0  0.111648  0  3.971306  0  0  0.051411  0.10067  0  3.943147  0
C  C44  1  0.03965318  0.30740890  0.65396806  1  0  0.628985  0  3.932623  0  0  0.579971  0  4.222531  0  0  0.614106  0  4.216339  0  0  0.208961  0.55702  0  4.225651  0
C  C45  1  0.88529232  0.65315270  0.34556247  1  0  0.62979  0  3.931876  0  0  0.580179  0  4.222328  0  0  0.614289  0  4.216246  0  0  0.208904  0.55707  0  4.225995  0
N  N46  1  0.31466270  0.23793708  0.96788671  1  0  -0.309229  0  3.166434  0  0  -0.247602  0  3.416159  0  0  -0.260484  0  3.432717  0  0  -0.305652  -0.238759  0  3.404352  0
N  N47  1  0.84677177  0.27028421  0.03240287  1  0  -0.309769  0  3.167122  0  0  -0.248526  0  3.41703  0  0  -0.261375  0  3.433569  0  0  -0.305486  -0.239911  0  3.405556  0
N  N48  1  0.45817825  0.93220969  0.35889755  1  0  -0.335259  0  3.199709  0  0  -0.264613  0  3.453513  0  0  -0.282688  0  3.47289  0  0  -0.296648  -0.25228  0  3.440159  0
N  N49  1  0.59939887  0.57337912  0.64117037  1  0  -0.332647  0  3.200817  0  0  -0.26157  0  3.454629  0  0  -0.27974  0  3.474122  0  0  -0.296108  -0.250168  0  3.44114  0
O  O50  1  0.34603756  0.73032997  0.78163294  1  0  -0.624151  0  1.974518  0  0  -0.561715  0  2.212536  0  0  -0.591306  0  2.205775  0  0  -0.289914  -0.541188  0  2.215974  0
O  O51  1  0.06440563  0.94860064  0.21825104  1  0  -0.62595  0  1.976336  0  0  -0.562608  0  2.213234  0  0  -0.592201  0  2.206508  0  0  -0.28979  -0.541849  0  2.216515  0
O  O52  1  0.37625725  0.79679458  0.01415420  1  0  -0.685765  0  1.998239  0  0  -0.614481  0  2.23973  0  0  -0.646737  0  2.234327  0  0  -0.299719  -0.592362  0  2.242581  0
O  O53  1  0.86179472  0.78279404  0.98578696  1  0  -0.686203  0  1.996979  0  0  -0.615212  0  2.23894  0  0  -0.647524  0  2.23351  0  0  -0.300408  -0.593283  0  2.241781  0
O  O54  1  0.20123024  0.30363720  0.62120936  1  0  -0.634536  0  1.907543  0  0  -0.577383  0  2.131851  0  0  -0.6059  0  2.12475  0  0  -0.307202  -0.557506  0  2.135609  0
O  O55  1  0.07956460  0.68207051  0.37812082  1  0  -0.635519  0  1.909102  0  0  -0.577946  0  2.13376  0  0  -0.606461  0  2.12658  0  0  -0.307631  -0.558268  0  2.137574  0
O  O56  1  0.04420810  0.41533789  0.76737694  1  0  -0.652437  0  2.007769  0  0  -0.581176  0  2.230585  0  0  -0.611128  0  2.223214  0  0  -0.299299  -0.560166  0  2.23441  0
O  O57  1  0.77640779  0.64776528  0.23224344  1  0  -0.652065  0  2.007283  0  0  -0.579685  0  2.229527  0  0  -0.609652  0  2.222246  0  0  -0.298624  -0.559293  0  2.233914  0
O  O58  1  0.36735352  0.53165908  0.08593812  1  0  -0.895853  0  1.890412  0  0  -0.828553  0  2.091636  0  0  -0.855807  0  2.060551  0  0  -0.577153  -0.810207  0  2.111369  0
O  O59  1  0.78170586  0.44573325  0.91403386  1  0  -0.895735  0  1.891032  0  0  -0.829165  0  2.091112  0  0  -0.856284  0  2.06022  0  0  -0.576373  -0.809999  0  2.111651  0
