# generated using pymatgen
data_CdP2H34C30(NO3)2
_symmetry_space_group_name_H-M   'P 1'
_cell_length_a   5.63457614
_cell_length_b   15.27753522
_cell_length_c   16.96570251
_cell_angle_alpha   100.53070966
_cell_angle_beta   89.99967864
_cell_angle_gamma   89.99969388
_symmetry_Int_Tables_number   1
_chemical_formula_structural   CdP2H34C30(NO3)2
_chemical_formula_sum   'Cd2 P4 H68 C60 N4 O12'
_cell_volume   1435.85078077
_cell_formula_units_Z   2
loop_
 _symmetry_equiv_pos_site_id
 _symmetry_equiv_pos_as_xyz
  1  'x, y, z'
loop_
 _atom_site_type_symbol
 _atom_site_label
 _atom_site_symmetry_multiplicity
 _atom_site_fract_x
 _atom_site_fract_y
 _atom_site_fract_z
 _atom_site_occupancy
 _atom_site_hle17_bader_spin_density
 _atom_site_hle17_ddec_charge
 _atom_site_hle17_ddec_spin_density
 _atom_site_hle17_ddec_sum_bond_order
 _atom_site_hle17_magmom
 _atom_site_hse06_10hf_bader_spin_density
 _atom_site_hse06_10hf_ddec_charge
 _atom_site_hse06_10hf_ddec_spin_density
 _atom_site_hse06_10hf_ddec_sum_bond_order
 _atom_site_hse06_10hf_magmom
 _atom_site_hse06_bader_spin_density
 _atom_site_hse06_ddec_charge
 _atom_site_hse06_ddec_spin_density
 _atom_site_hse06_ddec_sum_bond_order
 _atom_site_hse06_magmom
 _atom_site_pbe_bader_spin_density
 _atom_site_pbe_cm5_charge
 _atom_site_pbe_ddec_charge
 _atom_site_pbe_ddec_spin_density
 _atom_site_pbe_ddec_sum_bond_order
 _atom_site_pbe_magmom
Cd  Cd0  1  0.81320876  0.80801703  0.27743710  1  0  1.365974  0  1.592015  0  0  1.205863  0  2.054071  0  0  1.255963  0  1.994167  0  0  0.81036  1.169605  0  2.095649  0
Cd  Cd1  1  0.31323238  0.19198343  0.72256529  1  0  1.36606  0  1.591769  0  0  1.205946  0  2.05378  0  0  1.256047  0  1.993875  0  0  0.810406  1.169704  0  2.095346  0
P  P2  1  0.29659461  0.92570528  0.21130558  1  0  1.192007  0  4.785513  0  0  1.060117  0  5.247326  0  0  1.102629  0  5.224761  0  0  0.287975  1.030517  0  5.262253  0
P  P3  1  0.79659292  0.07429243  0.78868758  1  0  1.192014  0  4.785879  0  0  1.060162  0  5.247723  0  0  1.102678  0  5.225147  0  0  0.287864  1.030549  0  5.262659  0
P  P4  1  0.30470256  0.67062060  0.33081600  1  0  1.181574  0  4.781449  0  0  1.052475  0  5.244294  0  0  1.094914  0  5.221568  0  0  0.283398  1.022937  0  5.259321  0
P  P5  1  0.80475061  0.32938182  0.66918258  1  0  1.181722  0  4.781341  0  0  1.052617  0  5.244139  0  0  1.095041  0  5.221392  0  0  0.283494  1.023087  0  5.259204  0
H  H6  1  0.86665390  0.96095296  0.12079521  1  0  0.092305  0  0.95108  0  0  0.102854  0  1.015745  0  0  0.105342  0  1.014572  0  0  0.102437  0.101051  0  1.016628  0
H  H7  1  0.36661337  0.03903036  0.87918087  1  0  0.092375  0  0.95102  0  0  0.102922  0  1.015688  0  0  0.105421  0  1.014519  0  0  0.102456  0.101127  0  1.016571  0
H  H8  1  0.78379131  0.93880900  0.97479376  1  0  0.084695  0  0.984867  0  0  0.094189  0  1.049263  0  0  0.095541  0  1.051558  0  0  0.094423  0.09315  0  1.047861  0
H  H9  1  0.28373856  0.06116254  0.02518071  1  0  0.084803  0  0.985078  0  0  0.09419  0  1.04954  0  0  0.095617  0  1.051747  0  0  0.094409  0.093115  0  1.048173  0
H  H10  1  0.08285962  0.86578078  0.87678541  1  0  0.074923  0  1.011964  0  0  0.08383  0  1.078474  0  0  0.084694  0  1.081128  0  0  0.088936  0.083176  0  1.076708  0
H  H11  1  0.58278022  0.13418741  0.12319663  1  0  0.074971  0  1.012227  0  0  0.083795  0  1.078796  0  0  0.084658  0  1.081452  0  0  0.088901  0.083132  0  1.077038  0
H  H12  1  0.47074325  0.81721559  0.92495326  1  0  0.073273  0  0.9637  0  0  0.086575  0  1.023443  0  0  0.089124  0  1.022376  0  0  0.092803  0.08474  0  1.024301  0
H  H13  1  0.97066036  0.18276383  0.07504500  1  0  0.073494  0  0.96355  0  0  0.086773  0  1.023363  0  0  0.089342  0  1.02225  0  0  0.092842  0.084941  0  1.024224  0
H  H14  1  0.55614727  0.84211025  0.07201640  1  0  0.098057  0  0.961509  0  0  0.109356  0  1.022794  0  0  0.11241  0  1.021217  0  0  0.10294  0.107132  0  1.02405  0
H  H15  1  0.05610080  0.15788689  0.92798661  1  0  0.097923  0  0.961584  0  0  0.109054  0  1.023063  0  0  0.112104  0  1.021498  0  0  0.102862  0.106831  0  1.024312  0
H  H16  1  0.73611530  0.01539317  0.27429512  1  0  0.105961  0  0.974228  0  0  0.11182  0  1.044598  0  0  0.115661  0  1.041776  0  0  0.103673  0.108999  0  1.046782  0
H  H17  1  0.23611903  0.98460622  0.72571139  1  0  0.105876  0  0.974301  0  0  0.111834  0  1.044566  0  0  0.115679  0  1.041744  0  0  0.103685  0.109012  0  1.046748  0
H  H18  1  0.83964961  0.17597054  0.31625283  1  0  0.081129  0  0.978969  0  0  0.091503  0  1.043133  0  0  0.09378  0  1.043196  0  0  0.097199  0.089897  0  1.043151  0
H  H19  1  0.33965797  0.82402984  0.68374831  1  0  0.081125  0  0.979142  0  0  0.091507  0  1.043276  0  0  0.093782  0  1.043341  0  0  0.09722  0.089902  0  1.043289  0
H  H20  1  0.55079313  0.29292227  0.29959711  1  0  0.080295  0  0.965852  0  0  0.092195  0  1.026895  0  0  0.094497  0  1.026213  0  0  0.096407  0.090534  0  1.027464  0
H  H21  1  0.05081350  0.70707479  0.70039941  1  0  0.080329  0  0.96591  0  0  0.092219  0  1.026956  0  0  0.094522  0  1.026276  0  0  0.096415  0.090558  0  1.027533  0
H  H22  1  0.15385720  0.25010294  0.23803536  1  0  0.077746  0  0.975263  0  0  0.088841  0  1.03878  0  0  0.090959  0  1.038765  0  0  0.094689  0.087329  0  1.038869  0
H  H23  1  0.65386254  0.74989053  0.76196099  1  0  0.077648  0  0.975217  0  0  0.088737  0  1.038775  0  0  0.09086  0  1.038751  0  0  0.094636  0.087222  0  1.03887  0
H  H24  1  0.04894211  0.09096016  0.19740860  1  0  0.084035  0  0.972252  0  0  0.095554  0  1.036769  0  0  0.097473  0  1.036768  0  0  0.101059  0.094129  0  1.036905  0
H  H25  1  0.54894108  0.90903222  0.80258663  1  0  0.084109  0  0.972277  0  0  0.095617  0  1.036798  0  0  0.097544  0  1.036787  0  0  0.101074  0.094169  0  1.036972  0
H  H26  1  0.72696396  0.71209164  0.43237543  1  0  0.103823  0  0.959256  0  0  0.113067  0  1.02287  0  0  0.116396  0  1.021001  0  0  0.103922  0.110657  0  1.024261  0
H  H27  1  0.22704362  0.28792369  0.56762882  1  0  0.10368  0  0.959271  0  0  0.112913  0  1.022912  0  0  0.116235  0  1.02105  0  0  0.103914  0.110483  0  1.024293  0
H  H28  1  0.81749693  0.69127667  0.57118701  1  0  0.079245  0  0.978239  0  0  0.089338  0  1.043  0  0  0.091679  0  1.042941  0  0  0.09475  0.087666  0  1.043146  0
H  H29  1  0.31756420  0.30871773  0.42881032  1  0  0.079257  0  0.978295  0  0  0.089279  0  1.043158  0  0  0.091618  0  1.043102  0  0  0.094704  0.087604  0  1.043306  0
H  H30  1  0.53386779  0.61076018  0.64488933  1  0  0.079889  0  0.965564  0  0  0.091357  0  1.026574  0  0  0.093075  0  1.027416  0  0  0.093982  0.090092  0  1.026068  0
H  H31  1  0.03394216  0.38922959  0.35510612  1  0  0.079874  0  0.965403  0  0  0.091284  0  1.026482  0  0  0.093002  0  1.027327  0  0  0.09399  0.090008  0  1.02599  0
H  H32  1  0.15387560  0.55190926  0.57900012  1  0  0.08539  0  0.95532  0  0  0.097052  0  1.01502  0  0  0.099444  0  1.015032  0  0  0.097204  0.095343  0  1.015111  0
H  H33  1  0.65395240  0.44809360  0.42100238  1  0  0.085438  0  0.955315  0  0  0.097051  0  1.015067  0  0  0.099449  0  1.01507  0  0  0.097184  0.095334  0  1.015162  0
H  H34  1  0.05625064  0.57850232  0.44336326  1  0  0.087084  0  0.961413  0  0  0.097497  0  1.025515  0  0  0.099431  0  1.025854  0  0  0.099468  0.096082  0  1.025391  0
H  H35  1  0.55631333  0.42151412  0.55664210  1  0  0.087078  0  0.961493  0  0  0.09755  0  1.025525  0  0  0.099483  0  1.025869  0  0  0.0995  0.09614  0  1.025412  0
H  H36  1  0.85787567  0.60650960  0.24886323  1  0  0.105507  0  0.982911  0  0  0.111956  0  1.051319  0  0  0.115697  0  1.048897  0  0  0.102541  0.109266  0  1.053075  0
H  H37  1  0.35789961  0.39349135  0.75113501  1  0  0.105616  0  0.982715  0  0  0.112052  0  1.051134  0  0  0.115793  0  1.048712  0  0  0.102594  0.109358  0  1.052893  0
H  H38  1  0.75838095  0.46687097  0.15513887  1  0  0.078381  0  0.980659  0  0  0.089649  0  1.043123  0  0  0.092061  0  1.043097  0  0  0.095176  0.087927  0  1.043233  0
H  H39  1  0.25841219  0.53313561  0.84486398  1  0  0.078288  0  0.9805  0  0  0.089418  0  1.043124  0  0  0.091824  0  1.043107  0  0  0.095078  0.087705  0  1.043213  0
H  H40  1  0.05029858  0.34224086  0.12907785  1  0  0.073112  0  0.973066  0  0  0.0846  0  1.036804  0  0  0.087753  0  1.03457  0  0  0.093872  0.082321  0  1.03843  0
H  H41  1  0.55035146  0.65775632  0.87092694  1  0  0.073045  0  0.973298  0  0  0.084555  0  1.036997  0  0  0.087697  0  1.034775  0  0  0.093877  0.082282  0  1.038638  0
H  H42  1  0.44432049  0.35904255  0.19631132  1  0  0.080564  0  0.970685  0  0  0.092463  0  1.030887  0  0  0.094889  0  1.03048  0  0  0.097303  0.090746  0  1.031224  0
H  H43  1  0.94436043  0.64095421  0.80368787  1  0  0.080533  0  0.970676  0  0  0.092487  0  1.03085  0  0  0.094913  0  1.030441  0  0  0.09733  0.090769  0  1.031193  0
H  H44  1  0.54818822  0.50044655  0.28747635  1  0  0.087839  0  0.959314  0  0  0.099464  0  1.021619  0  0  0.101899  0  1.020851  0  0  0.101495  0.097708  0  1.022239  0
H  H45  1  0.04822370  0.49954520  0.71252054  1  0  0.087791  0  0.959175  0  0  0.099474  0  1.021455  0  0  0.10191  0  1.020689  0  0  0.101497  0.097709  0  1.022092  0
H  H46  1  0.26265054  0.71142889  0.18347175  1  0  0.052214  0  0.967457  0  0  0.059489  0  1.040156  0  0  0.061703  0  1.03475  0  0  0.127168  0.057699  0  1.044157  0
H  H47  1  0.76269338  0.28857977  0.81653671  1  0  0.052366  0  0.967526  0  0  0.059581  0  1.040284  0  0  0.061796  0  1.034875  0  0  0.12721  0.057797  0  1.044281  0
H  H48  1  0.98067457  0.58448617  0.97728818  1  0  0.078267  0  0.96028  0  0  0.099506  0  1.026294  0  0  0.09984  0  1.026188  0  0  0.095143  0.0991  0  1.026501  0
H  H49  1  0.48072344  0.41552466  0.02272487  1  0  0.078341  0  0.960425  0  0  0.099585  0  1.026418  0  0  0.099931  0  1.026303  0  0  0.095167  0.099167  0  1.026632  0
H  H50  1  0.15189672  0.66947244  0.94423607  1  0  0.088313  0  0.955222  0  0  0.108111  0  1.02328  0  0  0.107705  0  1.024556  0  0  0.101325  0.108321  0  1.022428  0
H  H51  1  0.65193098  0.33053442  0.05576704  1  0  0.088291  0  0.955407  0  0  0.108125  0  1.02339  0  0  0.107719  0  1.024671  0  0  0.101321  0.108333  0  1.022537  0
H  H52  1  0.90242146  0.69927856  0.00832419  1  0  0.112884  0  0.946759  0  0  0.132932  0  1.007218  0  0  0.134215  0  1.00705  0  0  0.112602  0.131893  0  1.007467  0
H  H53  1  0.40243062  0.30073447  0.99168936  1  0  0.112857  0  0.946692  0  0  0.132847  0  1.007216  0  0  0.134132  0  1.007052  0  0  0.112605  0.13181  0  1.007459  0
H  H54  1  0.54035123  0.64518695  0.11092571  1  0  0.13022  0  0.934092  0  0  0.149  0  0.994501  0  0  0.150626  0  0.993688  0  0  0.116969  0.147721  0  0.995228  0
H  H55  1  0.04035232  0.35483012  0.88907507  1  0  0.130181  0  0.934169  0  0  0.148941  0  0.994612  0  0  0.150569  0  0.993787  0  0  0.116878  0.147653  0  0.995327  0
H  H56  1  0.53109842  0.64806443  0.00639246  1  0  0.086462  0  0.964497  0  0  0.104703  0  1.034482  0  0  0.105009  0  1.034951  0  0  0.099702  0.104408  0  1.034191  0
H  H57  1  0.03111217  0.35195797  0.99360797  1  0  0.08648  0  0.964503  0  0  0.104716  0  1.034468  0  0  0.10502  0  1.034938  0  0  0.099687  0.104431  0  1.034179  0
H  H58  1  0.43189527  0.55107326  0.04107650  1  0  0.081659  0  0.952121  0  0  0.101867  0  1.016778  0  0  0.102716  0  1.016426  0  0  0.094258  0.101211  0  1.017047  0
H  H59  1  0.93188049  0.44894945  0.95892373  1  0  0.081598  0  0.951814  0  0  0.101777  0  1.016539  0  0  0.102605  0  1.016202  0  0  0.094235  0.101107  0  1.016819  0
H  H60  1  0.35273997  0.86257197  0.37870103  1  0  0.055685  0  0.957331  0  0  0.062216  0  1.029608  0  0  0.064589  0  1.024065  0  0  0.126571  0.060291  0  1.033753  0
H  H61  1  0.85275059  0.13743572  0.62130297  1  0  0.055504  0  0.957233  0  0  0.062051  0  1.029517  0  0  0.064421  0  1.023982  0  0  0.126507  0.060123  0  1.033654  0
H  H62  1  0.07189121  0.86394802  0.46441336  1  0  0.122315  0  0.96062  0  0  0.138488  0  1.027119  0  0  0.140329  0  1.025668  0  0  0.109981  0.137005  0  1.028362  0
H  H63  1  0.57191557  0.13605782  0.53559624  1  0  0.12222  0  0.960693  0  0  0.138489  0  1.027109  0  0  0.140327  0  1.025665  0  0  0.109934  0.137009  0  1.028334  0
H  H64  1  0.11096484  0.92712272  0.56374986  1  0  0.095196  0  0.963572  0  0  0.114571  0  1.028462  0  0  0.114909  0  1.029352  0  0  0.100979  0.114226  0  1.027889  0
H  H65  1  0.61097738  0.07288363  0.43625680  1  0  0.095123  0  0.963461  0  0  0.114501  0  1.028403  0  0  0.114851  0  1.029276  0  0  0.100948  0.114169  0  1.027827  0
H  H66  1  0.18241039  0.81158179  0.54275020  1  0  0.09313  0  0.942301  0  0  0.11435  0  1.005091  0  0  0.113574  0  1.007555  0  0  0.098213  0.114787  0  1.003464  0
H  H67  1  0.68242988  0.18842504  0.45725579  1  0  0.093035  0  0.942333  0  0  0.114254  0  1.005164  0  0  0.11347  0  1.007635  0  0  0.098191  0.114696  0  1.00354  0
H  H68  1  0.74687958  0.95022241  0.54158897  1  0  0.103815  0  0.978036  0  0  0.120958  0  1.043922  0  0  0.122236  0  1.043641  0  0  0.107031  0.119961  0  1.04418  0
H  H69  1  0.24691094  0.04977947  0.45840847  1  0  0.103773  0  0.977878  0  0  0.120923  0  1.043802  0  0  0.122199  0  1.043525  0  0  0.107027  0.119928  0  1.044063  0
H  H70  1  0.63805527  0.86581981  0.59226981  1  0  0.092335  0  0.942384  0  0  0.114015  0  1.005228  0  0  0.113081  0  1.007621  0  0  0.098446  0.114541  0  1.003677  0
H  H71  1  0.13806138  0.13418235  0.40772731  1  0  0.092322  0  0.942384  0  0  0.114013  0  1.005249  0  0  0.113076  0  1.007649  0  0  0.098418  0.114543  0  1.003697  0
H  H72  1  0.50612609  0.97441436  0.61055461  1  0  0.122195  0  0.947558  0  0  0.139789  0  1.011644  0  0  0.140755  0  1.011371  0  0  0.107922  0.138944  0  1.012033  0
H  H73  1  0.00613576  0.02558617  0.38944490  1  0  0.122077  0  0.947602  0  0  0.139754  0  1.011615  0  0  0.140719  0  1.011341  0  0  0.107888  0.138908  0  1.012008  0
C  C74  1  0.21999530  0.90490646  0.10544063  1  0  -0.221399  0  3.768581  0  0  -0.179966  0  4.004352  0  0  -0.189828  0  4.028156  0  0  -0.031496  -0.173406  0  3.988401  0
C  C75  1  0.71997396  0.09508142  0.89454884  1  0  -0.221446  0  3.768867  0  0  -0.18011  0  4.004712  0  0  -0.189972  0  4.02851  0  0  -0.031455  -0.173525  0  3.98871  0
C  C76  1  0.00089278  0.93083824  0.07791935  1  0  -0.044426  0  3.738761  0  0  -0.066515  0  3.984441  0  0  -0.065467  0  4.004375  0  0  -0.080882  -0.067047  0  3.970914  0
C  C77  1  0.50086251  0.06914746  0.92206493  1  0  -0.044592  0  3.738809  0  0  -0.066655  0  3.98449  0  0  -0.065626  0  4.004457  0  0  -0.080971  -0.067187  0  3.970955  0
C  C78  1  0.95267002  0.91700782  0.99583065  1  0  -0.078795  0  3.756592  0  0  -0.088669  0  4.000022  0  0  -0.092099  0  4.022463  0  0  -0.094607  -0.086355  0  3.984814  0
C  C79  1  0.45261197  0.08297071  0.00415042  1  0  -0.079016  0  3.757084  0  0  -0.088785  0  4.000489  0  0  -0.092271  0  4.022907  0  0  -0.094599  -0.086456  0  3.985306  0
C  C80  1  0.12108555  0.87595988  0.94074650  1  0  -0.071713  0  3.769006  0  0  -0.082601  0  4.009629  0  0  -0.083153  0  4.031332  0  0  -0.095459  -0.082017  0  3.994752  0
C  C81  1  0.62100903  0.12401954  0.05923835  1  0  -0.071416  0  3.768986  0  0  -0.08224  0  4.009585  0  0  -0.082796  0  4.031312  0  0  -0.095265  -0.081658  0  3.99471  0
C  C82  1  0.33798561  0.84854382  0.96792784  1  0  -0.090056  0  3.794409  0  0  -0.100463  0  4.043752  0  0  -0.103535  0  4.064454  0  0  -0.100619  -0.098392  0  4.029643  0
C  C83  1  0.83790912  0.15143990  0.03206900  1  0  -0.090561  0  3.794078  0  0  -0.100987  0  4.043392  0  0  -0.104061  0  4.064103  0  0  -0.100808  -0.098917  0  4.029288  0
C  C84  1  0.38769274  0.86307840  0.04985340  1  0  -0.051475  0  3.752624  0  0  -0.073799  0  3.995033  0  0  -0.073246  0  4.016126  0  0  -0.08515  -0.073962  0  3.980624  0
C  C85  1  0.88763804  0.13691119  0.95014482  1  0  -0.051116  0  3.752622  0  0  -0.073212  0  3.994964  0  0  -0.072658  0  4.016063  0  0  -0.085057  -0.073405  0  3.98059  0
C  C86  1  0.38365412  0.04250912  0.23470031  1  0  -0.1985  0  3.735747  0  0  -0.156937  0  3.96858  0  0  -0.165439  0  3.991207  0  0  -0.023754  -0.151253  0  3.953377  0
C  C87  1  0.88364766  0.95748843  0.76529737  1  0  -0.198273  0  3.735626  0  0  -0.156787  0  3.968585  0  0  -0.165285  0  3.991213  0  0  -0.023745  -0.15109  0  3.953356  0
C  C88  1  0.60794919  0.06696437  0.26710121  1  0  -0.057596  0  3.729506  0  0  -0.077483  0  3.969571  0  0  -0.077307  0  3.988826  0  0  -0.081935  -0.077497  0  3.956613  0
C  C89  1  0.10794998  0.93303194  0.73289980  1  0  -0.057691  0  3.729466  0  0  -0.077647  0  3.969557  0  0  -0.077475  0  3.988811  0  0  -0.082005  -0.077654  0  3.956578  0
C  C90  1  0.66643371  0.15701439  0.29010832  1  0  -0.082873  0  3.785631  0  0  -0.091909  0  4.029065  0  0  -0.09425  0  4.050042  0  0  -0.094275  -0.090313  0  4.014788  0
C  C91  1  0.16644320  0.84298438  0.70988940  1  0  -0.082894  0  3.785689  0  0  -0.091942  0  4.029155  0  0  -0.094281  0  4.050131  0  0  -0.094285  -0.090343  0  4.01488  0
C  C92  1  0.50378223  0.22299186  0.28033958  1  0  -0.084528  0  3.796609  0  0  -0.097678  0  4.042375  0  0  -0.098487  0  4.062518  0  0  -0.096124  -0.097003  0  4.028644  0
C  C93  1  0.00379248  0.77700532  0.71965765  1  0  -0.084504  0  3.796521  0  0  -0.097651  0  4.042296  0  0  -0.098462  0  4.062441  0  0  -0.096078  -0.096985  0  4.02859  0
C  C94  1  0.28156009  0.19891361  0.24634145  1  0  -0.092643  0  3.797044  0  0  -0.104019  0  4.046077  0  0  -0.106734  0  4.067099  0  0  -0.098984  -0.10216  0  4.031776  0
C  C95  1  0.78156662  0.80108753  0.75365640  1  0  -0.092436  0  3.79679  0  0  -0.103801  0  4.04581  0  0  -0.106517  0  4.066834  0  0  -0.098952  -0.101945  0  4.031521  0
C  C96  1  0.22254668  0.10925745  0.22359300  1  0  -0.055008  0  3.763069  0  0  -0.075345  0  4.003332  0  0  -0.075358  0  4.024746  0  0  -0.08363  -0.075187  0  3.988802  0
C  C97  1  0.72254808  0.89074515  0.77640401  1  0  -0.055201  0  3.76317  0  0  -0.075543  0  4.003513  0  0  -0.075559  0  4.024916  0  0  -0.083653  -0.075374  0  3.989006  0
C  C98  1  0.38242032  0.64902652  0.42957570  1  0  -0.21601  0  3.766697  0  0  -0.175407  0  4.004522  0  0  -0.184986  0  4.02836  0  0  -0.031818  -0.16906  0  3.988547  0
C  C99  1  0.88250152  0.35098310  0.57042853  1  0  -0.216179  0  3.766867  0  0  -0.175498  0  4.004649  0  0  -0.184994  0  4.028354  0  0  -0.031788  -0.16921  0  3.988777  0
C  C100  1  0.59862243  0.67944212  0.46559822  1  0  -0.052454  0  3.735227  0  0  -0.073452  0  3.9751  0  0  -0.072903  0  3.995442  0  0  -0.084432  -0.073654  0  3.961337  0
C  C101  1  0.09869149  0.32056893  0.53440977  1  0  -0.052079  0  3.735244  0  0  -0.073083  0  3.975126  0  0  -0.072549  0  3.995441  0  0  -0.084398  -0.07327  0  3.961364  0
C  C102  1  0.65000645  0.66691500  0.54336466  1  0  -0.079926  0  3.770914  0  0  -0.090661  0  4.018346  0  0  -0.09357  0  4.039636  0  0  -0.095291  -0.088716  0  4.003873  0
C  C103  1  0.15009426  0.33308929  0.45664396  1  0  -0.079796  0  3.770558  0  0  -0.090477  0  4.018007  0  0  -0.093386  0  4.039302  0  0  -0.095119  -0.088542  0  4.003531  0
C  C104  1  0.49025885  0.62186730  0.58478722  1  0  -0.070067  0  3.774159  0  0  -0.082391  0  4.019002  0  0  -0.082969  0  4.040099  0  0  -0.092963  -0.081799  0  4.004556  0
C  C105  1  0.99033315  0.37813343  0.41521838  1  0  -0.07019  0  3.773846  0  0  -0.082444  0  4.018644  0  0  -0.083027  0  4.039755  0  0  -0.093098  -0.081846  0  4.004179  0
C  C106  1  0.27753883  0.58918565  0.54820719  1  0  -0.084141  0  3.778435  0  0  -0.093714  0  4.024851  0  0  -0.096961  0  4.046236  0  0  -0.095039  -0.091543  0  4.010308  0
C  C107  1  0.77761390  0.41082488  0.45179622  1  0  -0.08408  0  3.778609  0  0  -0.09362  0  4.024977  0  0  -0.096873  0  4.046375  0  0  -0.09505  -0.091435  0  4.01041  0
C  C108  1  0.22321934  0.60345800  0.47128910  1  0  -0.054231  0  3.765401  0  0  -0.075465  0  4.008294  0  0  -0.07544  0  4.030886  0  0  -0.083573  -0.075311  0  3.992956  0
C  C109  1  0.72330764  0.39655066  0.52871296  1  0  -0.054434  0  3.765471  0  0  -0.075728  0  4.00829  0  0  -0.07573  0  4.030871  0  0  -0.083631  -0.07556  0  3.992988  0
C  C110  1  0.21197094  0.56342585  0.27292650  1  0  -0.206277  0  3.753406  0  0  -0.166281  0  3.989996  0  0  -0.175537  0  4.014093  0  0  -0.028769  -0.160102  0  3.973761  0
C  C111  1  0.71200954  0.43657494  0.72708027  1  0  -0.206209  0  3.753621  0  0  -0.166192  0  3.990207  0  0  -0.175453  0  4.014317  0  0  -0.028765  -0.160018  0  3.973979  0
C  C112  1  0.98798352  0.55283449  0.23650947  1  0  -0.055819  0  3.738971  0  0  -0.075106  0  3.975902  0  0  -0.075362  0  3.996712  0  0  -0.085485  -0.074818  0  3.961879  0
C  C113  1  0.48802606  0.44716550  0.76349072  1  0  -0.055915  0  3.739269  0  0  -0.075204  0  3.976197  0  0  -0.075461  0  3.997008  0  0  -0.085465  -0.074909  0  3.962171  0
C  C114  1  0.93168387  0.47380257  0.18412037  1  0  -0.083383  0  3.782242  0  0  -0.092398  0  4.024017  0  0  -0.095299  0  4.04567  0  0  -0.099341  -0.090439  0  4.009303  0
C  C115  1  0.43172275  0.52619560  0.81588142  1  0  -0.08306  0  3.781646  0  0  -0.091942  0  4.023431  0  0  -0.094836  0  4.045073  0  0  -0.099135  -0.089985  0  4.008722  0
C  C116  1  0.09527549  0.40415632  0.16945657  1  0  -0.085941  0  3.806011  0  0  -0.098698  0  4.051857  0  0  -0.099323  0  4.072191  0  0  -0.100377  -0.098083  0  4.037974  0
C  C117  1  0.59531032  0.59584206  0.83054714  1  0  -0.086004  0  3.80587  0  0  -0.098776  0  4.051723  0  0  -0.099393  0  4.072038  0  0  -0.100399  -0.098178  0  4.03786  0
C  C118  1  0.31674877  0.41351688  0.20731375  1  0  -0.090316  0  3.795865  0  0  -0.099836  0  4.04227  0  0  -0.102993  0  4.064047  0  0  -0.097736  -0.097704  0  4.027442  0
C  C119  1  0.81678075  0.58647960  0.79268920  1  0  -0.090285  0  3.795889  0  0  -0.099863  0  4.042331  0  0  -0.103018  0  4.064111  0  0  -0.097815  -0.097725  0  4.027487  0
C  C120  1  0.37430140  0.49266226  0.25875457  1  0  -0.054757  0  3.760875  0  0  -0.075711  0  4.003209  0  0  -0.075766  0  4.024874  0  0  -0.083284  -0.075513  0  3.988514  0
C  C121  1  0.87432639  0.50733272  0.74124686  1  0  -0.054881  0  3.760812  0  0  -0.07591  0  4.003233  0  0  -0.075969  0  4.024899  0  0  -0.083393  -0.075695  0  3.988525  0
C  C122  1  0.12495470  0.70296336  0.13645240  1  0  0.394976  0  3.805398  0  0  0.318016  0  4.093476  0  0  0.345748  0  4.0955  0  0  0.174688  0.299463  0  4.09156  0
C  C123  1  0.62498962  0.29703691  0.86354976  1  0  0.394412  0  3.805865  0  0  0.317452  0  4.094029  0  0  0.345181  0  4.096061  0  0  0.174444  0.298903  0  4.092096  0
C  C124  1  0.05048332  0.65260157  0.99463023  1  0  -0.161879  0  3.671808  0  0  -0.265164  0  3.919494  0  0  -0.261407  0  3.930332  0  0  -0.131939  -0.26737  0  3.912135  0
C  C125  1  0.55051279  0.34741370  0.00538498  1  0  -0.161931  0  3.671618  0  0  -0.265209  0  3.919301  0  0  -0.261471  0  3.930133  0  0  -0.131964  -0.267419  0  3.911962  0
C  C126  1  0.43923505  0.62430828  0.05548986  1  0  -0.166453  0  3.659473  0  0  -0.267093  0  3.907219  0  0  -0.264154  0  3.917879  0  0  -0.129869  -0.268769  0  3.899941  0
C  C127  1  0.93924280  0.37570047  0.94451117  1  0  -0.166521  0  3.659342  0  0  -0.267112  0  3.907067  0  0  -0.264153  0  3.917745  0  0  -0.129828  -0.268792  0  3.899789  0
C  C128  1  0.49521162  0.88307467  0.42271259  1  0  0.378679  0  3.802206  0  0  0.30463  0  4.088459  0  0  0.332538  0  4.08888  0  0  0.171302  0.285941  0  4.087655  0
C  C129  1  0.99525158  0.11692600  0.57728945  1  0  0.379118  0  3.802098  0  0  0.304978  0  4.08849  0  0  0.33289  0  4.088906  0  0  0.171444  0.286294  0  4.087664  0
C  C130  1  0.18269233  0.87347327  0.51826184  1  0  -0.18053  0  3.644791  0  0  -0.283224  0  3.894794  0  0  -0.280158  0  3.905638  0  0  -0.136584  -0.284972  0  3.887395  0
C  C131  1  0.68271764  0.12653360  0.48174711  1  0  -0.180199  0  3.644815  0  0  -0.283004  0  3.894813  0  0  -0.279939  0  3.905676  0  0  -0.136387  -0.284734  0  3.88741  0
C  C132  1  0.58775671  0.92317128  0.56491038  1  0  -0.171704  0  3.6198  0  0  -0.268393  0  3.857817  0  0  -0.264726  0  3.867872  0  0  -0.137355  -0.270566  0  3.851008  0
C  C133  1  0.08775965  0.07683373  0.43509199  1  0  -0.171621  0  3.619866  0  0  -0.268419  0  3.857924  0  0  -0.264756  0  3.868  0  0  -0.137276  -0.270586  0  3.851116  0
N  N134  1  0.20180959  0.66128466  0.06463841  1  0  -0.094376  0  3.515335  0  0  0.013056  0  3.744265  0  0  -0.007915  0  3.77094  0  0  -0.287558  0.027128  0  3.725768  0
N  N135  1  0.70184106  0.33872472  0.93536381  1  0  -0.094024  0  3.514994  0  0  0.013413  0  3.743886  0  0  -0.007555  0  3.770562  0  0  -0.287397  0.027472  0  3.725391  0
N  N136  1  0.42353209  0.89606952  0.49889011  1  0  -0.080002  0  3.51423  0  0  0.025084  0  3.744148  0  0  0.004883  0  3.769761  0  0  -0.283132  0.038581  0  3.726431  0
N  N137  1  0.92354854  0.10393395  0.50111015  1  0  -0.08025  0  3.514302  0  0  0.024873  0  3.74427  0  0  0.004672  0  3.769882  0  0  -0.283275  0.038372  0  3.726542  0
O  O138  1  0.51104408  0.86861657  0.21953968  1  0  -0.828978  0  2.046414  0  0  -0.748295  0  2.33289  0  0  -0.775612  0  2.312893  0  0  -0.381555  -0.728728  0  2.346035  0
O  O139  1  0.01104281  0.13137803  0.78046362  1  0  -0.828999  0  2.046459  0  0  -0.748368  0  2.332999  0  0  -0.775678  0  2.312992  0  0  -0.381576  -0.728854  0  2.346186  0
O  O140  1  0.07629910  0.91793260  0.26179233  1  0  -0.827196  0  1.991901  0  0  -0.746714  0  2.270905  0  0  -0.774159  0  2.251243  0  0  -0.378558  -0.726998  0  2.283774  0
O  O141  1  0.57633178  0.08206754  0.73819341  1  0  -0.827298  0  1.992072  0  0  -0.746726  0  2.270934  0  0  -0.774199  0  2.25133  0  0  -0.378521  -0.727026  0  2.283809  0
O  O142  1  0.09096283  0.73266864  0.33958426  1  0  -0.828663  0  1.99146  0  0  -0.749856  0  2.273246  0  0  -0.777242  0  2.25356  0  0  -0.378854  -0.730182  0  2.286119  0
O  O143  1  0.59100123  0.26733304  0.66041760  1  0  -0.828678  0  1.991325  0  0  -0.749944  0  2.273151  0  0  -0.77733  0  2.253468  0  0  -0.378877  -0.73025  0  2.286028  0
O  O144  1  0.52873550  0.69734421  0.29102168  1  0  -0.826722  0  1.979262  0  0  -0.749704  0  2.256311  0  0  -0.777073  0  2.237401  0  0  -0.377942  -0.730029  0  2.26868  0
O  O145  1  0.02879151  0.30265431  0.70898042  1  0  -0.826845  0  1.97915  0  0  -0.749749  0  2.2561  0  0  -0.777124  0  2.237195  0  0  -0.378021  -0.73006  0  2.268468  0
O  O146  1  0.91676908  0.73104129  0.14916610  1  0  -0.548312  0  2.073882  0  0  -0.487921  0  2.335995  0  0  -0.51409  0  2.329383  0  0  -0.299151  -0.469693  0  2.339979  0
O  O147  1  0.41681631  0.26894699  0.85083835  1  0  -0.548081  0  2.07397  0  0  -0.48765  0  2.336012  0  0  -0.513817  0  2.329407  0  0  -0.299019  -0.469385  0  2.339962  0
O  O148  1  0.70666151  0.89307299  0.40154090  1  0  -0.563989  0  2.066804  0  0  -0.50147  0  2.329164  0  0  -0.527168  0  2.321282  0  0  -0.310769  -0.483497  0  2.333983  0
O  O149  1  0.20667398  0.10692709  0.59846224  1  0  -0.564059  0  2.067229  0  0  -0.501485  0  2.329589  0  0  -0.527173  0  2.321702  0  0  -0.31079  -0.483521  0  2.334395  0
