# generated using pymatgen
data_ZnH12C23BrN3O4
_symmetry_space_group_name_H-M   'P 1'
_cell_length_a   11.54193904
_cell_length_b   15.84572845
_cell_length_c   17.93985680
_cell_angle_alpha   89.99996066
_cell_angle_beta   92.93575043
_cell_angle_gamma   90.00002097
_symmetry_Int_Tables_number   1
_chemical_formula_structural   ZnH12C23BrN3O4
_chemical_formula_sum   'Zn2 H24 C46 Br2 N6 O8'
_cell_volume   3276.72211918
_cell_formula_units_Z   2
loop_
 _symmetry_equiv_pos_site_id
 _symmetry_equiv_pos_as_xyz
  1  'x, y, z'
loop_
 _atom_site_type_symbol
 _atom_site_label
 _atom_site_symmetry_multiplicity
 _atom_site_fract_x
 _atom_site_fract_y
 _atom_site_fract_z
 _atom_site_occupancy
 _atom_site_pbe_bader_charge
 _atom_site_pbe_bader_spin_density
 _atom_site_pbe_cm5_charge
 _atom_site_pbe_ddec_charge
 _atom_site_pbe_ddec_spin_density
 _atom_site_pbe_ddec_sum_bond_order
 _atom_site_pbe_magmom
Zn  Zn0  1  0.99277805  0.99999987  0.92323100  1  1.273877  0  0.661357  0.807915  0  2.44941  0
Zn  Zn1  1  0.00722378  0.00000007  0.07676913  1  1.291709  0  0.66137  0.807854  0  2.449524  0
H  H2  1  0.74260700  0.79879295  0.88009504  1  0.096839  0  0.101889  0.104288  0  1.003828  0
H  H3  1  0.76582883  0.79811168  0.11931148  1  0.053771  0  0.101501  0.104425  0  1.003713  0
H  H4  1  0.64448637  0.66737106  0.12037727  1  0.054911  0  0.099105  0.101434  0  0.994836  0
H  H5  1  0.62155138  0.66787500  0.88023032  1  0.074686  0  0.098916  0.10105  0  0.994786  0
H  H6  1  0.25739388  0.79879192  0.11990518  1  0.09653  0  0.101892  0.104311  0  1.003827  0
H  H7  1  0.23417031  0.79811068  0.88068924  1  0.053778  0  0.101514  0.104452  0  1.003722  0
H  H8  1  0.35551271  0.66736947  0.87962185  1  0.054891  0  0.099123  0.10142  0  0.994829  0
H  H9  1  0.37844944  0.66787274  0.11976942  1  0.074702  0  0.098897  0.10104  0  0.994794  0
H  H10  1  0.25739374  0.20120816  0.11990535  1  0.096524  0  0.101891  0.104308  0  1.003832  0
H  H11  1  0.23417017  0.20188943  0.88068942  1  0.053782  0  0.101517  0.104454  0  1.003719  0
H  H12  1  0.35551264  0.33263067  0.87962195  1  0.054882  0  0.099131  0.101453  0  0.994829  0
H  H13  1  0.37844936  0.33212674  0.11976952  1  0.074699  0  0.098909  0.101043  0  0.994756  0
H  H14  1  0.74260686  0.20120729  0.88009522  1  0.096846  0  0.101895  0.10431  0  1.003818  0
H  H15  1  0.76582869  0.20188853  0.11931165  1  0.053766  0  0.101523  0.104449  0  1.003721  0
H  H16  1  0.64448629  0.33262911  0.12037793  1  0.054902  0  0.099113  0.101458  0  0.994816  0
H  H17  1  0.62155130  0.33212521  0.88022986  1  0.074685  0  0.098915  0.101045  0  0.994777  0
H  H18  1  0.17094404  0.00000034  0.81289926  1  0.162559  0  0.134497  0.112236  0  0.963721  0
H  H19  1  0.81286593  0.00000043  0.79695874  1  0.15108  0  0.135055  0.111159  0  0.957097  0
H  H20  1  0.18319849  0.99999986  0.67241022  1  0.150598  0  0.118108  0.123177  0  1.000405  0
H  H21  1  0.80860782  0.00000048  0.65576594  1  0.127794  0  0.118014  0.122832  0  1.002881  0
H  H22  1  0.82905387  0.00000004  0.18710078  1  0.162536  0  0.134517  0.112214  0  0.963732  0
H  H23  1  0.18713199  0.99999995  0.20303907  1  0.151367  0  0.135037  0.111149  0  0.957077  0
H  H24  1  0.81680225  0.99999998  0.32759017  1  0.150605  0  0.118093  0.123142  0  1.000388  0
H  H25  1  0.19139293  0.99999999  0.34423223  1  0.127822  0  0.118012  0.122826  0  1.002906  0
C  C26  1  0.76186537  0.80587241  0.99965826  1  -0.007019  0  -0.018007  -0.031885  0  3.962164  0
C  C27  1  0.84214562  0.88024515  0.99916261  1  1.568957  0  0.214105  0.593761  0  4.167295  0
C  C28  1  0.56110534  0.57762767  0.00042354  1  -0.035647  0  -0.00908  -0.012388  0  3.980066  0
C  C29  1  0.62616841  0.65874039  0.00033073  1  -0.016717  0  -0.011275  0.082677  0  4.025647  0
C  C30  1  0.71976729  0.76966646  0.93236604  1  -0.060461  0  -0.083933  -0.080592  0  3.980724  0
C  C31  1  0.73283314  0.76932286  0.06730740  1  -0.023684  0  -0.084062  -0.082029  0  3.980838  0
C  C32  1  0.66539891  0.69648745  0.06763096  1  -0.012264  0  -0.094196  -0.138828  0  3.999491  0
C  C33  1  0.65243271  0.69680581  0.93272646  1  -0.049459  0  -0.093402  -0.137807  0  3.999066  0
C  C34  1  0.23813551  0.80587210  0.00034195  1  -0.007325  0  -0.01801  -0.031903  0  3.962245  0
C  C35  1  0.15785356  0.88024292  0.00083751  1  1.568755  0  0.214175  0.593834  0  4.167257  0
C  C36  1  0.43889456  0.57762726  0.99957622  1  0.07821  0  -0.009105  -0.012346  0  3.98003  0
C  C37  1  0.37383067  0.65873933  0.99966840  1  -0.016444  0  -0.011313  0.082637  0  4.025646  0
C  C38  1  0.28023271  0.76966548  0.06763416  1  -0.059839  0  -0.083955  -0.080679  0  3.980812  0
C  C39  1  0.26716599  0.76932246  0.93269221  1  -0.023699  0  -0.084056  -0.082057  0  3.980854  0
C  C40  1  0.33460019  0.69648707  0.93236926  1  -0.012253  0  -0.094179  -0.138767  0  3.999471  0
C  C41  1  0.34756638  0.69680484  0.06727320  1  -0.049749  0  -0.093386  -0.137753  0  3.999099  0
C  C42  1  0.23813624  0.19412806  0.00034216  1  -0.007339  0  -0.017999  -0.031864  0  3.962173  0
C  C43  1  0.15785512  0.11975532  0.00083779  1  1.568964  0  0.214183  0.59387  0  4.167086  0
C  C44  1  0.43889453  0.42237280  0.99957627  1  0.077982  0  -0.009082  -0.012323  0  3.980077  0
C  C45  1  0.37383147  0.34126071  0.99966852  1  -0.016444  0  -0.011297  0.082692  0  4.025575  0
C  C46  1  0.28023345  0.23033401  0.06763435  1  -0.059814  0  -0.083963  -0.080693  0  3.980822  0
C  C47  1  0.26716587  0.23067761  0.93269237  1  -0.023689  0  -0.084053  -0.082041  0  3.980818  0
C  C48  1  0.33460010  0.30351365  0.93236882  1  -0.01225  0  -0.094213  -0.138874  0  3.999501  0
C  C49  1  0.34756716  0.30319530  0.06727335  1  -0.049752  0  -0.093406  -0.13778  0  3.999035  0
C  C50  1  0.76186523  0.19412711  0.99965844  1  -0.006993  0  -0.018008  -0.031917  0  3.962114  0
C  C51  1  0.84214632  0.11975503  0.99916119  1  1.568955  0  0.214187  0.593893  0  4.167204  0
C  C52  1  0.56110444  0.42237258  0.00042355  1  -0.035651  0  -0.009149  -0.012422  0  3.980145  0
C  C53  1  0.62616833  0.34125988  0.00033082  1  -0.016443  0  -0.011289  0.082641  0  4.0257  0
C  C54  1  0.71976716  0.23033373  0.93236620  1  -0.06048  0  -0.083949  -0.080658  0  3.980723  0
C  C55  1  0.73283301  0.23067675  0.06730756  1  -0.02369  0  -0.08406  -0.081988  0  3.980787  0
C  C56  1  0.66539882  0.30351214  0.06763107  1  -0.012251  0  -0.094209  -0.138895  0  3.999547  0
C  C57  1  0.65243262  0.30319437  0.93272713  1  -0.04973  0  -0.093403  -0.137761  0  3.999068  0
C  C58  1  0.09369122  0.99999981  0.77533984  1  0.430623  0  0.069143  0.113023  0  3.893298  0
C  C59  1  0.89214916  0.00000045  0.76645198  1  0.467565  0  0.06911  0.109576  0  3.902142  0
C  C60  1  0.09984077  0.00000037  0.69820210  1  0.025341  0  -0.067723  -0.149248  0  3.924594  0
C  C61  1  0.99612829  0.99999998  0.65387391  1  -0.047247  0  0.014325  0.054083  0  3.985912  0
C  C62  1  0.89022939  0.00000048  0.68894101  1  0.058672  0  -0.069349  -0.15138  0  3.928467  0
C  C63  1  0.99824003  0.00000001  0.57182628  1  0.909718  0  0.250961  0.252168  0  3.957857  0
C  C64  1  0.90630779  0.00000003  0.22465994  1  0.430608  0  0.069123  0.113064  0  3.893282  0
C  C65  1  0.10785049  0.99999992  0.23354590  1  0.467224  0  0.069075  0.109487  0  3.902269  0
C  C66  1  0.90015888  0.00000000  0.30179745  1  0.025334  0  -0.067729  -0.14926  0  3.924566  0
C  C67  1  0.00387181  0.99999996  0.34612561  1  -0.047184  0  0.01436  0.054117  0  3.985682  0
C  C68  1  0.10977136  0.99999999  0.31105660  1  0.058697  0  -0.06937  -0.151348  0  3.928556  0
C  C69  1  0.00176267  0.99999993  0.42817499  1  0.910366  0  0.250968  0.252164  0  3.957739  0
C  C70  1  0.61969039  0.49999982  0.00089878  1  -0.079218  0  -0.015948  0.016517  0  3.929946  0
C  C71  1  0.38031034  0.50000003  0.99910385  1  -0.079265  0  -0.016009  0.016425  0  3.929964  0
Br  Br72  1  0.78530970  0.49999984  0.00182982  1  -0.066918  0  0.022219  -0.064428  0  1.421395  0
Br  Br73  1  0.21468928  0.50000000  0.99817776  1  -0.067012  0  0.022252  -0.064417  0  1.421362  0
N  N74  1  0.99187205  0.00000045  0.80851730  1  -1.244949  0  -0.307975  -0.175798  0  3.498969  0
N  N75  1  0.10295357  0.00000043  0.54112731  1  -0.514749  0  -0.144403  -0.136129  0  3.196293  0
N  N76  1  0.89528663  0.00000001  0.53217627  1  -0.558534  0  -0.146147  -0.138042  0  3.197959  0
N  N77  1  0.00812673  0.99999993  0.19148278  1  -1.244976  0  -0.307908  -0.175713  0  3.498853  0
N  N78  1  0.89704891  0.00000004  0.45887203  1  -0.51533  0  -0.144355  -0.136036  0  3.19621  0
N  N79  1  0.10471607  0.99999993  0.46782389  1  -0.557372  0  -0.146133  -0.137963  0  3.197966  0
O  O80  1  0.86884580  0.90831647  0.93565726  1  -1.162091  0  -0.321636  -0.552251  0  2.317924  0
O  O81  1  0.88007236  0.90861847  0.06228176  1  -1.166575  0  -0.320533  -0.555707  0  2.327735  0
O  O82  1  0.13115512  0.90831608  0.06434290  1  -1.161987  0  -0.321642  -0.552216  0  2.317907  0
O  O83  1  0.11992857  0.90861802  0.93771784  1  -1.166377  0  -0.320598  -0.555787  0  2.327645  0
O  O84  1  0.13115494  0.09168401  0.06434314  1  -1.162002  0  -0.32166  -0.552253  0  2.31787  0
O  O85  1  0.11992838  0.09138201  0.93771752  1  -1.166566  0  -0.320571  -0.555778  0  2.327595  0
O  O86  1  0.86884562  0.09168377  0.93565694  1  -1.16213  0  -0.321626  -0.552242  0  2.317952  0
O  O87  1  0.88007217  0.09138182  0.06228144  1  -1.166541  0  -0.320625  -0.555832  0  2.327622  0
