# generated using pymatgen
data_SmH15(C8O3)3
_symmetry_space_group_name_H-M   'P 1'
_cell_length_a   7.66061103
_cell_length_b   9.66321695
_cell_length_c   13.64687306
_cell_angle_alpha   81.67388039
_cell_angle_beta   88.30925919
_cell_angle_gamma   82.79425555
_symmetry_Int_Tables_number   1
_chemical_formula_structural   SmH15(C8O3)3
_chemical_formula_sum   'Sm2 H30 C48 O18'
_cell_volume   991.61680541
_cell_formula_units_Z   2
loop_
 _symmetry_equiv_pos_site_id
 _symmetry_equiv_pos_as_xyz
  1  'x, y, z'
loop_
 _atom_site_type_symbol
 _atom_site_label
 _atom_site_symmetry_multiplicity
 _atom_site_fract_x
 _atom_site_fract_y
 _atom_site_fract_z
 _atom_site_occupancy
 _atom_site_hle17_bader_spin_density
 _atom_site_hle17_ddec_charge
 _atom_site_hle17_ddec_spin_density
 _atom_site_hle17_ddec_sum_bond_order
 _atom_site_hle17_magmom
 _atom_site_hse06_10hf_bader_spin_density
 _atom_site_hse06_10hf_ddec_charge
 _atom_site_hse06_10hf_ddec_spin_density
 _atom_site_hse06_10hf_ddec_sum_bond_order
 _atom_site_hse06_10hf_magmom
 _atom_site_hse06_bader_spin_density
 _atom_site_hse06_ddec_charge
 _atom_site_hse06_ddec_spin_density
 _atom_site_hse06_ddec_sum_bond_order
 _atom_site_hse06_magmom
 _atom_site_pbe_bader_spin_density
 _atom_site_pbe_cm5_charge
 _atom_site_pbe_ddec_charge
 _atom_site_pbe_ddec_spin_density
 _atom_site_pbe_ddec_sum_bond_order
 _atom_site_pbe_magmom
Sm  Sm0  1  0.75686008  0.98233164  0.04936903  1  0  2.292334  0  1.607093  0  0  2.135369  0  2.067245  0  0  2.24869  0  1.90251  0  0  1.500063  2.099796  0  2.099879  0
Sm  Sm1  1  0.24313717  0.01767169  0.95062974  1  0  2.292317  0  1.60717  0  0  2.135405  0  2.067244  0  0  2.248681  0  1.902581  0  0  1.500081  2.099832  0  2.099879  0
H  H2  1  0.58968903  0.98213169  0.24509585  1  0  0.419828  0  0.8932  0  0  0.386822  0  0.961588  0  0  0.398156  0  0.945448  0  0  0.299617  0.37872  0  0.973288  0
H  H3  1  0.41030872  0.01786845  0.75490616  1  0  0.419885  0  0.893128  0  0  0.386896  0  0.961494  0  0  0.398227  0  0.945358  0  0  0.299632  0.378797  0  0.973189  0
H  H4  1  0.44461426  0.93463885  0.17842890  1  0  0.436277  0  0.865474  0  0  0.406093  0  0.928309  0  0  0.417044  0  0.91284  0  0  0.299544  0.398322  0  0.939445  0
H  H5  1  0.55538331  0.06536235  0.82157227  1  0  0.436303  0  0.865438  0  0  0.4061  0  0.928307  0  0  0.417051  0  0.912838  0  0  0.299536  0.39833  0  0.939443  0
H  H6  1  0.86525025  0.39250722  0.08005656  1  0  0.106177  0  0.948566  0  0  0.117987  0  1.00765  0  0  0.121175  0  1.005807  0  0  0.110998  0.115782  0  1.008774  0
H  H7  1  0.13476322  0.60750061  0.91993942  1  0  0.106224  0  0.948564  0  0  0.118003  0  1.007677  0  0  0.121214  0  1.005805  0  0  0.111004  0.115798  0  1.0088  0
H  H8  1  0.66676552  0.61599726  0.07880167  1  0  0.114395  0  0.943875  0  0  0.12529  0  1.000952  0  0  0.128946  0  0.998622  0  0  0.114131  0.12263  0  1.002783  0
H  H9  1  0.33325258  0.38400639  0.92119613  1  0  0.114332  0  0.943846  0  0  0.125283  0  1.000861  0  0  0.128943  0  0.998531  0  0  0.114084  0.122616  0  1.002696  0
H  H10  1  0.47367755  0.74165200  0.73990489  1  0  0.119538  0  0.974638  0  0  0.126901  0  1.037934  0  0  0.130697  0  1.03559  0  0  0.106348  0.12432  0  1.039399  0
H  H11  1  0.52631704  0.25834386  0.26009756  1  0  0.119538  0  0.974663  0  0  0.126929  0  1.037925  0  0  0.130726  0  1.035576  0  0  0.106328  0.124344  0  1.039391  0
H  H12  1  0.52966399  0.63231843  0.58899556  1  0  0.08395  0  0.943865  0  0  0.098325  0  0.998339  0  0  0.101069  0  0.997184  0  0  0.098829  0.096313  0  0.999271  0
H  H13  1  0.47033078  0.36768377  0.41100628  1  0  0.083973  0  0.943887  0  0  0.098355  0  0.998346  0  0  0.101097  0  0.997194  0  0  0.09885  0.096345  0  0.999276  0
H  H14  1  0.73352870  0.40926191  0.59101620  1  0  0.079106  0  0.977718  0  0  0.091571  0  1.039271  0  0  0.093575  0  1.039125  0  0  0.097065  0.090118  0  1.039432  0
H  H15  1  0.26647283  0.59073937  0.40898272  1  0  0.079139  0  0.977704  0  0  0.091611  0  1.039238  0  0  0.093613  0  1.039094  0  0  0.0971  0.090157  0  1.0394  0
H  H16  1  0.30248553  0.19557160  0.69585361  1  0  0.419801  0  0.815456  0  0  0.398028  0  0.87783  0  0  0.409245  0  0.86515  0  0  0.332283  0.390046  0  0.886865  0
H  H17  1  0.69749004  0.80442818  0.30415085  1  0  0.419739  0  0.815591  0  0  0.39796  0  0.877948  0  0  0.409173  0  0.865275  0  0  0.332281  0.389986  0  0.886969  0
H  H18  1  0.88788229  0.30018375  0.74458871  1  0  0.10051  0  0.963035  0  0  0.110517  0  1.024966  0  0  0.113529  0  1.023637  0  0  0.102539  0.108455  0  1.025758  0
H  H19  1  0.11212426  0.69981866  0.25541006  1  0  0.100505  0  0.963046  0  0  0.110532  0  1.024959  0  0  0.113544  0  1.023629  0  0  0.102526  0.10847  0  1.025752  0
H  H20  1  0.31885131  0.83367572  0.33405301  1  0  0.094945  0  0.96656  0  0  0.104646  0  1.030653  0  0  0.107533  0  1.029788  0  0  0.102726  0.10269  0  1.031048  0
H  H21  1  0.68114815  0.16631496  0.66594768  1  0  0.094997  0  0.966532  0  0  0.104717  0  1.030584  0  0  0.10761  0  1.029713  0  0  0.10275  0.102755  0  1.031  0
H  H22  1  0.37573651  0.87169279  0.50597949  1  0  0.099365  0  0.949081  0  0  0.109313  0  1.010996  0  0  0.112408  0  1.009118  0  0  0.10763  0.106977  0  1.012554  0
H  H23  1  0.62426144  0.12830630  0.49402188  1  0  0.099399  0  0.949043  0  0  0.10935  0  1.010948  0  0  0.112447  0  1.009068  0  0  0.107647  0.107015  0  1.012504  0
H  H24  1  0.02762848  0.31448933  0.54592185  1  0  0.096124  0  0.994209  0  0  0.103943  0  1.060904  0  0  0.1069  0  1.059689  0  0  0.099039  0.101794  0  1.06186  0
H  H25  1  0.97237454  0.68551092  0.45407642  1  0  0.096112  0  0.994248  0  0  0.10391  0  1.060959  0  0  0.106868  0  1.05974  0  0  0.099051  0.101763  0  1.061906  0
H  H26  1  0.83596028  0.48890918  0.43571857  1  0  0.08545  0  0.961589  0  0  0.097032  0  1.022094  0  0  0.099747  0  1.020678  0  0  0.099863  0.095062  0  1.023106  0
H  H27  1  0.16403525  0.51108882  0.56428293  1  0  0.085308  0  0.961539  0  0  0.096892  0  1.022071  0  0  0.099625  0  1.020635  0  0  0.099801  0.094923  0  1.023082  0
H  H28  1  0.79349200  0.45523818  0.26096099  1  0  0.094186  0  0.939359  0  0  0.108111  0  0.992674  0  0  0.110794  0  0.992024  0  0  0.104526  0.106084  0  0.993452  0
H  H29  1  0.20650133  0.54475770  0.73903854  1  0  0.094198  0  0.939346  0  0  0.108113  0  0.992673  0  0  0.110796  0  0.992022  0  0  0.104517  0.106073  0  0.993465  0
H  H30  1  0.93078158  0.23785767  0.20047265  1  0  0.105319  0  0.969816  0  0  0.11482  0  1.032629  0  0  0.118317  0  1.030053  0  0  0.109035  0.112346  0  1.034374  0
H  H31  1  0.06922170  0.76213301  0.79953313  1  0  0.105409  0  0.969672  0  0  0.114828  0  1.032583  0  0  0.118322  0  1.030012  0  0  0.109065  0.112354  0  1.034329  0
C  C32  1  0.84505076  0.38904074  0.92428682  1  0  -0.081947  0  3.689889  0  0  -0.066389  0  3.925759  0  0  -0.071268  0  3.944223  0  0  -0.00177  -0.062961  0  3.912611  0
C  C33  1  0.15495579  0.61096168  0.07571194  1  0  -0.081981  0  3.689835  0  0  -0.066425  0  3.925721  0  0  -0.071304  0  3.944189  0  0  -0.001794  -0.062997  0  3.912573  0
C  C34  1  0.80623537  0.44541044  0.01106052  1  0  -0.058397  0  3.729234  0  0  -0.085935  0  3.990324  0  0  -0.086555  0  4.008616  0  0  -0.078495  -0.085305  0  3.977159  0
C  C35  1  0.19376472  0.55459191  0.98893539  1  0  -0.05845  0  3.729069  0  0  -0.085956  0  3.990139  0  0  -0.086586  0  4.008415  0  0  -0.078456  -0.085325  0  3.97697  0
C  C36  1  0.69409087  0.57185472  0.01031472  1  0  -0.058112  0  3.733768  0  0  -0.088525  0  3.996989  0  0  -0.08781  0  4.015448  0  0  -0.077116  -0.088861  0  3.98409  0
C  C37  1  0.30590970  0.42814442  0.98968588  1  0  -0.058061  0  3.73364  0  0  -0.088488  0  3.996803  0  0  -0.08778  0  4.015275  0  0  -0.0771  -0.088817  0  3.983898  0
C  C38  1  0.61614431  0.64128453  0.92362781  1  0  -0.10509  0  3.714675  0  0  -0.088553  0  3.952839  0  0  -0.096017  0  3.97359  0  0  -0.009045  -0.083408  0  3.93805  0
C  C39  1  0.38385870  0.35871572  0.07637120  1  0  -0.104977  0  3.714526  0  0  -0.088461  0  3.952716  0  0  -0.095921  0  3.973459  0  0  -0.009052  -0.083317  0  3.937928  0
C  C40  1  0.64515451  0.58256963  0.83289178  1  0  0.054483  0  3.726337  0  0  0.062884  0  3.954594  0  0  0.063406  0  3.979126  0  0  0.002808  0.062646  0  3.937583  0
C  C41  1  0.35485329  0.41743277  0.16710991  1  0  0.054478  0  3.726227  0  0  0.062876  0  3.954504  0  0  0.063396  0  3.979035  0  0  0.002871  0.062639  0  3.937494  0
C  C42  1  0.56392039  0.64515802  0.74222489  1  0  -0.110468  0  3.71176  0  0  -0.133023  0  3.966081  0  0  -0.13566  0  3.986354  0  0  -0.088634  -0.1309  0  3.951707  0
C  C43  1  0.43608052  0.35483899  0.25777738  1  0  -0.1105  0  3.711679  0  0  -0.133063  0  3.965976  0  0  -0.135695  0  3.986238  0  0  -0.088623  -0.130933  0  3.951599  0
C  C44  1  0.59482685  0.58301013  0.65752766  1  0  -0.05701  0  3.782745  0  0  -0.071962  0  4.035593  0  0  -0.074005  0  4.057448  0  0  -0.089787  -0.070379  0  4.020426  0
C  C45  1  0.40516491  0.41698672  0.34247692  1  0  -0.057028  0  3.782664  0  0  -0.071996  0  4.035529  0  0  -0.074038  0  4.057382  0  0  -0.089784  -0.070414  0  4.020363  0
C  C46  1  0.70981716  0.45687163  0.65859452  1  0  -0.073501  0  3.8027  0  0  -0.087339  0  4.052299  0  0  -0.08894  0  4.074561  0  0  -0.095563  -0.086115  0  4.036933  0
C  C47  1  0.29018103  0.54312644  0.34140402  1  0  -0.073541  0  3.80269  0  0  -0.08738  0  4.052292  0  0  -0.088981  0  4.074553  0  0  -0.095631  -0.086157  0  4.036932  0
C  C48  1  0.79454148  0.39496055  0.74449020  1  0  -0.113156  0  3.738261  0  0  -0.134392  0  3.990278  0  0  -0.137198  0  4.011057  0  0  -0.093119  -0.132483  0  3.975876  0
C  C49  1  0.20546043  0.60503864  0.25550819  1  0  -0.113126  0  3.738353  0  0  -0.13436  0  3.990362  0  0  -0.137165  0  4.01114  0  0  -0.09308  -0.132452  0  3.975965  0
C  C50  1  0.76456930  0.45472559  0.83345852  1  0  0.045888  0  3.74302  0  0  0.055224  0  3.970429  0  0  0.055139  0  3.994995  0  0  0.001198  0.055438  0  3.953416  0
C  C51  1  0.23543893  0.54527474  0.16654043  1  0  0.045879  0  3.743116  0  0  0.055178  0  3.97058  0  0  0.055092  0  3.995145  0  0  0.00115  0.055389  0  3.953575  0
C  C52  1  0.97913015  0.26229239  0.92925735  1  0  0.692474  0  3.865442  0  0  0.644574  0  4.159662  0  0  0.678661  0  4.156335  0  0  0.217595  0.620964  0  4.166693  0
C  C53  1  0.02087600  0.73771212  0.07074268  1  0  0.692489  0  3.865577  0  0  0.644583  0  4.159809  0  0  0.678669  0  4.156488  0  0  0.217637  0.620972  0  4.166839  0
C  C54  1  0.49566004  0.77201815  0.93227016  1  0  0.684115  0  3.86992  0  0  0.636711  0  4.16062  0  0  0.671236  0  4.157793  0  0  0.216115  0.613018  0  4.166767  0
C  C55  1  0.50434461  0.22798738  0.06773052  1  0  0.683968  0  3.870314  0  0  0.636551  0  4.161031  0  0  0.671073  0  4.158217  0  0  0.216087  0.612858  0  4.167176  0
C  C56  1  0.14866108  0.02835349  0.30090010  1  0  -0.064722  0  3.671298  0  0  -0.051826  0  3.906298  0  0  -0.054113  0  3.923121  0  0  0.001609  -0.050172  0  3.894226  0
C  C57  1  0.85134939  0.97164160  0.69909860  1  0  -0.064428  0  3.671095  0  0  -0.051562  0  3.906039  0  0  -0.05385  0  3.92285  0  0  0.001699  -0.04991  0  3.89397  0
C  C58  1  0.25796188  0.92904045  0.36140065  1  0  -0.093458  0  3.75976  0  0  -0.117459  0  4.018348  0  0  -0.120444  0  4.037741  0  0  -0.093122  -0.115492  0  4.004741  0
C  C59  1  0.74203742  0.07095130  0.63859848  1  0  -0.09375  0  3.760085  0  0  -0.117765  0  4.018717  0  0  -0.120752  0  4.038116  0  0  -0.09332  -0.115802  0  4.005107  0
C  C60  1  0.28994343  0.95001813  0.45829927  1  0  -0.038192  0  3.744905  0  0  -0.07095  0  4.008755  0  0  -0.068293  0  4.027845  0  0  -0.077204  -0.072255  0  3.995587  0
C  C61  1  0.71005244  0.04997775  0.54170389  1  0  -0.038242  0  3.745069  0  0  -0.071018  0  4.008925  0  0  -0.068367  0  4.028018  0  0  -0.077205  -0.072318  0  3.99575  0
C  C62  1  0.21661986  0.07041618  0.49627149  1  0  -0.127126  0  3.720169  0  0  -0.111508  0  3.961066  0  0  -0.121571  0  3.984561  0  0  -0.015049  -0.105158  0  3.94533  0
C  C63  1  0.78338205  0.92957561  0.50372761  1  0  -0.127037  0  3.719932  0  0  -0.111404  0  3.960758  0  0  -0.121443  0  3.984266  0  0  -0.014963  -0.105057  0  3.945019  0
C  C64  1  0.09991222  0.17513616  0.43651052  1  0  0.061864  0  3.726187  0  0  0.070579  0  3.9519  0  0  0.072184  0  3.977767  0  0  0.003436  0.069625  0  3.934553  0
C  C65  1  0.90008461  0.82486186  0.56349096  1  0  0.061838  0  3.726224  0  0  0.070543  0  3.951962  0  0  0.072083  0  3.977916  0  0  0.003409  0.069595  0  3.934603  0
C  C66  1  0.00995857  0.29750561  0.47017250  1  0  -0.132767  0  3.753314  0  0  -0.155213  0  4.009667  0  0  -0.160165  0  4.032882  0  0  -0.098824  -0.152213  0  3.993818  0
C  C67  1  0.99003572  0.70249241  0.52982534  1  0  -0.13281  0  3.753573  0  0  -0.155253  0  4.00992  0  0  -0.160184  0  4.033153  0  0  -0.098844  -0.152257  0  3.994078  0
C  C68  1  0.90185363  0.39509759  0.40825842  1  0  -0.061479  0  3.782115  0  0  -0.077098  0  4.035902  0  0  -0.078109  0  4.057853  0  0  -0.088831  -0.075885  0  4.020616  0
C  C69  1  0.09814173  0.60490886  0.59174153  1  0  -0.06126  0  3.782175  0  0  -0.076873  0  4.03595  0  0  -0.077896  0  4.057895  0  0  -0.088767  -0.07566  0  4.020655  0
C  C70  1  0.87697638  0.37608712  0.30938614  1  0  -0.050393  0  3.761524  0  0  -0.065939  0  4.016482  0  0  -0.06838  0  4.038116  0  0  -0.085188  -0.064315  0  4.001804  0
C  C71  1  0.12302645  0.62391418  0.69061277  1  0  -0.050547  0  3.7615  0  0  -0.066076  0  4.016447  0  0  -0.06852  0  4.038087  0  0  -0.085229  -0.064441  0  4.001769  0
C  C72  1  0.95632145  0.25635084  0.27515286  1  0  -0.088845  0  3.697388  0  0  -0.115286  0  3.955141  0  0  -0.116461  0  3.974313  0  0  -0.081541  -0.114189  0  3.941819  0
C  C73  1  0.04368877  0.74365265  0.72484870  1  0  -0.088811  0  3.697277  0  0  -0.115181  0  3.95506  0  0  -0.116353  0  3.97423  0  0  -0.081524  -0.114087  0  3.941736  0
C  C74  1  0.06741093  0.15291426  0.33675698  1  0  0.045563  0  3.725416  0  0  0.055818  0  3.95209  0  0  0.054423  0  3.976722  0  0  0.002477  0.056657  0  3.935398  0
C  C75  1  0.93259504  0.84708390  0.66324366  1  0  0.045558  0  3.725594  0  0  0.055764  0  3.95234  0  0  0.054389  0  3.976983  0  0  0.002451  0.0566  0  3.935646  0
C  C76  1  0.10866661  0.00023059  0.19881252  1  0  0.718703  0  3.829673  0  0  0.669291  0  4.127252  0  0  0.704433  0  4.118549  0  0  0.241996  0.645593  0  4.134798  0
C  C77  1  0.89133714  0.99976544  0.80118689  1  0  0.718521  0  3.829986  0  0  0.66927  0  4.127307  0  0  0.704427  0  4.118581  0  0  0.242036  0.645573  0  4.13485  0
C  C78  1  0.27448081  0.07742785  0.59808366  1  0  0.65353  0  3.766476  0  0  0.59975  0  4.068542  0  0  0.633452  0  4.059772  0  0  0.240951  0.576944  0  4.073834  0
C  C79  1  0.72550310  0.92258482  0.40191142  1  0  0.653517  0  3.766752  0  0  0.599749  0  4.068743  0  0  0.633452  0  4.059969  0  0  0.240909  0.57694  0  4.074033  0
O  O80  1  0.96061627  0.15489968  0.99618874  1  0  -0.847388  0  2.146771  0  0  -0.788735  0  2.409776  0  0  -0.829948  0  2.398643  0  0  -0.447182  -0.770345  0  2.416176  0
O  O81  1  0.03938822  0.84510692  0.00381038  1  0  -0.847454  0  2.146889  0  0  -0.78878  0  2.409849  0  0  -0.829994  0  2.398719  0  0  -0.447245  -0.770389  0  2.416248  0
O  O82  1  0.57305184  0.91810291  0.19485942  1  0  -0.922525  0  1.907504  0  0  -0.871089  0  2.099078  0  0  -0.898463  0  2.062081  0  0  -0.639011  -0.856944  0  2.122011  0
O  O83  1  0.42694592  0.08189723  0.80514185  1  0  -0.922608  0  1.907389  0  0  -0.871165  0  2.098934  0  0  -0.898539  0  2.061946  0  0  -0.63905  -0.857021  0  2.121864  0
O  O84  1  0.11344077  0.26090531  0.87344798  1  0  -0.646784  0  1.96238  0  0  -0.600965  0  2.197451  0  0  -0.63052  0  2.187746  0  0  -0.343132  -0.584772  0  2.203396  0
O  O85  1  0.88656484  0.73909497  0.12655173  1  0  -0.646755  0  1.962419  0  0  -0.600913  0  2.19747  0  0  -0.63047  0  2.187762  0  0  -0.34311  -0.584722  0  2.203417  0
O  O86  1  0.35813810  0.80488339  0.88088069  1  0  -0.65171  0  2.031602  0  0  -0.599955  0  2.273248  0  0  -0.629913  0  2.264283  0  0  -0.356318  -0.58349  0  2.278117  0
O  O87  1  0.64186510  0.19512320  0.11911771  1  0  -0.651619  0  2.031749  0  0  -0.599836  0  2.273399  0  0  -0.629807  0  2.264446  0  0  -0.35628  -0.583367  0  2.27826  0
O  O88  1  0.52950799  0.85201978  0.99669597  1  0  -0.83481  0  2.060314  0  0  -0.776293  0  2.32324  0  0  -0.816742  0  2.310183  0  0  -0.438835  -0.75834  0  2.330515  0
O  O89  1  0.47048936  0.14798245  0.00330730  1  0  -0.834823  0  2.060399  0  0  -0.776331  0  2.323371  0  0  -0.816754  0  2.31027  0  0  -0.438886  -0.758373  0  2.330639  0
O  O90  1  0.94989530  0.99322632  0.18121996  1  0  -0.678642  0  2.06849  0  0  -0.628973  0  2.325087  0  0  -0.662058  0  2.314156  0  0  -0.372981  -0.61153  0  2.330657  0
O  O91  1  0.05010560  0.00677068  0.81878304  1  0  -0.678604  0  2.068751  0  0  -0.628945  0  2.325154  0  0  -0.662028  0  2.314217  0  0  -0.372988  -0.611504  0  2.330723  0
O  O92  1  0.23693664  0.98334596  0.13687556  1  0  -0.734323  0  2.016241  0  0  -0.676027  0  2.257731  0  0  -0.710494  0  2.246155  0  0  -0.355774  -0.657445  0  2.264021  0
O  O93  1  0.76305977  0.01665530  0.86311829  1  0  -0.734332  0  2.016403  0  0  -0.676083  0  2.257819  0  0  -0.710563  0  2.246236  0  0  -0.355788  -0.657499  0  2.264108  0
O  O94  1  0.34443229  0.97165675  0.65164778  1  0  -0.541987  0  2.016645  0  0  -0.489426  0  2.235464  0  0  -0.511059  0  2.22854  0  0  -0.264553  -0.47457  0  2.239799  0
O  O95  1  0.65556068  0.02834007  0.34836118  1  0  -0.541871  0  2.01703  0  0  -0.489315  0  2.23582  0  0  -0.510953  0  2.228899  0  0  -0.264459  -0.474487  0  2.240219  0
O  O96  1  0.25522246  0.20598150  0.62764424  1  0  -0.531029  0  2.050219  0  0  -0.476771  0  2.252619  0  0  -0.496593  0  2.236576  0  0  -0.321312  -0.462833  0  2.263274  0
O  O97  1  0.74476132  0.79401630  0.37235886  1  0  -0.531073  0  2.050232  0  0  -0.476735  0  2.252519  0  0  -0.496554  0  2.236481  0  0  -0.321361  -0.4628  0  2.263159  0
