# generated using pymatgen
data_Fe2H20C29N18O
_symmetry_space_group_name_H-M   'P 1'
_cell_length_a   8.48038038
_cell_length_b   9.50547598
_cell_length_c   9.80881078
_cell_angle_alpha   84.91780770
_cell_angle_beta   67.57518166
_cell_angle_gamma   82.27799045
_symmetry_Int_Tables_number   1
_chemical_formula_structural   Fe2H20C29N18O
_chemical_formula_sum   'Fe2 H20 C29 N18 O1'
_cell_volume   723.66790908
_cell_formula_units_Z   1
loop_
 _symmetry_equiv_pos_site_id
 _symmetry_equiv_pos_as_xyz
  1  'x, y, z'
loop_
 _atom_site_type_symbol
 _atom_site_label
 _atom_site_symmetry_multiplicity
 _atom_site_fract_x
 _atom_site_fract_y
 _atom_site_fract_z
 _atom_site_occupancy
 _atom_site_pbe_bader_spin_density
 _atom_site_pbe_cm5_charge
 _atom_site_pbe_ddec_charge
 _atom_site_pbe_ddec_spin_density
 _atom_site_pbe_ddec_sum_bond_order
 _atom_site_pbe_magmom
Fe  Fe0  1  0.00190670  0.99996098  0.99952957  1  0  0.85119  0.430308  0  3.867556  0
Fe  Fe1  1  0.95967994  0.00279800  0.51402933  1  0  0.675101  0.174919  0  5.159035  0
H  H2  1  0.54790274  0.31594079  0.69370748  1  0  0.104827  0.105943  0  1.026726  0
H  H3  1  0.45283190  0.69370553  0.31263460  1  0  0.111494  0.126998  0  1.009942  0
H  H4  1  0.75444721  0.49678787  0.57117937  1  0  0.104046  0.104063  0  1.041547  0
H  H5  1  0.24181871  0.51519880  0.42831708  1  0  0.104487  0.105698  0  1.042088  0
H  H6  1  0.63607668  0.75040824  0.55040952  1  0  0.103424  0.104172  0  1.022333  0
H  H7  1  0.35393364  0.25651320  0.43717552  1  0  0.106348  0.116099  0  1.015183  0
H  H8  1  0.31705446  0.81429437  0.65543012  1  0  0.113675  0.088193  0  1.01399  0
H  H9  1  0.67167155  0.18918552  0.33078436  1  0  0.10957  0.072808  0  1.025815  0
H  H10  1  0.02260307  0.59720642  0.76574391  1  0  0.298216  0.261935  0  1.023717  0
H  H11  1  0.94046162  0.49456372  0.68653491  1  0  0.29612  0.267192  0  1.008434  0
H  H12  1  0.97530760  0.40231446  0.23109971  1  0  0.29841  0.262822  0  1.02043  0
H  H13  1  0.05892388  0.50305305  0.31106161  1  0  0.297265  0.269186  0  1.002094  0
H  H14  1  0.61678147  0.96072236  0.15362227  1  0  0.12153  0.088786  0  1.076631  0
H  H15  1  0.38174207  0.04467301  0.86174262  1  0  0.117409  0.074418  0  1.094268  0
H  H16  1  0.34738530  0.10673780  0.16375938  1  0  0.1126  0.124423  0  0.998451  0
H  H17  1  0.65523910  0.89559547  0.84927545  1  0  0.10754  0.110454  0  1.015633  0
H  H18  1  0.36123527  0.34633024  0.03390069  1  0  0.102121  0.092799  0  1.050727  0
H  H19  1  0.64112593  0.65082694  0.96330627  1  0  0.103156  0.093197  0  1.049517  0
H  H20  1  0.65398245  0.43377343  0.90158193  1  0  0.105503  0.112042  0  1.056007  0
H  H21  1  0.34857540  0.56219256  0.09156064  1  0  0.106932  0.112119  0  1.05417  0
C  C22  1  0.20109937  0.37138201  0.80725511  1  0  0.228116  0.143012  0  3.984414  0
C  C23  1  0.79899292  0.63092291  0.19105858  1  0  0.229688  0.143406  0  3.980463  0
C  C24  1  0.95716907  0.27931088  0.89971649  1  0  0.234535  0.150323  0  3.974632  0
C  C25  1  0.04509222  0.71964175  0.09753027  1  0  0.234554  0.148498  0  3.97953  0
C  C26  1  0.32655867  0.47267216  0.73891658  1  0  0.115754  0.147828  0  4.066716  0
C  C27  1  0.67076702  0.53198622  0.25973388  1  0  0.114344  0.147052  0  4.060857  0
C  C28  1  0.50295931  0.42772757  0.68456645  1  0  -0.080729  -0.147977  0  3.948054  0
C  C29  1  0.49520452  0.58046804  0.31658609  1  0  -0.075311  -0.141212  0  3.911955  0
C  C30  1  0.61655629  0.52858968  0.61699422  1  0  -0.07187  -0.031559  0  3.950621  0
C  C31  1  0.37905673  0.48075687  0.38153776  1  0  -0.071979  -0.032116  0  3.941828  0
C  C32  1  0.55059970  0.66975125  0.60562022  1  0  -0.082379  -0.120822  0  3.965624  0
C  C33  1  0.44091380  0.33763296  0.38804496  1  0  -0.083262  -0.123313  0  3.95527  0
C  C34  1  0.37319021  0.70536438  0.66346160  1  0  0.047599  0.101405  0  3.968299  0
C  C35  1  0.61792335  0.29979858  0.32936817  1  0  0.039541  0.089992  0  4.000337  0
C  C36  1  0.78366409  0.24359026  0.96089090  1  0  0.119774  0.148772  0  4.006736  0
C  C37  1  0.21884360  0.75473592  0.03685461  1  0  0.124012  0.155486  0  3.992606  0
C  C38  1  0.62010447  0.06596396  0.09954943  1  0  0.055483  0.088518  0  3.889546  0
C  C39  1  0.38184354  0.93598012  0.90754233  1  0  0.04796  0.075678  0  3.919838  0
C  C40  1  0.46954545  0.14850368  0.10360395  1  0  -0.074846  -0.106892  0  3.938108  0
C  C41  1  0.53233180  0.85272348  0.90198600  1  0  -0.081152  -0.121597  0  3.966204  0
C  C42  1  0.47823220  0.28183059  0.03191083  1  0  -0.071663  -0.033145  0  3.972738  0
C  C43  1  0.52408639  0.71625676  0.96696294  1  0  -0.066965  -0.021135  0  3.961189  0
C  C44  1  0.63845354  0.33049829  0.95912900  1  0  -0.083271  -0.152595  0  3.937517  0
C  C45  1  0.36412058  0.66671778  0.03679864  1  0  -0.078074  -0.143568  0  3.922198  0
C  C46  1  0.98826970  0.03107316  0.31076375  1  0  0.042374  0.034881  0  3.714142  0
C  C47  1  0.20583051  0.97654237  0.44307103  1  0  0.035717  0.057889  0  3.813219  0
C  C48  1  0.98591745  0.19829576  0.52719067  1  0  0.020327  0.014163  0  3.8034  0
C  C49  1  0.98383028  0.96976665  0.70020792  1  0  0.036974  0.027733  0  3.723328  0
C  C50  1  0.98441829  0.80247499  0.48495308  1  0  0.021229  0.014684  0  3.799915  0
N  N51  1  0.08105447  0.18354687  0.91481162  1  0  -0.236062  -0.11675  0  3.594633  0
N  N52  1  0.92227032  0.81698464  0.08309391  1  0  -0.237366  -0.118899  0  3.6142  0
N  N53  1  0.23241516  0.24013966  0.85901020  1  0  -0.199739  -0.20828  0  3.202461  0
N  N54  1  0.76991435  0.76241054  0.13889024  1  0  -0.192324  -0.194197  0  3.192656  0
N  N55  1  0.02875758  0.39882461  0.83135991  1  0  -0.12817  0.141451  0  3.713752  0
N  N56  1  0.97139586  0.60105811  0.16634307  1  0  -0.128737  0.137019  0  3.721015  0
N  N57  1  0.26242114  0.60968860  0.72981592  1  0  -0.310253  -0.294547  0  3.351483  0
N  N58  1  0.73178935  0.39365047  0.26582276  1  0  -0.313922  -0.301672  0  3.360571  0
N  N59  1  0.94153479  0.51874028  0.78682639  1  0  -0.486978  -0.502127  0  3.104804  0
N  N60  1  0.05699842  0.48001946  0.21077572  1  0  -0.486375  -0.500272  0  3.101021  0
N  N61  1  0.77560866  0.11100163  0.02889607  1  0  -0.320556  -0.181922  0  3.560489  0
N  N62  1  0.22675202  0.88888225  0.97256802  1  0  -0.319739  -0.173193  0  3.555546  0
N  N63  1  0.99222590  0.03732167  0.18979229  1  0  -0.384698  -0.282313  0  3.588325  0
N  N64  1  0.35567458  0.95826264  0.40506466  1  0  -0.344535  -0.363641  0  2.937285  0
N  N65  1  0.99795163  0.31771252  0.53918605  1  0  -0.350353  -0.364318  0  3.035539  0
N  N66  1  0.00541676  0.96286872  0.81183591  1  0  -0.385614  -0.281905  0  3.58806  0
N  N67  1  0.99798131  0.68147889  0.46213157  1  0  -0.348637  -0.361679  0  3.033596  0
N  N68  1  0.74753607  0.02888514  0.56738107  1  0  -0.185914  0.109213  0  3.54978  0
O  O69  1  0.60128304  0.05258052  0.59204074  1  0  0.082523  0.046067  0  2.266826  0
