# generated using pymatgen
data_GdAgH8C18(NO2)4
_symmetry_space_group_name_H-M   'P 1'
_cell_length_a   8.55983467
_cell_length_b   17.67032560
_cell_length_c   24.94023156
_cell_angle_alpha   89.99998178
_cell_angle_beta   90.00004360
_cell_angle_gamma   90.00038230
_symmetry_Int_Tables_number   1
_chemical_formula_structural   GdAgH8C18(NO2)4
_chemical_formula_sum   'Gd8 Ag8 H64 C144 N32 O64'
_cell_volume   3772.33636617
_cell_formula_units_Z   8
loop_
 _symmetry_equiv_pos_site_id
 _symmetry_equiv_pos_as_xyz
  1  'x, y, z'
loop_
 _atom_site_type_symbol
 _atom_site_label
 _atom_site_symmetry_multiplicity
 _atom_site_fract_x
 _atom_site_fract_y
 _atom_site_fract_z
 _atom_site_occupancy
 _atom_site_pbe_bader_charge
 _atom_site_pbe_bader_spin_density
 _atom_site_pbe_cm5_charge
 _atom_site_pbe_ddec_charge
 _atom_site_pbe_ddec_spin_density
 _atom_site_pbe_ddec_sum_bond_order
 _atom_site_pbe_magmom
Gd  Gd0  1  0.83597717  0.78365131  0.02509000  1  2.181959  0  1.486609  2.067992  0  2.230755  0
Gd  Gd1  1  0.33597747  0.71634536  0.97490952  1  2.182002  0  1.486626  2.068011  0  2.230734  0
Gd  Gd2  1  0.33597586  0.21634505  0.52509017  1  2.181925  0  1.486589  2.067899  0  2.230884  0
Gd  Gd3  1  0.83597424  0.28365420  0.47491066  1  2.181848  0  1.486588  2.067939  0  2.23087  0
Gd  Gd4  1  0.66402225  0.78365376  0.47491018  1  2.181898  0  1.486601  2.067989  0  2.230784  0
Gd  Gd5  1  0.16401803  0.71634801  0.52509089  1  2.181908  0  1.486609  2.068022  0  2.230769  0
Gd  Gd6  1  0.16402328  0.21634807  0.97491035  1  2.181842  0  1.48663  2.068045  0  2.23069  0
Gd  Gd7  1  0.66402065  0.28365402  0.02508964  1  2.182019  0  1.486614  2.068  0  2.230733  0
Ag  Ag8  1  0.53902130  0.95462036  0.72700564  1  0.507536  0  0.483149  0.311079  0  1.907537  0
Ag  Ag9  1  0.03902117  0.54537931  0.27299300  1  0.507463  0  0.483145  0.311057  0  1.907656  0
Ag  Ag10  1  0.03902585  0.04537892  0.22700711  1  0.507397  0  0.483144  0.311078  0  1.907546  0
Ag  Ag11  1  0.53901908  0.45462220  0.77299485  1  0.507976  0  0.483148  0.311054  0  1.907571  0
Ag  Ag12  1  0.96098160  0.95462046  0.77299324  1  0.507808  0  0.483156  0.311095  0  1.907616  0
Ag  Ag13  1  0.46097669  0.54537774  0.22700431  1  0.507918  0  0.483143  0.311038  0  1.907488  0
Ag  Ag14  1  0.46098849  0.04537676  0.27299712  1  0.5079  0  0.483138  0.311068  0  1.907567  0
Ag  Ag15  1  0.96097928  0.45462233  0.72700575  1  0.507383  0  0.483141  0.311037  0  1.907572  0
H  H16  1  0.58756540  0.58530463  0.85407829  1  0.097976  0  0.107736  0.12099  0  1.008851  0
H  H17  1  0.32990320  0.83632903  0.79174721  1  0.099078  0  0.108012  0.126308  0  0.9976  0
H  H18  1  0.93599578  0.34569330  0.91045153  1  0.530886  0  0.334446  0.298593  0  0.945698  0
H  H19  1  0.74102675  0.31259118  0.83541973  1  0.191851  0  0.150544  0.123269  0  0.956689  0
H  H20  1  0.11013988  0.00302312  0.93772828  1  0.135852  0  0.123111  0.146823  0  0.97834  0
H  H21  1  0.04879859  0.48687261  0.95679099  1  0.095858  0  0.111569  0.126462  0  1.030272  0
H  H22  1  0.45202209  0.11454513  0.79232388  1  0.189953  0  0.141291  0.113901  0  0.988866  0
H  H23  1  0.27919880  0.12240094  0.87044783  1  0.562755  0  0.313328  0.296511  0  0.99253  0
H  H24  1  0.08756889  0.91469010  0.14592157  1  0.097986  0  0.107744  0.120986  0  1.008823  0
H  H25  1  0.82991452  0.66366875  0.20825271  1  0.09963  0  0.10802  0.126326  0  0.997572  0
H  H26  1  0.43599556  0.15430514  0.08954812  1  0.530426  0  0.334437  0.298526  0  0.945718  0
H  H27  1  0.24102833  0.18740494  0.16457948  1  0.191952  0  0.15051  0.123279  0  0.956648  0
H  H28  1  0.61013326  0.49697540  0.06227170  1  0.135792  0  0.123124  0.146801  0  0.978314  0
H  H29  1  0.54879929  0.01312740  0.04320737  1  0.09574  0  0.111536  0.126398  0  1.030294  0
H  H30  1  0.95202361  0.38545280  0.20767377  1  0.189923  0  0.141306  0.113895  0  0.98885  0
H  H31  1  0.77919419  0.37759699  0.12955138  1  0.562791  0  0.313301  0.296456  0  0.992607  0
H  H32  1  0.08756335  0.41469248  0.35407647  1  0.09791  0  0.107702  0.120951  0  1.008883  0
H  H33  1  0.82991117  0.16367059  0.29174798  1  0.099693  0  0.108037  0.126312  0  0.99757  0
H  H34  1  0.43598885  0.65430604  0.41045367  1  0.530435  0  0.334457  0.298573  0  0.945663  0
H  H35  1  0.24102378  0.68740870  0.33542066  1  0.191863  0  0.150531  0.12326  0  0.956679  0
H  H36  1  0.61013712  0.99697233  0.43772806  1  0.13588  0  0.123136  0.146833  0  0.978308  0
H  H37  1  0.54879151  0.51312772  0.45679208  1  0.095592  0  0.111565  0.126446  0  1.030361  0
H  H38  1  0.95202481  0.88545375  0.29232489  1  0.189925  0  0.141306  0.113933  0  0.988839  0
H  H39  1  0.77919907  0.87759678  0.37044845  1  0.562722  0  0.31332  0.296475  0  0.992569  0
H  H40  1  0.58755822  0.08530484  0.64591949  1  0.098069  0  0.107723  0.120976  0  1.008935  0
H  H41  1  0.32990901  0.33632921  0.70825566  1  0.099295  0  0.107987  0.126265  0  0.99758  0
H  H42  1  0.93599185  0.84569265  0.58954788  1  0.530423  0  0.33445  0.298575  0  0.945657  0
H  H43  1  0.74102532  0.81259049  0.66458044  1  0.191848  0  0.150574  0.123316  0  0.956632  0
H  H44  1  0.11013472  0.50302191  0.56227341  1  0.135905  0  0.123114  0.146803  0  0.97828  0
H  H45  1  0.04879456  0.98687255  0.54320816  1  0.095886  0  0.111555  0.126465  0  1.030311  0
H  H46  1  0.45201959  0.61454669  0.70767666  1  0.194918  0  0.141313  0.113921  0  0.988834  0
H  H47  1  0.27919379  0.62240084  0.62955266  1  0.562817  0  0.313324  0.296565  0  0.992521  0
H  H48  1  0.91242658  0.58530917  0.64592308  1  0.097988  0  0.107756  0.121026  0  1.00878  0
H  H49  1  0.17009044  0.83632823  0.70825157  1  0.099331  0  0.108027  0.126328  0  0.99759  0
H  H50  1  0.56400459  0.34569447  0.58954628  1  0.530376  0  0.334462  0.29859  0  0.945687  0
H  H51  1  0.75897083  0.31259351  0.66457849  1  0.191944  0  0.150482  0.123261  0  0.956627  0
H  H52  1  0.38986449  0.00302422  0.56227109  1  0.13582  0  0.123107  0.146807  0  0.9783  0
H  H53  1  0.45119959  0.48687336  0.54320707  1  0.095806  0  0.111531  0.12634  0  1.030334  0
H  H54  1  0.04798265  0.11454450  0.70767506  1  0.190021  0  0.141315  0.113955  0  0.988878  0
H  H55  1  0.22080605  0.12240204  0.62955111  1  0.56288  0  0.313326  0.296575  0  0.99248  0
H  H56  1  0.41243638  0.91469794  0.35408127  1  0.098149  0  0.107775  0.12107  0  1.008871  0
H  H57  1  0.67009611  0.66367243  0.29174510  1  0.098973  0  0.10798  0.126236  0  0.997595  0
H  H58  1  0.06401094  0.15431126  0.41045127  1  0.530872  0  0.334436  0.298591  0  0.945753  0
H  H59  1  0.25897629  0.18741059  0.33541871  1  0.191778  0  0.150544  0.123264  0  0.956691  0
H  H60  1  0.88986339  0.49697577  0.43772615  1  0.135868  0  0.123115  0.146817  0  0.97831  0
H  H61  1  0.95120472  0.01313193  0.45679299  1  0.096092  0  0.111609  0.126462  0  1.030327  0
H  H62  1  0.54798553  0.38545269  0.29231969  1  0.194918  0  0.141325  0.113898  0  0.988937  0
H  H63  1  0.72080782  0.37759911  0.37044569  1  0.562768  0  0.313299  0.296528  0  0.992519  0
H  H64  1  0.41243271  0.41469588  0.14592046  1  0.097993  0  0.107745  0.121005  0  1.008919  0
H  H65  1  0.67009374  0.16367091  0.20825194  1  0.099047  0  0.108007  0.126278  0  0.997595  0
H  H66  1  0.06401168  0.65431004  0.08954642  1  0.530869  0  0.334426  0.298521  0  0.945779  0
H  H67  1  0.25897837  0.68741047  0.16457862  1  0.19182  0  0.150562  0.123302  0  0.956644  0
H  H68  1  0.88986524  0.99697457  0.06227208  1  0.135818  0  0.123113  0.146805  0  0.978334  0
H  H69  1  0.95120302  0.51313129  0.04320656  1  0.096075  0  0.111606  0.126495  0  1.030267  0
H  H70  1  0.54798186  0.88545311  0.20767687  1  0.19487  0  0.141302  0.113891  0  0.988901  0
H  H71  1  0.72080632  0.87759674  0.12955292  1  0.562737  0  0.313299  0.296527  0  0.992572  0
H  H72  1  0.91243506  0.08530758  0.85407558  1  0.097909  0  0.107729  0.121013  0  1.008848  0
H  H73  1  0.17008359  0.33632780  0.79175045  1  0.099721  0  0.108042  0.126311  0  0.99758  0
H  H74  1  0.56401072  0.84569311  0.91045303  1  0.530442  0  0.334461  0.298633  0  0.945599  0
H  H75  1  0.75897913  0.81259161  0.83542128  1  0.191866  0  0.150522  0.12324  0  0.956719  0
H  H76  1  0.38986368  0.50302624  0.93772745  1  0.135826  0  0.123131  0.146805  0  0.97832  0
H  H77  1  0.45120700  0.98687254  0.95679098  1  0.095921  0  0.111555  0.126415  0  1.030393  0
H  H78  1  0.04796983  0.61454489  0.79232578  1  0.189926  0  0.141295  0.113886  0  0.988854  0
H  H79  1  0.22079924  0.62240239  0.87044857  1  0.562807  0  0.313329  0.296462  0  0.992544  0
C  C80  1  0.04976025  0.85552400  0.95263501  1  1.541046  0  0.211367  0.612392  0  4.166202  0
C  C81  1  0.13490811  0.88954050  0.90639447  1  0.057599  0  -0.012474  -0.052041  0  3.94162  0
C  C82  1  0.89488800  0.58136460  0.94254743  1  -0.010611  0  -0.002296  -0.038444  0  3.890616  0
C  C83  1  0.99020678  0.62690720  0.98172510  1  1.580173  0  0.241296  0.656499  0  4.143876  0
C  C84  1  0.69265465  0.68566117  0.92422279  1  1.59502  0  0.232061  0.654656  0  4.160087  0
C  C85  1  0.76133417  0.60879060  0.91448031  1  0.00228  0  -0.007244  -0.049634  0  3.905108  0
C  C86  1  0.68675527  0.56309297  0.87651274  1  0.073739  0  -0.081579  -0.163814  0  3.955521  0
C  C87  1  0.28331497  0.87242393  0.82345019  1  -0.001177  0  -0.098609  -0.207993  0  4.011907  0
C  C88  1  0.31387567  0.94994660  0.82417953  1  0.367111  0  0.075832  0.122522  0  4.106171  0
C  C89  1  0.65501557  0.74125732  0.14019677  1  1.609019  0  0.218198  0.630208  0  4.175984  0
C  C90  1  0.76324020  0.36888502  0.85107435  1  1.014437  0  0.177248  0.198718  0  3.883964  0
C  C91  1  0.15782381  0.96802919  0.90566111  1  -0.025015  0  -0.073334  -0.156173  0  3.908649  0
C  C92  1  0.94529266  0.50678542  0.93599258  1  0.045302  0  -0.082331  -0.172831  0  3.943026  0
C  C93  1  0.19294741  0.84225851  0.86470842  1  -0.038124  0  -0.007947  -0.049068  0  3.947053  0
C  C94  1  0.73875693  0.48904236  0.86976462  1  0.328752  0  0.083634  0.122811  0  4.068637  0
C  C95  1  0.86093553  0.46018739  0.90173066  1  0.377957  0  0.108121  0.174311  0  3.981087  0
C  C96  1  0.24733037  0.99768867  0.86386038  1  0.333396  0  0.090775  0.124792  0  4.036759  0
C  C97  1  0.39390265  0.06483231  0.80844643  1  1.036623  0  0.164261  0.184901  0  3.91162  0
C  C98  1  0.54976510  0.64447401  0.04736524  1  1.540943  0  0.211366  0.612462  0  4.166142  0
C  C99  1  0.63491143  0.61045835  0.09360620  1  0.057385  0  -0.012505  -0.052101  0  3.941642  0
C  C100  1  0.39489135  0.91863226  0.05745210  1  -0.010598  0  -0.002281  -0.038389  0  3.890549  0
C  C101  1  0.49020825  0.87309110  0.01827445  1  1.57988  0  0.241231  0.656358  0  4.143749  0
C  C102  1  0.19266128  0.81433560  0.07577790  1  1.595069  0  0.232107  0.654821  0  4.160003  0
C  C103  1  0.26133954  0.89120526  0.08552159  1  0.002107  0  -0.007192  -0.049627  0  3.904905  0
C  C104  1  0.18675902  0.93690491  0.12348795  1  0.073862  0  -0.081612  -0.163841  0  3.955427  0
C  C105  1  0.78331988  0.62757427  0.17654931  1  -0.001349  0  -0.098581  -0.208008  0  4.011785  0
C  C106  1  0.81387835  0.55005056  0.17582038  1  0.367123  0  0.075873  0.122623  0  4.106213  0
C  C107  1  0.15500684  0.75874046  0.85980390  1  1.609028  0  0.218086  0.630092  0  4.176156  0
C  C108  1  0.26324330  0.13111173  0.14892566  1  1.014558  0  0.177231  0.198655  0  3.884204  0
C  C109  1  0.65782021  0.53196860  0.09433997  1  -0.024973  0  -0.073328  -0.15613  0  3.908589  0
C  C110  1  0.44529705  0.99321217  0.06400657  1  0.045296  0  -0.082291  -0.172805  0  3.943123  0
C  C111  1  0.69295731  0.65773940  0.13528986  1  -0.038085  0  -0.007999  -0.049059  0  3.947131  0
C  C112  1  0.23876301  0.01095545  0.13023699  1  0.328768  0  0.083542  0.122724  0  4.068708  0
C  C113  1  0.36093960  0.03980968  0.09826898  1  0.377968  0  0.108158  0.174477  0  3.981002  0
C  C114  1  0.74732879  0.50230884  0.13614032  1  0.333377  0  0.090732  0.124717  0  4.03686  0
C  C115  1  0.89390131  0.43516486  0.19155282  1  1.036608  0  0.164209  0.184956  0  3.911632  0
C  C116  1  0.54976095  0.14447068  0.45263659  1  1.540962  0  0.211343  0.612384  0  4.166293  0
C  C117  1  0.63490834  0.11045787  0.40639485  1  0.057655  0  -0.01251  -0.05206  0  3.941515  0
C  C118  1  0.39488250  0.41863516  0.44254802  1  -0.010927  0  -0.002325  -0.038521  0  3.89057  0
C  C119  1  0.49019949  0.37309172  0.48172610  1  1.580279  0  0.241292  0.656598  0  4.143479  0
C  C120  1  0.19265239  0.31433738  0.42422380  1  1.595074  0  0.231968  0.654607  0  4.159959  0
C  C121  1  0.26132947  0.39120761  0.41447970  1  0.002534  0  -0.007197  -0.049574  0  3.905098  0
C  C122  1  0.18675236  0.43690501  0.37651252  1  0.074292  0  -0.081567  -0.163792  0  3.955717  0
C  C123  1  0.78331894  0.12757553  0.32345137  1  -0.0014  0  -0.098606  -0.20797  0  4.011722  0
C  C124  1  0.81387741  0.05005182  0.32417993  1  0.367246  0  0.075851  0.122596  0  4.106185  0
C  C125  1  0.15501601  0.25873954  0.64019653  1  1.608988  0  0.218128  0.630081  0  4.176183  0
C  C126  1  0.26323529  0.63111435  0.35107529  1  1.014797  0  0.177299  0.198775  0  3.88399  0
C  C127  1  0.65782296  0.03196813  0.40565991  1  -0.025029  0  -0.073328  -0.156212  0  3.908703  0
C  C128  1  0.44528935  0.49321451  0.43599355  1  0.045449  0  -0.082291  -0.172791  0  3.94311  0
C  C129  1  0.69295296  0.15773950  0.36471040  1  -0.038345  0  -0.007958  -0.049028  0  3.94697  0
C  C130  1  0.23875504  0.51095637  0.36976318  1  0.328038  0  0.0836  0.122734  0  4.068694  0
C  C131  1  0.36093053  0.53981115  0.40173082  1  0.378063  0  0.108164  0.1744  0  3.980946  0
C  C132  1  0.74733145  0.00230839  0.36385959  1  0.333373  0  0.090728  0.12474  0  4.036829  0
C  C133  1  0.89390372  0.93516637  0.30844662  1  1.036595  0  0.164191  0.184801  0  3.911581  0
C  C134  1  0.04976454  0.35552312  0.54736658  1  1.54095  0  0.211364  0.612509  0  4.166115  0
C  C135  1  0.13491016  0.38953903  0.59360753  1  0.057361  0  -0.012528  -0.052226  0  3.941815  0
C  C136  1  0.89488529  0.08136372  0.55745042  1  -0.010591  0  -0.002287  -0.038448  0  3.890683  0
C  C137  1  0.99020165  0.12690747  0.51827397  1  1.580168  0  0.24134  0.656634  0  4.143417  0
C  C138  1  0.69265666  0.18566197  0.57577660  1  1.595059  0  0.232109  0.65478  0  4.159968  0
C  C139  1  0.76133153  0.10879083  0.58551791  1  0.002551  0  -0.007185  -0.049605  0  3.905165  0
C  C140  1  0.68674688  0.06309319  0.62348427  1  0.073707  0  -0.081628  -0.16393  0  3.95577  0
C  C141  1  0.28331487  0.37242525  0.67655265  1  -0.001588  0  -0.098538  -0.207846  0  4.01163  0
C  C142  1  0.31387440  0.44994792  0.67582331  1  0.367074  0  0.075794  0.122403  0  4.106447  0
C  C143  1  0.65500887  0.24125743  0.35980586  1  1.608972  0  0.218114  0.630194  0  4.176027  0
C  C144  1  0.76323757  0.86888548  0.64892501  1  1.014682  0  0.177227  0.198623  0  3.883941  0
C  C145  1  0.15782119  0.46802828  0.59434208  1  -0.02491  0  -0.073328  -0.156112  0  3.908591  0
C  C146  1  0.94528997  0.00678509  0.56400731  1  0.04522  0  -0.08233  -0.17285  0  3.943105  0
C  C147  1  0.19295539  0.34225872  0.63529200  1  -0.03785  0  -0.007949  -0.04902  0  3.946972  0
C  C148  1  0.73875192  0.98904225  0.63023471  1  0.328357  0  0.08368  0.122903  0  4.068596  0
C  C149  1  0.86092928  0.96018787  0.59826790  1  0.378025  0  0.108069  0.174238  0  3.981084  0
C  C150  1  0.24732784  0.49768888  0.63614323  1  0.333434  0  0.090794  0.124865  0  4.036845  0
C  C151  1  0.39389545  0.56483388  0.69155572  1  1.031595  0  0.164206  0.184861  0  3.911682  0
C  C152  1  0.45023599  0.85552474  0.54736417  1  1.540961  0  0.211376  0.612412  0  4.166112  0
C  C153  1  0.36509211  0.88954094  0.59360550  1  0.057662  0  -0.012491  -0.052125  0  3.941661  0
C  C154  1  0.60510510  0.58136705  0.55745314  1  -0.010637  0  -0.002252  -0.038362  0  3.890505  0
C  C155  1  0.50978811  0.62690936  0.51827465  1  1.579967  0  0.241337  0.656594  0  4.143957  0
C  C156  1  0.80733638  0.68566483  0.57577896  1  1.595184  0  0.232084  0.654791  0  4.160019  0
C  C157  1  0.73865579  0.60879460  0.58552186  1  0.002179  0  -0.007241  -0.049741  0  3.90497  0
C  C158  1  0.81323874  0.56309606  0.62348904  1  0.073985  0  -0.081649  -0.163946  0  3.955442  0
C  C159  1  0.21668268  0.87242442  0.67654938  1  -0.000953  0  -0.098647  -0.208144  0  4.0119  0
C  C160  1  0.18612421  0.94994699  0.67581962  1  0.367066  0  0.075845  0.122627  0  4.106161  0
C  C161  1  0.84498794  0.74125758  0.35980302  1  1.60896  0  0.21812  0.630168  0  4.176047  0
C  C162  1  0.73675698  0.36888785  0.64892426  1  1.014593  0  0.177294  0.198742  0  3.884157  0
C  C163  1  0.34217749  0.96802956  0.59433924  1  -0.02497  0  -0.073314  -0.156121  0  3.908561  0
C  C164  1  0.55470175  0.50678713  0.56400761  1  0.045279  0  -0.082299  -0.172728  0  3.942978  0
C  C165  1  0.30704865  0.84225875  0.63529036  1  -0.038321  0  -0.007922  -0.048888  0  3.946943  0
C  C166  1  0.76123606  0.48904528  0.63023798  1  0.32861  0  0.083552  0.122785  0  4.068637  0
C  C167  1  0.63905940  0.46019050  0.59826954  1  0.377957  0  0.10819  0.174478  0  3.980821  0
C  C168  1  0.25267134  0.99768873  0.63614036  1  0.333359  0  0.090756  0.124765  0  4.036815  0
C  C169  1  0.10610257  0.06483187  0.69155373  1  1.036497  0  0.164244  0.184868  0  3.911776  0
C  C170  1  0.95023241  0.64447400  0.45263538  1  1.54094  0  0.21136  0.612489  0  4.166125  0
C  C171  1  0.86509379  0.61045752  0.40639282  1  0.057656  0  -0.012512  -0.052139  0  3.941753  0
C  C172  1  0.10511516  0.91864132  0.44255274  1  -0.010955  0  -0.002341  -0.038325  0  3.890587  0
C  C173  1  0.00979646  0.87309644  0.48172799  1  1.580174  0  0.241326  0.656506  0  4.143558  0
C  C174  1  0.30734379  0.81434193  0.42422616  1  1.595014  0  0.232102  0.654816  0  4.159889  0
C  C175  1  0.23866892  0.89121477  0.41448445  1  0.002003  0  -0.007147  -0.049644  0  3.905217  0
C  C176  1  0.31325007  0.93691015  0.37651729  1  0.074728  0  -0.081686  -0.16402  0  3.955851  0
C  C177  1  0.71668908  0.62757526  0.32344730  1  -0.001109  0  -0.098547  -0.207731  0  4.011703  0
C  C178  1  0.68612838  0.55005202  0.32417665  1  0.367139  0  0.075719  0.122196  0  4.106494  0
C  C179  1  0.34498924  0.75873969  0.64019610  1  1.608971  0  0.218108  0.630106  0  4.176166  0
C  C180  1  0.23676522  0.13111730  0.35107454  1  1.014281  0  0.177228  0.198693  0  3.884058  0
C  C181  1  0.84217926  0.53196883  0.40565787  1  -0.024972  0  -0.073358  -0.156169  0  3.908529  0
C  C182  1  0.05470931  0.99321938  0.43599464  1  0.044613  0  -0.082393  -0.172953  0  3.94324  0
C  C183  1  0.80704973  0.65774009  0.36470835  1  -0.038107  0  -0.007975  -0.049165  0  3.947107  0
C  C184  1  0.26124619  0.01096109  0.36976605  1  0.328212  0  0.083677  0.122878  0  4.068563  0
C  C185  1  0.13906766  0.03981717  0.40173285  1  0.378433  0  0.108049  0.174263  0  3.981139  0
C  C186  1  0.75267494  0.50231050  0.36385632  1  0.333252  0  0.090818  0.124951  0  4.036743  0
C  C187  1  0.60611084  0.43516494  0.30844183  1  1.03154  0  0.164181  0.184877  0  3.911903  0
C  C188  1  0.95023903  0.14447481  0.04736414  1  1.540971  0  0.21146  0.612574  0  4.166045  0
C  C189  1  0.86509584  0.11045888  0.09360629  1  0.057676  0  -0.012463  -0.05204  0  3.941589  0
C  C190  1  0.10511128  0.41863817  0.05745052  1  -0.010568  0  -0.002247  -0.038216  0  3.890487  0
C  C191  1  0.00979600  0.37309444  0.01827204  1  1.580283  0  0.241285  0.65649  0  4.143683  0
C  C192  1  0.30733996  0.31434047  0.07577717  1  1.594967  0  0.232116  0.654838  0  4.160105  0
C  C193  1  0.23866277  0.39121161  0.08551804  1  0.00203  0  -0.007248  -0.049874  0  3.905213  0
C  C194  1  0.31324751  0.43690867  0.12348601  1  0.074012  0  -0.081613  -0.163829  0  3.955504  0
C  C195  1  0.71669015  0.12757489  0.17655016  1  -0.00106  0  -0.098604  -0.207967  0  4.01177  0
C  C196  1  0.68612945  0.05005108  0.17582122  1  0.367004  0  0.075834  0.122544  0  4.106288  0
C  C197  1  0.34498838  0.25874150  0.85980478  1  1.609025  0  0.218139  0.630191  0  4.176051  0
C  C198  1  0.23676375  0.63111605  0.14892440  1  1.014427  0  0.177199  0.198575  0  3.884053  0
C  C199  1  0.84218131  0.03196963  0.09434005  1  -0.025013  0  -0.073366  -0.156213  0  3.90864  0
C  C200  1  0.05470546  0.49321736  0.06400537  1  0.044636  0  -0.082436  -0.172993  0  3.943151  0
C  C201  1  0.80705070  0.15774030  0.13529033  1  -0.038151  0  -0.007932  -0.049026  0  3.94703  0
C  C202  1  0.26124235  0.51095929  0.13023493  1  0.328742  0  0.083664  0.122846  0  4.068454  0
C  C203  1  0.13906375  0.53981482  0.09826769  1  0.378302  0  0.108068  0.174279  0  3.981016  0
C  C204  1  0.75267592  0.00230958  0.13614158  1  0.333406  0  0.090815  0.124836  0  4.036922  0
C  C205  1  0.60610597  0.93516537  0.19155593  1  1.031538  0  0.164228  0.184934  0  3.911798  0
C  C206  1  0.45023885  0.35552820  0.95263632  1  1.540972  0  0.211357  0.612439  0  4.166121  0
C  C207  1  0.36509253  0.38954160  0.90639455  1  0.057643  0  -0.012505  -0.052104  0  3.94158  0
C  C208  1  0.60511611  0.08136656  0.94254625  1  -0.011106  0  -0.002305  -0.038447  0  3.890415  0
C  C209  1  0.50979687  0.12690772  0.98172510  1  1.580185  0  0.241342  0.6566  0  4.143528  0
C  C210  1  0.80734268  0.18566435  0.92422125  1  1.595044  0  0.232017  0.654666  0  4.16011  0
C  C211  1  0.73866908  0.10879355  0.91447836  1  0.00238  0  -0.007221  -0.049648  0  3.905147  0
C  C212  1  0.81324493  0.06309503  0.87651121  1  0.074628  0  -0.08159  -0.163864  0  3.955625  0
C  C213  1  0.21667706  0.37242511  0.82345264  1  -0.001924  0  -0.09864  -0.207995  0  4.011803  0
C  C214  1  0.18611626  0.44994825  0.82418117  1  0.367296  0  0.07584  0.122506  0  4.106369  0
C  C215  1  0.84499010  0.24125892  0.14019485  1  1.608928  0  0.21805  0.630111  0  4.176125  0
C  C216  1  0.73676415  0.86888595  0.85107429  1  1.014656  0  0.177271  0.198754  0  3.884109  0
C  C217  1  0.34217907  0.46803078  0.90565999  1  -0.024964  0  -0.073298  -0.156088  0  3.908525  0
C  C218  1  0.55470924  0.00678608  0.93599098  1  0.045274  0  -0.082307  -0.172833  0  3.943112  0
C  C219  1  0.30704547  0.34225998  0.86471090  1  -0.037853  0  -0.007984  -0.04905  0  3.946887  0
C  C220  1  0.76124094  0.98904337  0.86976096  1  0.327966  0  0.083642  0.122838  0  4.068627  0
C  C221  1  0.63906669  0.96018857  0.90172897  1  0.378044  0  0.108117  0.174361  0  3.981055  0
C  C222  1  0.25266582  0.49768997  0.86386004  1  0.333324  0  0.090714  0.124671  0  4.03681  0
C  C223  1  0.10609329  0.56483282  0.80844713  1  1.036452  0  0.164182  0.184837  0  3.911551  0
N  N224  1  0.87148309  0.38425333  0.88915861  1  -1.269105  0  -0.359744  -0.241895  0  3.597442  0
N  N225  1  0.68340846  0.43079547  0.83730261  1  -1.191052  0  -0.386075  -0.314545  0  3.679294  0
N  N226  1  0.40602141  0.99361715  0.79048218  1  -1.201107  0  -0.394049  -0.309803  0  3.658332  0
N  N227  1  0.29988457  0.06986432  0.85159597  1  -1.296974  0  -0.362256  -0.248702  0  3.60179  0
N  N228  1  0.37148356  0.11574434  0.11084103  1  -1.26889  0  -0.359766  -0.241954  0  3.597673  0
N  N229  1  0.18341191  0.06920215  0.16269859  1  -1.190722  0  -0.38598  -0.314415  0  3.679385  0
N  N230  1  0.90602122  0.50637975  0.20951736  1  -1.200929  0  -0.394074  -0.309967  0  3.658559  0
N  N231  1  0.79987956  0.43013369  0.14840365  1  -1.297169  0  -0.362188  -0.248638  0  3.601896  0
N  N232  1  0.37148031  0.61574582  0.38915916  1  -1.269035  0  -0.359851  -0.242004  0  3.597379  0
N  N233  1  0.18340503  0.56920479  0.33730116  1  -1.190765  0  -0.386079  -0.314512  0  3.679457  0
N  N234  1  0.90602254  0.00638159  0.29048298  1  -1.201122  0  -0.394071  -0.309977  0  3.658533  0
N  N235  1  0.79988439  0.93013348  0.35159617  1  -1.297074  0  -0.362191  -0.24849  0  3.601676  0
N  N236  1  0.87148154  0.88425436  0.61084077  1  -1.269036  0  -0.359745  -0.241826  0  3.597451  0
N  N237  1  0.68340236  0.93079535  0.66269672  1  -1.190869  0  -0.386081  -0.314547  0  3.679306  0
N  N238  1  0.40601554  0.49361845  0.70952027  1  -1.201484  0  -0.394068  -0.309768  0  3.658491  0
N  N239  1  0.29987843  0.56986364  0.64840534  1  -1.296978  0  -0.362211  -0.248772  0  3.601915  0
N  N240  1  0.62851430  0.38425526  0.61084000  1  -1.268916  0  -0.359774  -0.242007  0  3.597594  0
N  N241  1  0.81658724  0.43079799  0.66269759  1  -1.190673  0  -0.38601  -0.314463  0  3.679261  0
N  N242  1  0.09398258  0.99361722  0.70951697  1  -1.201247  0  -0.394121  -0.30992  0  3.658541  0
N  N243  1  0.20011956  0.06986420  0.64840338  1  -1.297094  0  -0.362226  -0.248759  0  3.601795  0
N  N244  1  0.12851773  0.11574954  0.38915838  1  -1.269161  0  -0.359717  -0.241913  0  3.597538  0
N  N245  1  0.31659809  0.06920686  0.33730324  1  -1.190913  0  -0.386059  -0.314492  0  3.679304  0
N  N246  1  0.59398841  0.50638093  0.29047848  1  -1.201552  0  -0.393938  -0.309628  0  3.658353  0
N  N247  1  0.70012552  0.43013574  0.35159301  1  -1.296971  0  -0.362204  -0.248736  0  3.602005  0
N  N248  1  0.12851852  0.61574832  0.11084014  1  -1.269148  0  -0.359674  -0.241758  0  3.597569  0
N  N249  1  0.31659433  0.56920561  0.16269654  1  -1.190855  0  -0.386049  -0.314426  0  3.679155  0
N  N250  1  0.59398722  0.00638054  0.20951938  1  -1.201276  0  -0.39408  -0.309888  0  3.658525  0
N  N251  1  0.70012289  0.93013393  0.14840478  1  -1.296925  0  -0.362232  -0.248753  0  3.601926  0
N  N252  1  0.62851922  0.88425447  0.88915812  1  -1.269009  0  -0.359821  -0.242029  0  3.597385  0
N  N253  1  0.81659671  0.93079553  0.83730057  1  -1.190635  0  -0.386037  -0.314491  0  3.679564  0
N  N254  1  0.09397339  0.49361680  0.79048339  1  -1.201001  0  -0.394001  -0.309807  0  3.658453  0
N  N255  1  0.20011271  0.56986456  0.85159671  1  -1.297027  0  -0.362208  -0.248504  0  3.601632  0
O  O256  1  0.92310299  0.65913196  0.02155838  1  -1.208018  0  -0.402871  -0.689536  0  2.333503  0
O  O257  1  0.08927810  0.78913309  0.96922308  1  -1.202795  0  -0.39949  -0.727179  0  2.42103  0
O  O258  1  0.93834778  0.89084623  0.97521791  1  -1.167993  0  -0.367856  -0.601549  0  2.153829  0
O  O259  1  0.13669028  0.62583680  0.97509354  1  -1.158833  0  -0.382214  -0.632519  0  2.290695  0
O  O260  1  0.78029692  0.73991837  0.93879162  1  -1.204999  0  -0.399959  -0.667477  0  2.323466  0
O  O261  1  0.74569284  0.78688085  0.11377962  1  -1.198177  0  -0.408936  -0.670606  0  2.334116  0
O  O262  1  0.54983263  0.76086855  0.17168444  1  -1.166776  0  -0.328714  -0.542879  0  2.024374  0
O  O263  1  0.54561797  0.69235351  0.91714384  1  -1.21532  0  -0.404576  -0.67701  0  2.285231  0
O  O264  1  0.42310384  0.84086726  0.97844075  1  -1.207908  0  -0.402828  -0.689483  0  2.333376  0
O  O265  1  0.58928266  0.71086391  0.03077557  1  -1.202751  0  -0.399442  -0.727135  0  2.420958  0
O  O266  1  0.43835030  0.60915190  0.02478244  1  -1.16794  0  -0.367864  -0.601602  0  2.153788  0
O  O267  1  0.63669007  0.87416092  0.02490553  1  -1.158855  0  -0.382181  -0.632488  0  2.290692  0
O  O268  1  0.28030394  0.76007981  0.06120748  1  -1.205178  0  -0.399916  -0.667447  0  2.32334  0
O  O269  1  0.24568822  0.71311666  0.88621947  1  -1.198214  0  -0.408886  -0.670516  0  2.334234  0
O  O270  1  0.04982240  0.73912889  0.82831661  1  -1.166921  0  -0.328687  -0.542853  0  2.024507  0
O  O271  1  0.04562569  0.80763996  0.08285480  1  -1.215236  0  -0.404684  -0.6772  0  2.285301  0
O  O272  1  0.42309638  0.34086752  0.52155933  1  -1.208208  0  -0.40284  -0.689508  0  2.333269  0
O  O273  1  0.58927855  0.21086284  0.46922344  1  -1.202502  0  -0.399452  -0.727129  0  2.420981  0
O  O274  1  0.43834620  0.10914800  0.47521817  1  -1.168122  0  -0.367822  -0.601531  0  2.153892  0
O  O275  1  0.63668246  0.37416098  0.47509427  1  -1.158788  0  -0.382202  -0.632604  0  2.290643  0
O  O276  1  0.28029742  0.26008158  0.43879264  1  -1.205014  0  -0.399934  -0.667406  0  2.323378  0
O  O277  1  0.24569499  0.21311631  0.61378019  1  -1.198283  0  -0.408973  -0.670579  0  2.3343  0
O  O278  1  0.04983163  0.23912682  0.67168340  1  -1.166804  0  -0.328654  -0.542806  0  2.02447  0
O  O279  1  0.04561562  0.30764174  0.41714566  1  -1.215402  0  -0.404506  -0.676992  0  2.285132  0
O  O280  1  0.92309773  0.15913145  0.47844033  1  -1.208183  0  -0.402825  -0.689494  0  2.333208  0
O  O281  1  0.08927767  0.28913392  0.53077653  1  -1.20274  0  -0.399461  -0.72718  0  2.42112  0
O  O282  1  0.93834967  0.39084536  0.52478310  1  -1.167866  0  -0.36786  -0.601594  0  2.153787  0
O  O283  1  0.13668634  0.12583876  0.52490652  1  -1.158754  0  -0.382271  -0.632635  0  2.290582  0
O  O284  1  0.78030590  0.23991692  0.56120777  1  -1.205057  0  -0.399967  -0.667471  0  2.323445  0
O  O285  1  0.74569088  0.28688038  0.38622102  1  -1.198109  0  -0.408908  -0.670589  0  2.334079  0
O  O286  1  0.54982820  0.26086867  0.32831696  1  -1.166809  0  -0.328689  -0.542899  0  2.024461  0
O  O287  1  0.54562116  0.19235884  0.58285470  1  -1.215307  0  -0.404625  -0.677086  0  2.285158  0
O  O288  1  0.57689121  0.65913243  0.47844103  1  -1.20777  0  -0.402943  -0.689639  0  2.333616  0
O  O289  1  0.41072190  0.78913315  0.53077731  1  -1.202814  0  -0.399483  -0.727171  0  2.421083  0
O  O290  1  0.56164841  0.89084855  0.52478099  1  -1.167963  0  -0.367868  -0.601579  0  2.153714  0
O  O291  1  0.36330514  0.62583953  0.52490729  1  -1.158963  0  -0.382191  -0.632562  0  2.290799  0
O  O292  1  0.71969602  0.73992062  0.56120771  1  -1.205159  0  -0.399873  -0.667382  0  2.323399  0
O  O293  1  0.75430897  0.78688024  0.38621936  1  -1.198111  0  -0.408907  -0.670584  0  2.334092  0
O  O294  1  0.95016881  0.76087199  0.32831575  1  -1.166829  0  -0.328677  -0.542849  0  2.024459  0
O  O295  1  0.95437315  0.69235991  0.58285550  1  -1.215338  0  -0.404688  -0.677183  0  2.285293  0
O  O296  1  0.07689921  0.84087076  0.52156123  1  -1.208044  0  -0.402886  -0.689532  0  2.333271  0
O  O297  1  0.91071460  0.71086490  0.46922383  1  -1.202782  0  -0.399449  -0.727166  0  2.420986  0
O  O298  1  0.06164844  0.60915232  0.47521806  1  -1.167898  0  -0.367844  -0.601584  0  2.153728  0
O  O299  1  0.86331528  0.87416175  0.47509464  1  -1.158836  0  -0.38215  -0.632471  0  2.290635  0
O  O300  1  0.21969805  0.76008586  0.43879459  1  -1.204921  0  -0.400013  -0.667589  0  2.323361  0
O  O301  1  0.25430607  0.71311786  0.61378014  1  -1.198223  0  -0.408936  -0.670588  0  2.334289  0
O  O302  1  0.45017575  0.73912901  0.67168259  1  -1.166866  0  -0.328643  -0.542835  0  2.024489  0
O  O303  1  0.45438045  0.80764620  0.41714645  1  -1.215267  0  -0.404588  -0.677051  0  2.285267  0
O  O304  1  0.07690096  0.34087025  0.97843956  1  -1.208144  0  -0.402888  -0.689596  0  2.333423  0
O  O305  1  0.91072118  0.21086572  0.03077687  1  -1.202756  0  -0.399482  -0.727235  0  2.421083  0
O  O306  1  0.06165501  0.10915258  0.02478164  1  -1.168058  0  -0.367939  -0.601667  0  2.153783  0
O  O307  1  0.86331250  0.37416201  0.02490401  1  -1.158866  0  -0.382161  -0.632484  0  2.290629  0
O  O308  1  0.21969419  0.26008440  0.06120833  1  -1.205029  0  -0.399952  -0.667464  0  2.323432  0
O  O309  1  0.25430878  0.21311796  0.88622033  1  -1.198198  0  -0.408903  -0.67052  0  2.334191  0
O  O310  1  0.45016898  0.23913139  0.82831592  1  -1.166811  0  -0.32869  -0.542905  0  2.024455  0
O  O311  1  0.45437547  0.30764417  0.08285491  1  -1.215164  0  -0.404668  -0.677144  0  2.285349  0
O  O312  1  0.57690362  0.15913099  0.02155880  1  -1.208147  0  -0.402829  -0.689504  0  2.333333  0
O  O313  1  0.41072012  0.28913717  0.96922478  1  -1.202568  0  -0.399455  -0.727192  0  2.42098  0
O  O314  1  0.56165599  0.39085031  0.97521832  1  -1.168099  0  -0.367866  -0.601593  0  2.153847  0
O  O315  1  0.36331389  0.12583902  0.97509242  1  -1.158733  0  -0.382268  -0.632643  0  2.290628  0
O  O316  1  0.71969885  0.23991900  0.93879167  1  -1.205065  0  -0.399931  -0.667426  0  2.323487  0
O  O317  1  0.75430522  0.28687989  0.11377928  1  -1.198223  0  -0.408895  -0.670521  0  2.334132  0
O  O318  1  0.95017221  0.26087219  0.17168214  1  -1.166785  0  -0.328636  -0.542833  0  2.024509  0
O  O319  1  0.95437943  0.19236056  0.91714395  1  -1.215348  0  -0.404578  -0.677055  0  2.285159  0
