# generated using pymatgen
data_Zn5H38C46S2(N3O5)4
_symmetry_space_group_name_H-M   'P 1'
_cell_length_a   10.55851371
_cell_length_b   12.50127731
_cell_length_c   14.56857416
_cell_angle_alpha   82.60156619
_cell_angle_beta   68.95349627
_cell_angle_gamma   64.77601948
_symmetry_Int_Tables_number   1
_chemical_formula_structural   Zn5H38C46S2(N3O5)4
_chemical_formula_sum   'Zn5 H38 C46 S2 N12 O20'
_cell_volume   1622.89676717
_cell_formula_units_Z   1
loop_
 _symmetry_equiv_pos_site_id
 _symmetry_equiv_pos_as_xyz
  1  'x, y, z'
loop_
 _atom_site_type_symbol
 _atom_site_label
 _atom_site_symmetry_multiplicity
 _atom_site_fract_x
 _atom_site_fract_y
 _atom_site_fract_z
 _atom_site_occupancy
 _atom_site_hle17_bader_spin_density
 _atom_site_hle17_ddec_charge
 _atom_site_hle17_ddec_spin_density
 _atom_site_hle17_ddec_sum_bond_order
 _atom_site_hle17_magmom
 _atom_site_hse06_10hf_bader_spin_density
 _atom_site_hse06_10hf_ddec_charge
 _atom_site_hse06_10hf_ddec_spin_density
 _atom_site_hse06_10hf_ddec_sum_bond_order
 _atom_site_hse06_10hf_magmom
 _atom_site_hse06_bader_spin_density
 _atom_site_hse06_ddec_charge
 _atom_site_hse06_ddec_spin_density
 _atom_site_hse06_ddec_sum_bond_order
 _atom_site_hse06_magmom
 _atom_site_pbe_bader_spin_density
 _atom_site_pbe_cm5_charge
 _atom_site_pbe_ddec_charge
 _atom_site_pbe_ddec_spin_density
 _atom_site_pbe_ddec_sum_bond_order
 _atom_site_pbe_magmom
Zn  Zn0  1  0.75442326  0.55894525  0.04411341  1  0  1.104387  0  1.875211  0  0  0.925937  0  2.364731  0  0  0.970825  0  2.303934  0  0  0.663935  0.894724  0  2.406243  0
Zn  Zn1  1  0.24557331  0.44105453  0.95588699  1  0  1.104429  0  1.875104  0  0  0.926006  0  2.364567  0  0  0.97089  0  2.303775  0  0  0.663964  0.894803  0  2.406083  0
Zn  Zn2  1  0.78428102  0.79702304  0.90755844  1  0  1.11019  0  1.7732  0  0  0.930636  0  2.244034  0  0  0.977439  0  2.185306  0  0  0.676657  0.897142  0  2.285409  0
Zn  Zn3  1  0.21571702  0.20297585  0.09244166  1  0  1.11024  0  1.773209  0  0  0.930697  0  2.244064  0  0  0.977502  0  2.185333  0  0  0.676695  0.897213  0  2.285444  0
Zn  Zn4  1  0.50000025  0.50000038  0.99999900  1  0  1.098908  0  1.920131  0  0  0.935518  0  2.382602  0  0  0.978845  0  2.32725  0  0  0.663198  0.906368  0  2.419703  0
H  H5  1  0.46524751  0.30240102  0.99346644  1  0  0.407015  0  0.897646  0  0  0.383086  0  0.950657  0  0  0.392383  0  0.937112  0  0  0.274784  0.376341  0  0.960491  0
H  H6  1  0.53475224  0.69760049  0.00653224  1  0  0.40697  0  0.897702  0  0  0.383038  0  0.950719  0  0  0.392335  0  0.937175  0  0  0.274756  0.376291  0  0.960557  0
H  H7  1  0.94858500  0.64228788  0.99525430  1  0  0.410289  0  0.909261  0  0  0.378805  0  0.975986  0  0  0.388855  0  0.96146  0  0  0.273154  0.37181  0  0.985983  0
H  H8  1  0.05141463  0.35771186  0.00474599  1  0  0.410393  0  0.909148  0  0  0.378907  0  0.975868  0  0  0.388957  0  0.961343  0  0  0.273217  0.371911  0  0.985866  0
H  H9  1  0.50240535  0.88461531  0.92737452  1  0  0.438468  0  0.863898  0  0  0.40194  0  0.936072  0  0  0.413455  0  0.919405  0  0  0.296064  0.39375  0  0.947929  0
H  H10  1  0.49759087  0.11538715  0.07262088  1  0  0.438442  0  0.863951  0  0  0.401918  0  0.936122  0  0  0.413433  0  0.919456  0  0  0.296055  0.393729  0  0.947979  0
H  H11  1  0.52413562  0.88766199  0.03570681  1  0  0.453708  0  0.819078  0  0  0.424873  0  0.881625  0  0  0.434933  0  0.866863  0  0  0.312389  0.4176  0  0.892329  0
H  H12  1  0.47585812  0.11234138  0.96428914  1  0  0.453739  0  0.819003  0  0  0.424883  0  0.881616  0  0  0.434946  0  0.86685  0  0  0.31235  0.41761  0  0.892321  0
H  H13  1  0.53440932  0.73651282  0.67432093  1  0  0.131776  0  0.924687  0  0  0.141569  0  0.980433  0  0  0.145293  0  0.978911  0  0  0.1203  0.138966  0  0.98163  0
H  H14  1  0.46559262  0.26349041  0.32567975  1  0  0.131801  0  0.924664  0  0  0.141613  0  0.98039  0  0  0.145324  0  0.978882  0  0  0.120319  0.13901  0  0.981591  0
H  H15  1  0.49483838  0.70317619  0.85343008  1  0  0.102196  0  0.936851  0  0  0.110613  0  0.997574  0  0  0.113132  0  0.99524  0  0  0.123043  0.108627  0  0.999572  0
H  H16  1  0.50515831  0.29682536  0.14656941  1  0  0.102235  0  0.936819  0  0  0.110648  0  0.997548  0  0  0.113168  0  0.995216  0  0  0.123063  0.108663  0  0.999545  0
H  H17  1  0.67218675  0.33939091  0.81320392  1  0  0.093139  0  0.923068  0  0  0.103472  0  0.978648  0  0  0.10588  0  0.976968  0  0  0.122159  0.101666  0  0.979843  0
H  H18  1  0.32781593  0.66060882  0.18679419  1  0  0.093175  0  0.923102  0  0  0.103527  0  0.978659  0  0  0.105934  0  0.976979  0  0  0.122176  0.10172  0  0.979854  0
H  H19  1  0.60222117  0.70327507  0.39563627  1  0  0.136832  0  0.927606  0  0  0.1434  0  0.986362  0  0  0.147735  0  0.983777  0  0  0.12164  0.140228  0  0.988434  0
H  H20  1  0.39776995  0.29673354  0.60436735  1  0  0.13682  0  0.927627  0  0  0.143402  0  0.986378  0  0  0.147736  0  0.983794  0  0  0.121645  0.14023  0  0.988453  0
H  H21  1  0.14405479  0.24452980  0.88690611  1  0  0.098275  0  0.991412  0  0  0.104143  0  1.063941  0  0  0.107905  0  1.06055  0  0  0.10458  0.101436  0  1.066269  0
H  H22  1  0.85594336  0.75547087  0.11309103  1  0  0.098253  0  0.991463  0  0  0.104123  0  1.063987  0  0  0.107885  0  1.060595  0  0  0.104567  0.101415  0  1.066315  0
H  H23  1  0.77842746  0.14628879  0.94345294  1  0  0.118044  0  0.937926  0  0  0.125976  0  1.001558  0  0  0.130889  0  0.996632  0  0  0.109901  0.12236  0  1.005085  0
H  H24  1  0.22157366  0.85371004  0.05654980  1  0  0.118078  0  0.937861  0  0  0.125984  0  1.00152  0  0  0.130909  0  0.996579  0  0  0.109912  0.122366  0  1.005047  0
H  H25  1  0.80010503  0.35469069  0.17926142  1  0  0.107069  0  0.964777  0  0  0.114018  0  1.028541  0  0  0.117043  0  1.025369  0  0  0.122915  0.111679  0  1.030979  0
H  H26  1  0.19989138  0.64531347  0.82074199  1  0  0.106987  0  0.96482  0  0  0.113965  0  1.028542  0  0  0.116987  0  1.025377  0  0  0.122929  0.111625  0  1.030978  0
H  H27  1  0.72034746  0.35711620  0.63003959  1  0  0.122132  0  0.935936  0  0  0.12888  0  0.996127  0  0  0.132847  0  0.994214  0  0  0.114493  0.126067  0  0.997619  0
H  H28  1  0.27965753  0.64288702  0.36995823  1  0  0.122146  0  0.935988  0  0  0.128886  0  0.996184  0  0  0.132855  0  0.994269  0  0  0.114483  0.126073  0  0.997674  0
H  H29  1  0.84805883  0.78174839  0.53811272  1  0  0.133769  0  0.910654  0  0  0.146484  0  0.959081  0  0  0.150001  0  0.958304  0  0  0.127871  0.143913  0  0.959871  0
H  H30  1  0.15195768  0.21823799  0.46188456  1  0  0.133794  0  0.910637  0  0  0.146548  0  0.959007  0  0  0.150065  0  0.958233  0  0  0.127924  0.143977  0  0.959795  0
H  H31  1  0.00609481  0.44509050  0.67395440  1  0  0.12585  0  0.935554  0  0  0.132242  0  0.997139  0  0  0.135921  0  0.995805  0  0  0.117612  0.129691  0  0.998194  0
H  H32  1  0.99391020  0.55489859  0.32605041  1  0  0.125951  0  0.935561  0  0  0.132347  0  0.99713  0  0  0.13601  0  0.995818  0  0  0.117654  0.129797  0  0.998188  0
H  H33  1  0.22807384  0.89386407  0.80860825  1  0  0.113521  0  0.935922  0  0  0.121628  0  0.998903  0  0  0.126165  0  0.994748  0  0  0.109541  0.11838  0  1.00182  0
H  H34  1  0.77192614  0.10613301  0.19139498  1  0  0.113495  0  0.935954  0  0  0.121574  0  0.998969  0  0  0.126118  0  0.994805  0  0  0.109517  0.118335  0  1.001885  0
H  H35  1  0.75519936  0.88039016  0.70363721  1  0  0.097176  0  0.911627  0  0  0.106966  0  0.967736  0  0  0.109448  0  0.96533  0  0  0.130323  0.104883  0  0.969873  0
H  H36  1  0.24480791  0.11960248  0.29636046  1  0  0.097187  0  0.911428  0  0  0.106986  0  0.967547  0  0  0.109464  0  0.965139  0  0  0.130332  0.104902  0  0.969684  0
H  H37  1  0.64481332  0.71972261  0.21501475  1  0  0.097566  0  0.969541  0  0  0.105588  0  1.031728  0  0  0.108402  0  1.02911  0  0  0.119973  0.1033  0  1.033891  0
H  H38  1  0.35518205  0.28028158  0.78498618  1  0  0.097661  0  0.969465  0  0  0.10566  0  1.031681  0  0  0.108479  0  1.029056  0  0  0.11998  0.103347  0  1.033873  0
H  H39  1  0.75438123  0.32531221  0.35875637  1  0  0.129735  0  0.914473  0  0  0.141322  0  0.966713  0  0  0.145254  0  0.965173  0  0  0.121182  0.13851  0  0.96815  0
H  H40  1  0.24561881  0.67469279  0.64124600  1  0  0.129742  0  0.914469  0  0  0.141295  0  0.966751  0  0  0.145226  0  0.965206  0  0  0.121186  0.138482  0  0.968187  0
H  H41  1  0.91328213  0.55744340  0.83330913  1  0  0.091774  0  0.958219  0  0  0.098889  0  1.022698  0  0  0.101916  0  1.019809  0  0  0.118597  0.096468  0  1.024975  0
H  H42  1  0.08671683  0.44255368  0.16669504  1  0  0.091788  0  0.958073  0  0  0.09884  0  1.022615  0  0  0.101903  0  1.019687  0  0  0.11858  0.096423  0  1.024885  0
C  C43  1  0.84026719  0.32638146  0.96827566  1  0  0.666113  0  3.875876  0  0  0.611836  0  4.166689  0  0  0.646459  0  4.15942  0  0  0.218906  0.588743  0  4.170709  0
C  C44  1  0.15972954  0.67362005  0.03172794  1  0  0.666108  0  3.875752  0  0  0.611797  0  4.166608  0  0  0.646419  0  4.159339  0  0  0.218878  0.588708  0  4.170627  0
C  C45  1  0.56571104  0.64732225  0.70251006  1  0  -0.169812  0  3.673165  0  0  -0.191533  0  3.924958  0  0  -0.200143  0  3.947404  0  0  -0.071469  -0.186377  0  3.911189  0
C  C46  1  0.43428816  0.35267837  0.29749162  1  0  -0.169795  0  3.673235  0  0  -0.191547  0  3.924994  0  0  -0.200141  0  3.947442  0  0  -0.071479  -0.186392  0  3.911226  0
C  C47  1  0.54477658  0.62851002  0.80212421  1  0  0.144254  0  3.677448  0  0  0.113237  0  3.933453  0  0  0.120114  0  3.951382  0  0  0.052832  0.108559  0  3.922058  0
C  C48  1  0.45521968  0.37149239  0.19787736  1  0  0.144145  0  3.677521  0  0  0.113113  0  3.933527  0  0  0.119992  0  3.95145  0  0  0.052788  0.108439  0  3.922133  0
C  C49  1  0.94913657  0.20912053  0.91848156  1  0  -0.080357  0  3.765143  0  0  -0.053859  0  4.004418  0  0  -0.065013  0  4.028486  0  0  -0.022751  -0.046978  0  3.988197  0
C  C50  1  0.05086226  0.79087480  0.08152283  1  0  -0.080408  0  3.765165  0  0  -0.053911  0  4.004458  0  0  -0.065068  0  4.028529  0  0  -0.02279  -0.047028  0  3.988232  0
C  C51  1  0.64500680  0.42505664  0.77840934  1  0  0.139608  0  3.698868  0  0  0.113219  0  3.946257  0  0  0.118813  0  3.965764  0  0  0.050501  0.109625  0  3.933207  0
C  C52  1  0.35499588  0.57494309  0.22158809  1  0  0.139491  0  3.699091  0  0  0.113087  0  3.946479  0  0  0.118681  0  3.965987  0  0  0.050442  0.109495  0  3.93343  0
C  C53  1  0.64604567  0.62453462  0.34995319  1  0  -0.168039  0  3.670201  0  0  -0.186351  0  3.91398  0  0  -0.194622  0  3.93569  0  0  -0.070245  -0.18112  0  3.899261  0
C  C54  1  0.35395085  0.37547132  0.65004725  1  0  -0.167925  0  3.670109  0  0  -0.186277  0  3.913928  0  0  -0.194547  0  3.935636  0  0  -0.070246  -0.181047  0  3.899206  0
C  C55  1  0.10219581  0.18055145  0.88165197  1  0  -0.054818  0  3.712121  0  0  -0.094311  0  3.958335  0  0  -0.089714  0  3.976681  0  0  -0.078239  -0.096712  0  3.945655  0
C  C56  1  0.89780877  0.81944652  0.11834377  1  0  -0.054919  0  3.712148  0  0  -0.09441  0  3.95837  0  0  -0.089813  0  3.976717  0  0  -0.078259  -0.096809  0  3.945692  0
C  C57  1  0.89716652  0.12487574  0.91318168  1  0  -0.047833  0  3.667785  0  0  -0.089222  0  3.918076  0  0  -0.08416  0  3.934954  0  0  -0.070973  -0.0918  0  3.906317  0
C  C58  1  0.10283166  0.87512488  0.08682095  1  0  -0.047766  0  3.667461  0  0  -0.089103  0  3.917726  0  0  -0.084053  0  3.934605  0  0  -0.070904  -0.091678  0  3.905962  0
C  C59  1  0.99763082  0.01234149  0.87192562  1  0  -0.064388  0  3.75093  0  0  -0.036426  0  3.984729  0  0  -0.047569  0  4.009524  0  0  -0.016436  -0.029484  0  3.968187  0
C  C60  1  0.00236410  0.98766358  0.12807465  1  0  -0.064332  0  3.750915  0  0  -0.036384  0  3.98472  0  0  -0.047529  0  4.00952  0  0  -0.016415  -0.02944  0  3.968178  0
C  C61  1  0.75499218  0.43005558  0.22904655  1  0  0.142976  0  3.667406  0  0  0.109851  0  3.921715  0  0  0.117726  0  3.939164  0  0  0.053863  0.10461  0  3.910988  0
C  C62  1  0.24500173  0.56994949  0.77095603  1  0  0.142994  0  3.667474  0  0  0.109849  0  3.921782  0  0  0.117722  0  3.939231  0  0  0.053833  0.104611  0  3.911053  0
C  C63  1  0.20222382  0.06751678  0.84246398  1  0  -0.114822  0  3.728856  0  0  -0.084038  0  3.976691  0  0  -0.093639  0  3.999587  0  0  -0.017973  -0.07802  0  3.961437  0
C  C64  1  0.79777094  0.93248657  0.15753239  1  0  -0.114679  0  3.728648  0  0  -0.083881  0  3.976464  0  0  -0.093482  0  3.999363  0  0  -0.017895  -0.077871  0  3.961212  0
C  C65  1  0.93360758  0.60620377  0.59445656  1  0  0.196096  0  3.794822  0  0  0.194863  0  4.05408  0  0  0.199497  0  4.076561  0  0  0.104111  0.191934  0  4.039337  0
C  C66  1  0.06640576  0.39378086  0.40554380  1  0  0.1964  0  3.794896  0  0  0.195113  0  4.054205  0  0  0.199755  0  4.076668  0  0  0.104201  0.192185  0  4.039463  0
C  C67  1  0.66947298  0.43490175  0.67811903  1  0  -0.178974  0  3.699932  0  0  -0.199925  0  3.950419  0  0  -0.207973  0  3.973094  0  0  -0.07821  -0.194846  0  3.93565  0
C  C68  1  0.33052952  0.56510238  0.32187867  1  0  -0.178955  0  3.699976  0  0  -0.199928  0  3.950456  0  0  -0.207979  0  3.973139  0  0  -0.078195  -0.194843  0  3.935678  0
C  C69  1  0.86410218  0.72989980  0.60226852  1  0  -0.15838  0  3.653611  0  0  -0.177927  0  3.898644  0  0  -0.186532  0  3.919839  0  0  -0.061009  -0.172288  0  3.884395  0
C  C70  1  0.13590981  0.27008750  0.39773053  1  0  -0.158431  0  3.6538  0  0  -0.177982  0  3.898838  0  0  -0.18659  0  3.92003  0  0  -0.061064  -0.172341  0  3.884586  0
C  C71  1  0.94484917  0.91921447  0.86973440  1  0  0.629754  0  3.941676  0  0  0.58538  0  4.226251  0  0  0.618654  0  4.221849  0  0  0.195879  0.562858  0  4.228195  0
C  C72  1  0.05515439  0.08078350  0.13026161  1  0  0.629698  0  3.941641  0  0  0.585337  0  4.226209  0  0  0.618614  0  4.221804  0  0  0.195838  0.562815  0  4.228153  0
C  C73  1  0.95139544  0.54121473  0.67827473  1  0  -0.167564  0  3.689369  0  0  -0.189025  0  3.938933  0  0  -0.197659  0  3.963099  0  0  -0.073412  -0.183966  0  3.923979  0
C  C74  1  0.04860943  0.45877262  0.32172824  1  0  -0.167897  0  3.689689  0  0  -0.189339  0  3.939211  0  0  -0.197965  0  3.963407  0  0  -0.073513  -0.184281  0  3.924264  0
C  C75  1  0.67759736  0.51170235  0.39035863  1  0  0.192336  0  3.807819  0  0  0.189483  0  4.069841  0  0  0.194558  0  4.092239  0  0  0.102244  0.186544  0  4.054622  0
C  C76  1  0.32240166  0.48830266  0.60964263  1  0  0.192256  0  3.807825  0  0  0.189407  0  4.069851  0  0  0.194482  0  4.092252  0  0  0.102235  0.186465  0  4.054634  0
C  C77  1  0.15095726  0.98323917  0.83715892  1  0  -0.035855  0  3.676477  0  0  -0.075016  0  3.922216  0  0  -0.070124  0  3.939151  0  0  -0.06771  -0.077989  0  3.910941  0
C  C78  1  0.84903897  0.01676329  0.16283648  1  0  -0.035926  0  3.676596  0  0  -0.075078  0  3.922381  0  0  -0.070191  0  3.939313  0  0  -0.067764  -0.078059  0  3.911114  0
C  C79  1  0.81324158  0.78454926  0.69369200  1  0  0.158688  0  3.672612  0  0  0.125614  0  3.924845  0  0  0.13348  0  3.942868  0  0  0.066368  0.120603  0  3.912565  0
C  C80  1  0.18676116  0.21544431  0.30630607  1  0  0.158636  0  3.672458  0  0  0.125565  0  3.924737  0  0  0.133434  0  3.942755  0  0  0.066334  0.120556  0  3.912457  0
C  C81  1  0.67094934  0.63374349  0.24972795  1  0  0.136574  0  3.671346  0  0  0.109537  0  3.912229  0  0  0.115375  0  3.932205  0  0  0.052973  0.106016  0  3.898651  0
C  C82  1  0.32904617  0.36626245  0.75027412  1  0  0.136437  0  3.671163  0  0  0.109412  0  3.912046  0  0  0.115248  0  3.932017  0  0  0.052955  0.10591  0  3.898479  0
C  C83  1  0.62666130  0.54880137  0.63975465  1  0  0.185969  0  3.820057  0  0  0.186749  0  4.076215  0  0  0.190248  0  4.100558  0  0  0.0979  0.184494  0  4.060623  0
C  C84  1  0.37334051  0.45120011  0.36024557  1  0  0.185965  0  3.820131  0  0  0.186799  0  4.076226  0  0  0.190292  0  4.100579  0  0  0.097942  0.184546  0  4.060635  0
C  C85  1  0.73030143  0.41356765  0.32913206  1  0  -0.157932  0  3.665062  0  0  -0.180462  0  3.917667  0  0  -0.189367  0  3.939583  0  0  -0.070113  -0.175335  0  3.90449  0
C  C86  1  0.26969262  0.58643916  0.67087236  1  0  -0.157904  0  3.665039  0  0  -0.180396  0  3.917636  0  0  -0.189298  0  3.939553  0  0  -0.070126  -0.17527  0  3.904459  0
C  C87  1  0.89993595  0.60268236  0.76601284  1  0  0.140458  0  3.682111  0  0  0.110809  0  3.929578  0  0  0.116999  0  3.949203  0  0  0.052597  0.106896  0  3.917063  0
C  C88  1  0.10006783  0.39731117  0.23398770  1  0  0.14064  0  3.681986  0  0  0.111076  0  3.929429  0  0  0.11724  0  3.949037  0  0  0.052693  0.107167  0  3.916925  0
S  S89  1  0.39824729  0.03042309  0.80082465  1  0  1.291804  0  5.684221  0  0  1.195053  0  6.213671  0  0  1.242823  0  6.190316  0  0  0.49685  1.161955  0  6.228725  0
S  S90  1  0.60174793  0.96957936  0.19917444  1  0  1.291815  0  5.684326  0  0  1.195055  0  6.21379  0  0  1.242823  0  6.190432  0  0  0.496843  1.161958  0  6.228845  0
N  N91  1  0.58326165  0.51985793  0.83939733  1  0  -0.310199  0  3.236703  0  0  -0.240637  0  3.50183  0  0  -0.257525  0  3.518543  0  0  -0.310661  -0.22937  0  3.490724  0
N  N92  1  0.41673753  0.48014270  0.16060229  1  0  -0.310099  0  3.236885  0  0  -0.240529  0  3.502  0  0  -0.257417  0  3.518714  0  0  -0.310614  -0.229263  0  3.490896  0
N  N93  1  0.72665756  0.53790777  0.19013769  1  0  -0.336869  0  3.289318  0  0  -0.254248  0  3.573432  0  0  -0.273513  0  3.586943  0  0  -0.325463  -0.241523  0  3.564397  0
N  N94  1  0.27333782  0.46209640  0.80986529  1  0  -0.336854  0  3.289275  0  0  -0.254198  0  3.573338  0  0  -0.273463  0  3.586851  0  0  -0.32544  -0.241473  0  3.564288  0
N  N95  1  0.83223189  0.72208616  0.77375844  1  0  -0.325828  0  3.271293  0  0  -0.243749  0  3.54826  0  0  -0.263284  0  3.563394  0  0  -0.31521  -0.230649  0  3.538103  0
N  N96  1  0.16776952  0.27791006  0.22624038  1  0  -0.325971  0  3.271375  0  0  -0.243965  0  3.548414  0  0  -0.263499  0  3.563552  0  0  -0.315284  -0.230867  0  3.538262  0
N  N97  1  0.65761933  0.48866641  0.49126514  1  0  -0.135614  0  2.969865  0  0  -0.117135  0  3.25966  0  0  -0.116865  0  3.26566  0  0  -0.132415  -0.117095  0  3.255306  0
N  N98  1  0.34237821  0.51133950  0.50873572  1  0  -0.135674  0  2.969654  0  0  -0.117178  0  3.259444  0  0  -0.116911  0  3.265443  0  0  -0.132413  -0.117136  0  3.255092  0
N  N99  1  0.64550233  0.57191484  0.53917992  1  0  -0.123392  0  2.959454  0  0  -0.104135  0  3.243727  0  0  -0.102984  0  3.249571  0  0  -0.128824  -0.104815  0  3.239588  0
N  N100  1  0.35450471  0.42808835  0.46081943  1  0  -0.12334  0  2.959221  0  0  -0.104112  0  3.243492  0  0  -0.102957  0  3.249332  0  0  -0.128846  -0.104795  0  3.239356  0
N  N101  1  0.98485838  0.55467914  0.49970888  1  0  -0.126719  0  2.953584  0  0  -0.110057  0  3.243051  0  0  -0.108687  0  3.247622  0  0  -0.127382  -0.11069  0  3.239532  0
N  N102  1  0.01515496  0.44530549  0.50029148  1  0  -0.126702  0  2.953514  0  0  -0.110059  0  3.24302  0  0  -0.108686  0  3.247587  0  0  -0.127407  -0.110694  0  3.2395  0
O  O103  1  0.41705886  0.10914100  0.85739745  1  0  -0.695148  0  1.959348  0  0  -0.643059  0  2.206142  0  0  -0.663231  0  2.18861  0  0  -0.351911  -0.628537  0  2.218129  0
O  O104  1  0.58293740  0.89086141  0.14260343  1  0  -0.695099  0  1.959404  0  0  -0.642998  0  2.20616  0  0  -0.663168  0  2.188631  0  0  -0.351871  -0.628481  0  2.218151  0
O  O105  1  0.44442708  0.04749674  0.69506352  1  0  -0.654619  0  1.846607  0  0  -0.614809  0  2.059589  0  0  -0.635084  0  2.047151  0  0  -0.372226  -0.600064  0  2.067671  0
O  O106  1  0.55557018  0.95250568  0.30493435  1  0  -0.654647  0  1.846538  0  0  -0.614844  0  2.059533  0  0  -0.635117  0  2.04709  0  0  -0.372272  -0.600099  0  2.067618  0
O  O107  1  0.46494747  0.90477837  0.82742903  1  0  -0.694635  0  1.983977  0  0  -0.640805  0  2.235537  0  0  -0.663059  0  2.221371  0  0  -0.348796  -0.624798  0  2.244892  0
O  O108  1  0.53505621  0.09522138  0.17256539  1  0  -0.694691  0  1.984083  0  0  -0.64086  0  2.23564  0  0  -0.663114  0  2.221475  0  0  -0.348827  -0.624852  0  2.244996  0
O  O109  1  0.89390239  0.40031780  0.97455247  1  0  -0.670105  0  2.097147  0  0  -0.583618  0  2.360222  0  0  -0.611724  0  2.342801  0  0  -0.319786  -0.563907  0  2.371238  0
O  O110  1  0.10609854  0.59968544  0.02544848  1  0  -0.670028  0  2.097155  0  0  -0.583535  0  2.360238  0  0  -0.611644  0  2.342824  0  0  -0.319709  -0.563834  0  2.371263  0
O  O111  1  0.70439095  0.34718467  0.00226956  1  0  -0.617893  0  2.068783  0  0  -0.560306  0  2.330935  0  0  -0.585254  0  2.319063  0  0  -0.302532  -0.543083  0  2.338491  0
O  O112  1  0.29560664  0.65281509  0.99773125  1  0  -0.617906  0  2.068577  0  0  -0.560342  0  2.330792  0  0  -0.585283  0  2.318906  0  0  -0.302575  -0.543118  0  2.338345  0
O  O113  1  0.43649816  0.38315582  0.96964499  1  0  -0.990584  0  1.920538  0  0  -0.89977  0  2.218051  0  0  -0.931239  0  2.181333  0  0  -0.603189  -0.877378  0  2.242854  0
O  O114  1  0.56350306  0.61684481  0.03035273  1  0  -0.990492  0  1.920604  0  0  -0.899662  0  2.218115  0  0  -0.931129  0  2.181394  0  0  -0.603124  -0.877266  0  2.242916  0
O  O115  1  0.85900026  0.65731660  0.97962623  1  0  -0.990634  0  1.892546  0  0  -0.886162  0  2.204286  0  0  -0.916879  0  2.162382  0  0  -0.602453  -0.864325  0  2.232773  0
O  O116  1  0.14099925  0.34268138  0.02037428  1  0  -0.99076  0  1.892473  0  0  -0.886289  0  2.204245  0  0  -0.917008  0  2.162345  0  0  -0.602525  -0.864455  0  2.23274  0
O  O117  1  0.55925071  0.84308276  0.97383709  1  0  -0.837305  0  1.945913  0  0  -0.754581  0  2.15797  0  0  -0.77824  0  2.120741  0  0  -0.553962  -0.737798  0  2.184181  0
O  O118  1  0.44074566  0.15692144  0.02616083  1  0  -0.837275  0  1.945913  0  0  -0.754537  0  2.157947  0  0  -0.778197  0  2.120721  0  0  -0.553882  -0.737752  0  2.184157  0
O  O119  1  0.80224012  0.94785978  0.90704551  1  0  -0.6565  0  1.993759  0  0  -0.586075  0  2.254557  0  0  -0.615256  0  2.240022  0  0  -0.338551  -0.565597  0  2.264252  0
O  O120  1  0.19775801  0.05214091  0.09294889  1  0  -0.656451  0  1.993922  0  0  -0.586041  0  2.254742  0  0  -0.615221  0  2.240198  0  0  -0.338539  -0.565565  0  2.264436  0
O  O121  1  0.03701900  0.81759571  0.83471794  1  0  -0.632266  0  1.947382  0  0  -0.586691  0  2.174999  0  0  -0.610631  0  2.166614  0  0  -0.325869  -0.569101  0  2.179772  0
O  O122  1  0.96298263  0.18241016  0.16528322  1  0  -0.632351  0  1.94719  0  0  -0.586752  0  2.174776  0  0  -0.610697  0  2.166387  0  0  -0.325872  -0.569168  0  2.179567  0
