# generated using pymatgen
data_GdAsH7C6NO8
_symmetry_space_group_name_H-M   'P 1'
_cell_length_a   6.91576404
_cell_length_b   7.12618136
_cell_length_c   21.15495209
_cell_angle_alpha   89.99978428
_cell_angle_beta   89.99991173
_cell_angle_gamma   105.27928369
_symmetry_Int_Tables_number   1
_chemical_formula_structural   GdAsH7C6NO8
_chemical_formula_sum   'Gd4 As4 H28 C24 N4 O32'
_cell_volume   1005.72697018
_cell_formula_units_Z   4
loop_
 _symmetry_equiv_pos_site_id
 _symmetry_equiv_pos_as_xyz
  1  'x, y, z'
loop_
 _atom_site_type_symbol
 _atom_site_label
 _atom_site_symmetry_multiplicity
 _atom_site_fract_x
 _atom_site_fract_y
 _atom_site_fract_z
 _atom_site_occupancy
 _atom_site_hle17_bader_spin_density
 _atom_site_hle17_ddec_charge
 _atom_site_hle17_ddec_spin_density
 _atom_site_hle17_ddec_sum_bond_order
 _atom_site_hle17_magmom
 _atom_site_hse06_10hf_bader_spin_density
 _atom_site_hse06_10hf_ddec_charge
 _atom_site_hse06_10hf_ddec_spin_density
 _atom_site_hse06_10hf_ddec_sum_bond_order
 _atom_site_hse06_10hf_magmom
 _atom_site_hse06_bader_spin_density
 _atom_site_hse06_ddec_charge
 _atom_site_hse06_ddec_spin_density
 _atom_site_hse06_ddec_sum_bond_order
 _atom_site_hse06_magmom
 _atom_site_pbe_bader_spin_density
 _atom_site_pbe_cm5_charge
 _atom_site_pbe_ddec_charge
 _atom_site_pbe_ddec_spin_density
 _atom_site_pbe_ddec_sum_bond_order
 _atom_site_pbe_magmom
Gd  Gd0  1  0.26020554  0.03736706  0.45840984  1  0  2.274974  0  1.818891  0  0  2.18935  0  2.191997  0  0  2.246736  0  2.124934  0  0  1.47381  2.144465  0  2.245163  0
Gd  Gd1  1  0.23979565  0.96263341  0.95841039  1  0  2.27506  0  1.818826  0  0  2.189365  0  2.192037  0  0  2.246741  0  2.124988  0  0  1.473801  2.144457  0  2.245224  0
Gd  Gd2  1  0.73979682  0.96263259  0.54159013  1  0  2.2751  0  1.818783  0  0  2.1894  0  2.191993  0  0  2.246775  0  2.124946  0  0  1.473822  2.144532  0  2.245123  0
Gd  Gd3  1  0.76020527  0.03736623  0.04158957  1  0  2.275057  0  1.818814  0  0  2.189388  0  2.191969  0  0  2.246768  0  2.124915  0  0  1.473817  2.144478  0  2.24516  0
As  As4  1  0.18421191  0.75753193  0.58234256  1  0  1.613273  0  4.011876  0  0  1.54666  0  4.472416  0  0  1.59522  0  4.446523  0  0  0.599897  1.512255  0  4.489891  0
As  As5  1  0.31578874  0.24247063  0.08234077  1  0  1.613302  0  4.011807  0  0  1.546698  0  4.472329  0  0  1.595265  0  4.446436  0  0  0.599942  1.512291  0  4.489812  0
As  As6  1  0.81578833  0.24247062  0.41765741  1  0  1.613297  0  4.011751  0  0  1.546689  0  4.472252  0  0  1.595253  0  4.446357  0  0  0.599925  1.512284  0  4.489732  0
As  As7  1  0.68421218  0.75752901  0.91765966  1  0  1.613244  0  4.011848  0  0  1.546634  0  4.472389  0  0  1.595201  0  4.446498  0  0  0.599936  1.51223  0  4.489871  0
H  H8  1  0.27996025  0.14446362  0.64343453  1  0  0.109422  0  0.933904  0  0  0.117635  0  0.998264  0  0  0.121651  0  0.99361  0  0  0.118695  0.114635  0  1.001704  0
H  H9  1  0.22004251  0.85554249  0.14343343  1  0  0.109322  0  0.933892  0  0  0.117525  0  0.998287  0  0  0.12154  0  0.993631  0  0  0.118645  0.114522  0  1.001724  0
H  H10  1  0.72003131  0.85553888  0.35656544  1  0  0.109343  0  0.933858  0  0  0.117538  0  0.998252  0  0  0.121553  0  0.993598  0  0  0.118655  0.114536  0  1.001692  0
H  H11  1  0.77996170  0.14445862  0.85656559  1  0  0.109312  0  0.933844  0  0  0.117515  0  0.998233  0  0  0.121532  0  0.993574  0  0  0.118637  0.114509  0  1.001669  0
H  H12  1  0.32634500  0.25615803  0.75498043  1  0  0.124944  0  0.948577  0  0  0.130633  0  1.011795  0  0  0.134798  0  1.009538  0  0  0.10742  0.127703  0  1.013539  0
H  H13  1  0.17366330  0.74384373  0.25497950  1  0  0.124957  0  0.94859  0  0  0.130662  0  1.011785  0  0  0.13483  0  1.009523  0  0  0.10744  0.127732  0  1.013527  0
H  H14  1  0.67365525  0.74384451  0.24501953  1  0  0.124931  0  0.94862  0  0  0.130652  0  1.011797  0  0  0.134817  0  1.00954  0  0  0.107436  0.127721  0  1.013537  0
H  H15  1  0.82634660  0.25615160  0.74501952  1  0  0.124958  0  0.948557  0  0  0.130673  0  1.011741  0  0  0.134838  0  1.009485  0  0  0.107442  0.127743  0  1.013484  0
H  H16  1  0.12379144  0.54605412  0.70663039  1  0  0.123842  0  0.942291  0  0  0.12723  0  1.013299  0  0  0.131618  0  1.008595  0  0  0.115702  0.12404  0  1.016626  0
H  H17  1  0.37621002  0.45394825  0.20662925  1  0  0.123874  0  0.94228  0  0  0.12725  0  1.013275  0  0  0.131638  0  1.008569  0  0  0.115704  0.124061  0  1.016601  0
H  H18  1  0.87621132  0.45394699  0.29336957  1  0  0.123806  0  0.942321  0  0  0.127199  0  1.013316  0  0  0.131587  0  1.008612  0  0  0.115694  0.124012  0  1.016642  0
H  H19  1  0.62378723  0.54604847  0.79337118  1  0  0.123909  0  0.942202  0  0  0.127271  0  1.013235  0  0  0.131658  0  1.008531  0  0  0.115725  0.124084  0  1.01656  0
H  H20  1  0.50026466  0.35044232  0.54068299  1  0  0.448959  0  0.837469  0  0  0.419639  0  0.898843  0  0  0.429832  0  0.883663  0  0  0.311543  0.412299  0  0.909785  0
H  H21  1  0.99973416  0.64955505  0.04068343  1  0  0.448924  0  0.837513  0  0  0.419604  0  0.89889  0  0  0.429797  0  0.88371  0  0  0.311535  0.412263  0  0.909834  0
H  H22  1  0.49973849  0.64956024  0.45931698  1  0  0.448954  0  0.837496  0  0  0.419643  0  0.898849  0  0  0.429835  0  0.883672  0  0  0.311541  0.412301  0  0.909794  0
H  H23  1  0.00026270  0.35044022  0.95931606  1  0  0.448961  0  0.837477  0  0  0.419639  0  0.898849  0  0  0.429832  0  0.88367  0  0  0.311535  0.412298  0  0.909792  0
H  H24  1  0.28105708  0.39434650  0.54574329  1  0  0.462179  0  0.829939  0  0  0.427383  0  0.898729  0  0  0.438956  0  0.881864  0  0  0.29768  0.419213  0  0.910618  0
H  H25  1  0.21894311  0.60565364  0.04574204  1  0  0.462224  0  0.829874  0  0  0.427431  0  0.898657  0  0  0.439007  0  0.881788  0  0  0.297716  0.419263  0  0.910546  0
H  H26  1  0.71894384  0.60565314  0.45425714  1  0  0.462196  0  0.829915  0  0  0.427399  0  0.898701  0  0  0.438973  0  0.881835  0  0  0.297693  0.419232  0  0.910589  0
H  H27  1  0.78105491  0.39434599  0.95425745  1  0  0.462251  0  0.829839  0  0  0.42744  0  0.898653  0  0  0.439016  0  0.881785  0  0  0.297703  0.419273  0  0.91054  0
H  H28  1  0.27726365  0.68691691  0.38968178  1  0  0.424565  0  0.8534  0  0  0.39311  0  0.933983  0  0  0.40382  0  0.918354  0  0  0.306408  0.385426  0  0.943553  0
H  H29  1  0.22273522  0.31308447  0.88968174  1  0  0.424591  0  0.853357  0  0  0.393102  0  0.933986  0  0  0.403811  0  0.918365  0  0  0.3064  0.385419  0  0.943555  0
H  H30  1  0.72273476  0.31308418  0.61031819  1  0  0.424607  0  0.853329  0  0  0.39312  0  0.933946  0  0  0.40383  0  0.918332  0  0  0.306404  0.385438  0  0.943513  0
H  H31  1  0.77726531  0.68691372  0.11031822  1  0  0.424597  0  0.853357  0  0  0.393104  0  0.933986  0  0  0.403813  0  0.918362  0  0  0.306398  0.385421  0  0.943554  0
H  H32  1  0.10195667  0.60255872  0.43653662  1  0  0.443596  0  0.856695  0  0  0.406697  0  0.930913  0  0  0.418401  0  0.91386  0  0  0.294012  0.398465  0  0.942884  0
H  H33  1  0.39804142  0.39744058  0.93653687  1  0  0.443607  0  0.856674  0  0  0.40671  0  0.93089  0  0  0.418415  0  0.913837  0  0  0.294033  0.398481  0  0.942859  0
H  H34  1  0.89804898  0.39744240  0.56346523  1  0  0.443641  0  0.856605  0  0  0.406725  0  0.930875  0  0  0.418427  0  0.913823  0  0  0.294014  0.398493  0  0.942847  0
H  H35  1  0.60195515  0.60255904  0.06346404  1  0  0.443645  0  0.85662  0  0  0.406744  0  0.930861  0  0  0.418448  0  0.913807  0  0  0.294021  0.398511  0  0.942835  0
C  C36  1  0.19619007  0.83723078  0.66897706  1  0  -0.27237  0  3.767896  0  0  -0.261538  0  4.064697  0  0  -0.27876  0  4.092976  0  0  -0.057295  -0.250451  0  4.045925  0
C  C37  1  0.30380803  0.16276917  0.16897728  1  0  -0.272423  0  3.768025  0  0  -0.2616  0  4.064779  0  0  -0.278823  0  4.093058  0  0  -0.05732  -0.250512  0  4.046007  0
C  C38  1  0.80380294  0.16277173  0.33102243  1  0  -0.272341  0  3.767925  0  0  -0.261551  0  4.064823  0  0  -0.278773  0  4.093102  0  0  -0.057294  -0.250462  0  4.046048  0
C  C39  1  0.69619105  0.83722902  0.83102221  1  0  -0.272428  0  3.767949  0  0  -0.261687  0  4.0649  0  0  -0.27891  0  4.093179  0  0  -0.057349  -0.250598  0  4.046126  0
C  C40  1  0.25432052  0.03949129  0.68216737  1  0  0.022809  0  3.735476  0  0  -0.00946  0  4.000999  0  0  -0.000712  0  4.017004  0  0  -0.064027  -0.014786  0  3.99001  0
C  C41  1  0.24568008  0.96051285  0.18216708  1  0  0.022995  0  3.735582  0  0  -0.009266  0  4.001079  0  0  -0.000511  0  4.017076  0  0  -0.063986  -0.014582  0  3.990076  0
C  C42  1  0.74566853  0.96051265  0.31783259  1  0  0.022876  0  3.735355  0  0  -0.009369  0  4.000874  0  0  -0.000615  0  4.016869  0  0  -0.064035  -0.014689  0  3.989878  0
C  C43  1  0.75432151  0.03948389  0.81783241  1  0  0.023008  0  3.735446  0  0  -0.009237  0  4.000967  0  0  -0.000482  0  4.016962  0  0  -0.063975  -0.014551  0  3.989963  0
C  C44  1  0.28033654  0.10192997  0.74361393  1  0  -0.175129  0  3.645802  0  0  -0.189218  0  3.896547  0  0  -0.200872  0  3.915653  0  0  -0.093578  -0.181797  0  3.883834  0
C  C45  1  0.21966132  0.89807043  0.24361231  1  0  -0.175031  0  3.645876  0  0  -0.18913  0  3.896493  0  0  -0.200782  0  3.915601  0  0  -0.093499  -0.18171  0  3.883778  0
C  C46  1  0.71965646  0.89807254  0.25638603  1  0  -0.175064  0  3.645942  0  0  -0.189183  0  3.896615  0  0  -0.200838  0  3.915723  0  0  -0.093555  -0.18176  0  3.883898  0
C  C47  1  0.78033805  0.10192339  0.75638670  1  0  -0.175108  0  3.64587  0  0  -0.189213  0  3.896602  0  0  -0.200864  0  3.915709  0  0  -0.093579  -0.181796  0  3.883885  0
C  C48  1  0.25074753  0.96965324  0.79595858  1  0  0.405666  0  3.836302  0  0  0.392139  0  4.095697  0  0  0.414361  0  4.106899  0  0  0.12378  0.377337  0  4.08779  0
C  C49  1  0.24925540  0.03035085  0.29595852  1  0  0.40518  0  3.836583  0  0  0.391928  0  4.095883  0  0  0.414142  0  4.107102  0  0  0.123676  0.377126  0  4.087976  0
C  C50  1  0.74925494  0.03035222  0.20404091  1  0  0.405544  0  3.83666  0  0  0.392106  0  4.095925  0  0  0.414328  0  4.107128  0  0  0.123778  0.377302  0  4.088018  0
C  C51  1  0.75074001  0.96964441  0.70404144  1  0  0.405519  0  3.836444  0  0  0.392015  0  4.095838  0  0  0.414223  0  4.107063  0  0  0.123734  0.377222  0  4.087917  0
C  C52  1  0.18888230  0.76508090  0.78025224  1  0  -0.059119  0  3.640647  0  0  -0.076925  0  3.892558  0  0  -0.090889  0  3.915626  0  0  0.066019  -0.068301  0  3.877509  0
C  C53  1  0.31111526  0.23491902  0.28024999  1  0  -0.058463  0  3.640448  0  0  -0.077022  0  3.892786  0  0  -0.090984  0  3.915854  0  0  0.066012  -0.0684  0  3.87774  0
C  C54  1  0.81111138  0.23491871  0.21974867  1  0  -0.059231  0  3.64088  0  0  -0.077073  0  3.892787  0  0  -0.091038  0  3.915853  0  0  0.066036  -0.068447  0  3.877739  0
C  C55  1  0.68887658  0.76507913  0.71975044  1  0  -0.059035  0  3.640706  0  0  -0.0769  0  3.89268  0  0  -0.09086  0  3.915747  0  0  0.066047  -0.068276  0  3.877626  0
C  C56  1  0.16538361  0.70136656  0.71688651  1  0  -0.074038  0  3.805738  0  0  -0.116212  0  4.089603  0  0  -0.108047  0  4.108706  0  0  -0.08265  -0.121042  0  4.076592  0
C  C57  1  0.33461669  0.29863711  0.21688559  1  0  -0.074229  0  3.805805  0  0  -0.116179  0  4.08976  0  0  -0.108014  0  4.108862  0  0  -0.082627  -0.12101  0  4.076753  0
C  C58  1  0.83461190  0.29863451  0.28311345  1  0  -0.073901  0  3.805948  0  0  -0.116068  0  4.089799  0  0  -0.107903  0  4.108904  0  0  -0.082595  -0.120899  0  4.076792  0
C  C59  1  0.66537949  0.70136105  0.78311437  1  0  -0.074124  0  3.805919  0  0  -0.116259  0  4.089847  0  0  -0.108091  0  4.108945  0  0  -0.082675  -0.121089  0  4.076837  0
N  N60  1  0.15881398  0.62174198  0.82824819  1  0  0.494367  0  3.92473  0  0  0.554216  0  4.17274  0  0  0.577399  0  4.182613  0  0  0.042252  0.53879  0  4.166076  0
N  N61  1  0.34118752  0.37825732  0.32824717  1  0  0.493413  0  3.925131  0  0  0.554397  0  4.172621  0  0  0.57758  0  4.182493  0  0  0.04235  0.538973  0  4.165957  0
N  N62  1  0.84118481  0.37826055  0.17175177  1  0  0.494452  0  3.924654  0  0  0.554308  0  4.172676  0  0  0.577493  0  4.182545  0  0  0.042295  0.538883  0  4.166011  0
N  N63  1  0.65880789  0.62173794  0.67175279  1  0  0.49444  0  3.92462  0  0  0.554326  0  4.172626  0  0  0.577514  0  4.182493  0  0  0.042293  0.5389  0  4.165964  0
O  O64  1  0.40395409  0.89026967  0.54791313  1  0  -1.06331  0  1.880967  0  0  -1.016342  0  2.163234  0  0  -1.047234  0  2.1459  0  0  -0.592305  -0.992888  0  2.174988  0
O  O65  1  0.09604975  0.10973336  0.04791257  1  0  -1.063359  0  1.881125  0  0  -1.016391  0  2.16338  0  0  -1.047283  0  2.146047  0  0  -0.592277  -0.992927  0  2.175134  0
O  O66  1  0.59604867  0.10973144  0.45208825  1  0  -1.063333  0  1.881001  0  0  -1.016332  0  2.163199  0  0  -1.047226  0  2.145865  0  0  -0.592278  -0.992876  0  2.174952  0
O  O67  1  0.90395011  0.89026772  0.95208740  1  0  -1.063335  0  1.881108  0  0  -1.016355  0  2.163359  0  0  -1.047247  0  2.146027  0  0  -0.592279  -0.992891  0  2.175109  0
O  O68  1  0.02576024  0.85843119  0.53799405  1  0  -1.068133  0  1.822811  0  0  -1.022647  0  2.104099  0  0  -1.052403  0  2.084736  0  0  -0.586489  -0.999952  0  2.117291  0
O  O69  1  0.47424368  0.14157198  0.03799279  1  0  -1.068142  0  1.822835  0  0  -1.022656  0  2.104103  0  0  -1.052411  0  2.084741  0  0  -0.586497  -0.99995  0  2.117295  0
O  O70  1  0.97424541  0.14156993  0.46200544  1  0  -1.068186  0  1.822814  0  0  -1.022683  0  2.10405  0  0  -1.05244  0  2.084687  0  0  -0.586505  -0.999987  0  2.117244  0
O  O71  1  0.52575579  0.85842766  0.96200718  1  0  -1.068121  0  1.822851  0  0  -1.022628  0  2.10412  0  0  -1.052383  0  2.084758  0  0  -0.586499  -0.999924  0  2.117313  0
O  O72  1  0.13120993  0.51301504  0.57629733  1  0  -0.836276  0  1.64721  0  0  -0.772958  0  1.87051  0  0  -0.799055  0  1.85227  0  0  -0.395405  -0.754706  0  1.883091  0
O  O73  1  0.36879261  0.48698906  0.07629474  1  0  -0.83628  0  1.647117  0  0  -0.772972  0  1.870426  0  0  -0.799085  0  1.852197  0  0  -0.395436  -0.754721  0  1.883011  0
O  O74  1  0.86879177  0.48698751  0.42370358  1  0  -0.836292  0  1.647149  0  0  -0.772957  0  1.87041  0  0  -0.799057  0  1.852165  0  0  -0.395431  -0.754708  0  1.882993  0
O  O75  1  0.63120763  0.51301348  0.92370475  1  0  -0.836264  0  1.64716  0  0  -0.772915  0  1.870428  0  0  -0.799029  0  1.852202  0  0  -0.395425  -0.754673  0  1.883018  0
O  O76  1  0.28551942  0.03712778  0.85216114  1  0  -0.694822  0  2.115051  0  0  -0.656315  0  2.369944  0  0  -0.68399  0  2.364637  0  0  -0.406421  -0.636243  0  2.373246  0
O  O77  1  0.21449019  0.96286979  0.35216038  1  0  -0.69477  0  2.115271  0  0  -0.656264  0  2.369988  0  0  -0.683939  0  2.364685  0  0  -0.406439  -0.636195  0  2.373286  0
O  O78  1  0.71449743  0.96287195  0.14783835  1  0  -0.694793  0  2.115084  0  0  -0.656346  0  2.369937  0  0  -0.684022  0  2.364626  0  0  -0.406521  -0.636274  0  2.373242  0
O  O79  1  0.78550523  0.03712546  0.64783911  1  0  -0.694866  0  2.115067  0  0  -0.656346  0  2.369921  0  0  -0.684017  0  2.364616  0  0  -0.406503  -0.636282  0  2.373219  0
O  O80  1  0.15229743  0.66750886  0.88580065  1  0  -0.480198  0  1.905049  0  0  -0.474106  0  2.144689  0  0  -0.487705  0  2.137221  0  0  -0.182475  -0.464445  0  2.149981  0
O  O81  1  0.34770504  0.33248968  0.38579920  1  0  -0.479741  0  1.905086  0  0  -0.474205  0  2.144697  0  0  -0.487803  0  2.137228  0  0  -0.182548  -0.464542  0  2.149977  0
O  O82  1  0.84770059  0.33249077  0.11419979  1  0  -0.480211  0  1.905102  0  0  -0.474122  0  2.144732  0  0  -0.487719  0  2.137262  0  0  -0.182487  -0.464454  0  2.150011  0
O  O83  1  0.65229511  0.66750705  0.61420076  1  0  -0.480267  0  1.905003  0  0  -0.474189  0  2.144669  0  0  -0.487784  0  2.137198  0  0  -0.182527  -0.464538  0  2.149972  0
O  O84  1  0.13794415  0.44688926  0.81315255  1  0  -0.391925  0  1.782806  0  0  -0.362761  0  1.974918  0  0  -0.376627  0  1.971088  0  0  -0.134444  -0.353292  0  1.977647  0
O  O85  1  0.36205893  0.55311025  0.31315130  1  0  -0.391473  0  1.782912  0  0  -0.362817  0  1.974957  0  0  -0.376693  0  1.971137  0  0  -0.134458  -0.353349  0  1.977686  0
O  O86  1  0.86206005  0.55311186  0.18684788  1  0  -0.391961  0  1.782826  0  0  -0.362766  0  1.974918  0  0  -0.376642  0  1.971096  0  0  -0.134452  -0.3533  0  1.977646  0
O  O87  1  0.63793542  0.44688645  0.68684914  1  0  -0.391898  0  1.782869  0  0  -0.362729  0  1.974975  0  0  -0.376616  0  1.971166  0  0  -0.134368  -0.353261  0  1.977707  0
O  O88  1  0.35756311  0.30189016  0.52966294  1  0  -0.928647  0  1.842305  0  0  -0.886189  0  2.042836  0  0  -0.906461  0  2.008347  0  0  -0.64757  -0.871306  0  2.067369  0
O  O89  1  0.14243287  0.69811017  0.02966303  1  0  -0.928629  0  1.842258  0  0  -0.886182  0  2.042821  0  0  -0.90645  0  2.008327  0  0  -0.647594  -0.871298  0  2.067354  0
O  O90  1  0.64243820  0.69811093  0.47033703  1  0  -0.928652  0  1.842285  0  0  -0.8862  0  2.04283  0  0  -0.906469  0  2.008339  0  0  -0.647571  -0.871318  0  2.067362  0
O  O91  1  0.85756409  0.30189091  0.97033646  1  0  -0.928688  0  1.842217  0  0  -0.886234  0  2.042791  0  0  -0.906505  0  2.008292  0  0  -0.647567  -0.871348  0  2.06732  0
O  O92  1  0.24267563  0.69221354  0.43465518  1  0  -0.904763  0  1.923644  0  0  -0.860019  0  2.131579  0  0  -0.880025  0  2.097732  0  0  -0.61455  -0.845422  0  2.154034  0
O  O93  1  0.25732392  0.30778578  0.93465466  1  0  -0.904745  0  1.923583  0  0  -0.860029  0  2.131594  0  0  -0.880032  0  2.097753  0  0  -0.614564  -0.845431  0  2.154046  0
O  O94  1  0.75733002  0.30778758  0.56534573  1  0  -0.904796  0  1.923428  0  0  -0.860082  0  2.131411  0  0  -0.880084  0  2.09758  0  0  -0.614562  -0.845488  0  2.153864  0
O  O95  1  0.74267371  0.69221239  0.06534578  1  0  -0.904785  0  1.923479  0  0  -0.860064  0  2.131446  0  0  -0.880067  0  2.097601  0  0  -0.614564  -0.845468  0  2.1539  0
