# generated using pymatgen
data_ZnH13C20N3O4
_symmetry_space_group_name_H-M   'P 1'
_cell_length_a   8.10582029
_cell_length_b   9.17716716
_cell_length_c   13.40142298
_cell_angle_alpha   92.14362798
_cell_angle_beta   106.38832992
_cell_angle_gamma   113.91405105
_symmetry_Int_Tables_number   1
_chemical_formula_structural   ZnH13C20N3O4
_chemical_formula_sum   'Zn2 H26 C40 N6 O8'
_cell_volume   861.11268238
_cell_formula_units_Z   2
loop_
 _symmetry_equiv_pos_site_id
 _symmetry_equiv_pos_as_xyz
  1  'x, y, z'
loop_
 _atom_site_type_symbol
 _atom_site_label
 _atom_site_symmetry_multiplicity
 _atom_site_fract_x
 _atom_site_fract_y
 _atom_site_fract_z
 _atom_site_occupancy
 _atom_site_hle17_bader_spin_density
 _atom_site_hle17_ddec_charge
 _atom_site_hle17_ddec_spin_density
 _atom_site_hle17_ddec_sum_bond_order
 _atom_site_hle17_magmom
 _atom_site_hse06_10hf_bader_spin_density
 _atom_site_hse06_10hf_ddec_charge
 _atom_site_hse06_10hf_ddec_spin_density
 _atom_site_hse06_10hf_ddec_sum_bond_order
 _atom_site_hse06_10hf_magmom
 _atom_site_hse06_bader_spin_density
 _atom_site_hse06_ddec_charge
 _atom_site_hse06_ddec_spin_density
 _atom_site_hse06_ddec_sum_bond_order
 _atom_site_hse06_magmom
 _atom_site_pbe_bader_spin_density
 _atom_site_pbe_cm5_charge
 _atom_site_pbe_ddec_charge
 _atom_site_pbe_ddec_spin_density
 _atom_site_pbe_ddec_sum_bond_order
 _atom_site_pbe_magmom
Zn  Zn0  1  0.38001256  0.45457894  0.33685074  1  0  1.086376  0  1.784409  0  0  0.906633  0  2.258941  0  0  0.955044  0  2.199352  0  0  0.702709  0.872632  0  2.300395  0
Zn  Zn1  1  0.61998993  0.54542333  0.66314878  1  0  1.086372  0  1.784377  0  0  0.906616  0  2.258921  0  0  0.955023  0  2.199328  0  0  0.702705  0.872611  0  2.300363  0
H  H2  1  0.58255882  0.96222202  0.61579208  1  0  0.093791  0  0.956649  0  0  0.105477  0  1.015677  0  0  0.108124  0  1.014865  0  0  0.102742  0.103288  0  1.016525  0
H  H3  1  0.41743922  0.03777664  0.38420657  1  0  0.093785  0  0.956601  0  0  0.10548  0  1.015619  0  0  0.108127  0  1.014807  0  0  0.102755  0.103292  0  1.01647  0
H  H4  1  0.45948494  0.15170941  0.67399362  1  0  0.104032  0  0.970624  0  0  0.114018  0  1.031233  0  0  0.117312  0  1.029452  0  0  0.101955  0.111577  0  1.033059  0
H  H5  1  0.54051182  0.84828929  0.32600333  1  0  0.104077  0  0.970695  0  0  0.114059  0  1.031292  0  0  0.117386  0  1.029471  0  0  0.101981  0.111618  0  1.033121  0
H  H6  1  0.11476163  0.06126440  0.63428844  1  0  0.092189  0  0.958571  0  0  0.101375  0  1.022201  0  0  0.103672  0  1.02178  0  0  0.101081  0.099935  0  1.021553  0
H  H7  1  0.88523387  0.93873185  0.36570970  1  0  0.092254  0  0.958555  0  0  0.101406  0  1.022219  0  0  0.103702  0  1.021797  0  0  0.101096  0.099964  0  1.021568  0
H  H8  1  0.88554751  0.77707044  0.54050091  1  0  0.11809  0  0.944351  0  0  0.126423  0  1.008203  0  0  0.129868  0  1.006307  0  0  0.108984  0.124216  0  1.008453  0
H  H9  1  0.11445183  0.22292576  0.45949862  1  0  0.118071  0  0.944369  0  0  0.126397  0  1.008237  0  0  0.129841  0  1.006342  0  0  0.108978  0.12418  0  1.008486  0
H  H10  1  0.96457715  0.72501601  0.33348146  1  0  0.098332  0  0.971616  0  0  0.105093  0  1.040433  0  0  0.107646  0  1.039452  0  0  0.102799  0.103211  0  1.041077  0
H  H11  1  0.03542153  0.27498385  0.66651808  1  0  0.098339  0  0.971611  0  0  0.105098  0  1.040436  0  0  0.107652  0  1.039455  0  0  0.102795  0.103217  0  1.041083  0
H  H12  1  0.24838840  0.82671762  0.27438024  1  0  0.08893  0  0.98245  0  0  0.101132  0  1.042342  0  0  0.103584  0  1.041497  0  0  0.101477  0.099279  0  1.04336  0
H  H13  1  0.75161157  0.17327979  0.72561943  1  0  0.088907  0  0.982441  0  0  0.101119  0  1.042325  0  0  0.103571  0  1.041477  0  0  0.101473  0.099264  0  1.043339  0
H  H14  1  0.21369861  0.76224597  0.08531152  1  0  0.092805  0  0.957928  0  0  0.103833  0  1.01629  0  0  0.106254  0  1.016052  0  0  0.100797  0.102192  0  1.016412  0
H  H15  1  0.78629945  0.23775023  0.91468854  1  0  0.092784  0  0.957902  0  0  0.103804  0  1.016287  0  0  0.106223  0  1.016051  0  0  0.100752  0.102162  0  1.016408  0
H  H16  1  0.88574242  0.60028103  0.95449829  1  0  0.105926  0  0.958071  0  0  0.113475  0  1.023119  0  0  0.116167  0  1.022941  0  0  0.104359  0.111609  0  1.023285  0
H  H17  1  0.11425434  0.39971762  0.04550090  1  0  0.105911  0  0.958082  0  0  0.113476  0  1.023113  0  0  0.116167  0  1.022936  0  0  0.104345  0.11161  0  1.02328  0
H  H18  1  0.99596536  0.44025938  0.27353991  1  0  0.086585  0  0.964102  0  0  0.092978  0  1.030583  0  0  0.094443  0  1.030569  0  0  0.116303  0.092182  0  1.029896  0
H  H19  1  0.00403394  0.55974168  0.72645978  1  0  0.086524  0  0.964154  0  0  0.092936  0  1.030627  0  0  0.094401  0  1.030612  0  0  0.116279  0.092139  0  1.029941  0
H  H20  1  0.67133967  0.26371591  0.15420579  1  0  0.124206  0  0.991785  0  0  0.130676  0  1.054625  0  0  0.134819  0  1.052943  0  0  0.106285  0.127611  0  1.056438  0
H  H21  1  0.32866028  0.73628391  0.84579472  1  0  0.12419  0  0.99182  0  0  0.130661  0  1.05466  0  0  0.134805  0  1.052976  0  0  0.106269  0.127591  0  1.056475  0
H  H22  1  0.89687983  0.93613860  0.07359729  1  0  0.106324  0  0.964102  0  0  0.115328  0  1.026985  0  0  0.117191  0  1.02928  0  0  0.105453  0.114108  0  1.025086  0
H  H23  1  0.10312332  0.06386240  0.92640454  1  0  0.106359  0  0.964094  0  0  0.115366  0  1.026962  0  0  0.117223  0  1.029262  0  0  0.105468  0.114143  0  1.025072  0
H  H24  1  0.21680082  0.13344184  0.19577924  1  0  0.092324  0  0.932505  0  0  0.102985  0  0.990919  0  0  0.105501  0  0.988623  0  0  0.121755  0.10087  0  0.993391  0
H  H25  1  0.78320167  0.86656040  0.80422177  1  0  0.092213  0  0.93246  0  0  0.102886  0  0.990878  0  0  0.105403  0  0.988583  0  0  0.121728  0.100772  0  0.993347  0
H  H26  1  0.55809936  0.86056865  0.99002846  1  0  0.107867  0  0.942313  0  0  0.117398  0  1.004275  0  0  0.120645  0  1.002232  0  0  0.109065  0.115157  0  1.005286  0
H  H27  1  0.44190187  0.13943118  0.00997151  1  0  0.107872  0  0.942318  0  0  0.117425  0  1.00426  0  0  0.120659  0  1.002233  0  0  0.109076  0.115183  0  1.005273  0
C  C28  1  0.38709994  0.66847559  0.50432575  1  0  0.697903  0  3.865289  0  0  0.636734  0  4.169784  0  0  0.674129  0  4.157923  0  0  0.229037  0.611593  0  4.177505  0
C  C29  1  0.61290192  0.33152545  0.49567437  1  0  0.697868  0  3.865303  0  0  0.636697  0  4.169846  0  0  0.674092  0  4.157989  0  0  0.229011  0.611556  0  4.177567  0
C  C30  1  0.30629897  0.76491987  0.55016223  1  0  -0.119892  0  3.702991  0  0  -0.101503  0  3.934897  0  0  -0.110011  0  3.957414  0  0  -0.008883  -0.098597  0  3.922226  0
C  C31  1  0.69370035  0.23507874  0.44983813  1  0  -0.119747  0  3.70288  0  0  -0.101466  0  3.934924  0  0  -0.109977  0  3.957445  0  0  -0.008864  -0.098562  0  3.922246  0
C  C32  1  0.43085354  0.92262686  0.60300783  1  0  -0.070411  0  3.750634  0  0  -0.09272  0  3.997249  0  0  -0.093835  0  4.019428  0  0  -0.084645  -0.09085  0  3.983314  0
C  C33  1  0.56914576  0.07737424  0.39699037  1  0  -0.070442  0  3.750598  0  0  -0.092717  0  3.997232  0  0  -0.093834  0  4.019424  0  0  -0.084659  -0.09085  0  3.983305  0
C  C34  1  0.36272983  0.02794193  0.63441617  1  0  -0.060849  0  3.725243  0  0  -0.076395  0  3.974837  0  0  -0.079058  0  3.995791  0  0  -0.087511  -0.076926  0  3.96284  0
C  C35  1  0.63726692  0.97205676  0.36558152  1  0  -0.060916  0  3.725325  0  0  -0.076453  0  3.974887  0  0  -0.079141  0  3.995829  0  0  -0.087563  -0.076987  0  3.962895  0
C  C36  1  0.16674872  0.97728395  0.61131652  1  0  -0.03821  0  3.745822  0  0  -0.052294  0  3.995627  0  0  -0.052583  0  4.016563  0  0  -0.083447  -0.051919  0  3.980077  0
C  C37  1  0.83325188  0.02271469  0.38868256  1  0  -0.038298  0  3.745902  0  0  -0.052359  0  3.99572  0  0  -0.052648  0  4.016666  0  0  -0.083457  -0.051983  0  3.980163  0
C  C38  1  0.03935883  0.82055210  0.55892276  1  0  -0.134821  0  3.710349  0  0  -0.15668  0  3.962588  0  0  -0.160341  0  3.982849  0  0  -0.081516  -0.150973  0  3.944625  0
C  C39  1  0.96063858  0.17944535  0.44107574  1  0  -0.134758  0  3.710476  0  0  -0.156611  0  3.962688  0  0  -0.160272  0  3.982949  0  0  -0.081505  -0.150894  0  3.944704  0
C  C40  1  0.10853260  0.71262193  0.53178739  1  0  0.144622  0  3.795794  0  0  0.143344  0  4.047412  0  0  0.145383  0  4.07002  0  0  0.09295  0.142092  0  4.031346  0
C  C41  1  0.89146929  0.28737668  0.46821265  1  0  0.144505  0  3.795929  0  0  0.14327  0  4.047569  0  0  0.145308  0  4.070178  0  0  0.092939  0.142038  0  4.031474  0
C  C42  1  0.60570878  0.52356425  0.22203271  1  0  0.645543  0  3.946244  0  0  0.586726  0  4.257516  0  0  0.622213  0  4.247693  0  0  0.199827  0.56228  0  4.264096  0
C  C43  1  0.39428793  0.47643925  0.77796739  1  0  0.645521  0  3.946415  0  0  0.586688  0  4.257703  0  0  0.622174  0  4.247878  0  0  0.199841  0.562231  0  4.264301  0
C  C44  1  0.76529542  0.60844442  0.17875136  1  0  -0.100965  0  3.690519  0  0  -0.081434  0  3.921022  0  0  -0.088126  0  3.942017  0  0  -0.003522  -0.07726  0  3.906631  0
C  C45  1  0.23470514  0.39155908  0.82124788  1  0  -0.100891  0  3.69054  0  0  -0.081324  0  3.920997  0  0  -0.088019  0  3.941997  0  0  -0.003447  -0.077157  0  3.906615  0
C  C46  1  0.94771688  0.70257614  0.25002302  1  0  -0.075563  0  3.7341  0  0  -0.099063  0  3.986208  0  0  -0.099437  0  4.005842  0  0  -0.084955  -0.098391  0  3.971561  0
C  C47  1  0.05228370  0.29742491  0.74997689  1  0  -0.075596  0  3.734174  0  0  -0.099118  0  3.986298  0  0  -0.09949  0  4.005931  0  0  -0.084978  -0.098452  0  3.971659  0
C  C48  1  0.10761444  0.75887464  0.21654566  1  0  -0.060148  0  3.754223  0  0  -0.076655  0  4.006817  0  0  -0.078538  0  4.026941  0  0  -0.086657  -0.074745  0  3.991944  0
C  C49  1  0.89238808  0.24112519  0.78345452  1  0  -0.060117  0  3.754291  0  0  -0.076626  0  4.006891  0  0  -0.078509  0  4.027014  0  0  -0.08666  -0.074707  0  3.992004  0
C  C50  1  0.08818451  0.72159392  0.11068039  1  0  -0.069958  0  3.776754  0  0  -0.082606  0  4.026017  0  0  -0.083511  0  4.046384  0  0  -0.092131  -0.082058  0  4.011616  0
C  C51  1  0.91181546  0.27840349  0.88931929  1  0  -0.069887  0  3.776785  0  0  -0.082536  0  4.02605  0  0  -0.08344  0  4.046416  0  0  -0.092034  -0.08199  0  4.011646  0
C  C52  1  0.90696259  0.63070848  0.03787408  1  0  -0.125214  0  3.721415  0  0  -0.14698  0  3.974387  0  0  -0.149877  0  3.995245  0  0  -0.083461  -0.144792  0  3.960384  0
C  C53  1  0.09303480  0.36929140  0.96212451  1  0  -0.125237  0  3.721467  0  0  -0.147011  0  3.974446  0  0  -0.149908  0  3.995304  0  0  -0.083496  -0.14483  0  3.960445  0
C  C54  1  0.74558369  0.57759614  0.07067090  1  0  0.135225  0  3.800397  0  0  0.133651  0  4.052441  0  0  0.134868  0  4.075135  0  0  0.091124  0.132997  0  4.037008  0
C  C55  1  0.25441498  0.42240369  0.92932939  1  0  0.135163  0  3.800461  0  0  0.13357  0  4.05253  0  0  0.13479  0  4.075224  0  0  0.091102  0.132933  0  4.037078  0
C  C56  1  0.96756292  0.32873851  0.22591606  1  0  0.132414  0  3.697618  0  0  0.101094  0  3.94823  0  0  0.108237  0  3.968784  0  0  0.045607  0.09652  0  3.933778  0
C  C57  1  0.03243829  0.67126372  0.77408549  1  0  0.132498  0  3.697663  0  0  0.10115  0  3.948283  0  0  0.108294  0  3.968838  0  0  0.045657  0.096579  0  3.933822  0
C  C58  1  0.78660633  0.22906489  0.15767897  1  0  -0.153121  0  3.65168  0  0  -0.168095  0  3.891618  0  0  -0.177682  0  3.914279  0  0  -0.077793  -0.162834  0  3.877573  0
C  C59  1  0.21339299  0.77093374  0.84232064  1  0  -0.153131  0  3.651708  0  0  -0.168126  0  3.89166  0  0  -0.177713  0  3.91432  0  0  -0.077828  -0.162862  0  3.877613  0
C  C60  1  0.75596589  0.08552710  0.09802207  1  0  0.141971  0  3.784051  0  0  0.156072  0  4.013777  0  0  0.162123  0  4.035433  0  0  0.013138  0.152594  0  3.998974  0
C  C61  1  0.24403663  0.91447270  0.90197886  1  0  0.141978  0  3.78412  0  0  0.156125  0  4.013792  0  0  0.162178  0  4.035444  0  0  0.013178  0.152647  0  3.998986  0
C  C62  1  0.91279586  0.04789535  0.11522940  1  0  -0.162663  0  3.684805  0  0  -0.178335  0  3.930114  0  0  -0.18722  0  3.952859  0  0  -0.078557  -0.172594  0  3.914194  0
C  C63  1  0.08720728  0.95210567  0.88477168  1  0  -0.162765  0  3.684886  0  0  -0.178438  0  3.930161  0  0  -0.187317  0  3.952908  0  0  -0.078598  -0.172697  0  3.914245  0
C  C64  1  0.09075319  0.15537411  0.18383323  1  0  0.134625  0  3.704629  0  0  0.10186  0  3.955831  0  0  0.109926  0  3.973328  0  0  0.049695  0.095926  0  3.944714  0
C  C65  1  0.90924995  0.84462689  0.81616859  1  0  0.134782  0  3.704539  0  0  0.101991  0  3.955763  0  0  0.11006  0  3.973257  0  0  0.049705  0.096056  0  3.944645  0
C  C66  1  0.57283503  0.97945111  0.01952076  1  0  -0.093557  0  3.678409  0  0  -0.111115  0  3.923587  0  0  -0.113631  0  3.941891  0  0  -0.070897  -0.109289  0  3.910637  0
C  C67  1  0.42716684  0.02054991  0.98048011  1  0  -0.093623  0  3.6785  0  0  -0.111232  0  3.923686  0  0  -0.113742  0  3.942001  0  0  -0.070949  -0.109409  0  3.91074  0
N  N68  1  0.97052755  0.55300176  0.48771189  1  0  -0.12942  0  3.01849  0  0  -0.106802  0  3.306778  0  0  -0.107737  0  3.315686  0  0  -0.134537  -0.10551  0  3.299666  0
N  N69  1  0.02947179  0.44699446  0.51228690  1  0  -0.129309  0  3.018555  0  0  -0.106705  0  3.306838  0  0  -0.107638  0  3.315745  0  0  -0.13447  -0.105422  0  3.299722  0
N  N70  1  0.56829584  0.49166708  0.99084140  1  0  -0.13036  0  3.014161  0  0  -0.10853  0  3.300488  0  0  -0.10815  0  3.307288  0  0  -0.136828  -0.108211  0  3.294619  0
N  N71  1  0.43170281  0.50833521  0.00915823  1  0  -0.130326  0  3.014198  0  0  -0.108486  0  3.300531  0  0  -0.108106  0  3.30733  0  0  -0.136803  -0.108169  0  3.294655  0
N  N72  1  0.11911578  0.29528683  0.23774884  1  0  -0.354934  0  3.321599  0  0  -0.26903  0  3.60094  0  0  -0.289567  0  3.614783  0  0  -0.334112  -0.255182  0  3.591749  0
N  N73  1  0.88088352  0.70471424  0.76225085  1  0  -0.354914  0  3.321562  0  0  -0.268994  0  3.600899  0  0  -0.289532  0  3.614742  0  0  -0.334082  -0.255145  0  3.591703  0
O  O74  1  0.30024367  0.59930384  0.40815036  1  0  -0.629866  0  2.079106  0  0  -0.557879  0  2.354872  0  0  -0.586963  0  2.340987  0  0  -0.307298  -0.53819  0  2.36435  0
O  O75  1  0.69975821  0.40069477  0.59184968  1  0  -0.629852  0  2.079063  0  0  -0.557821  0  2.354774  0  0  -0.5869  0  2.340882  0  0  -0.307284  -0.538133  0  2.364248  0
O  O76  1  0.54714754  0.67428829  0.55901362  1  0  -0.661792  0  2.085093  0  0  -0.591614  0  2.37353  0  0  -0.617852  0  2.352566  0  0  -0.32881  -0.57351  0  2.387422  0
O  O77  1  0.45285495  0.32571397  0.44098665  1  0  -0.661794  0  2.085107  0  0  -0.591597  0  2.373536  0  0  -0.617839  0  2.352572  0  0  -0.328789  -0.57348  0  2.387394  0
O  O78  1  0.51518943  0.37210860  0.20041402  1  0  -0.61915  0  1.93727  0  0  -0.571368  0  2.16959  0  0  -0.596566  0  2.161131  0  0  -0.317318  -0.553444  0  2.174825  0
O  O79  1  0.48480729  0.62789486  0.79958757  1  0  -0.619172  0  1.937263  0  0  -0.571377  0  2.169552  0  0  -0.596594  0  2.161138  0  0  -0.317358  -0.553444  0  2.174785  0
O  O80  1  0.58029984  0.61226601  0.28817394  1  0  -0.639196  0  2.01587  0  0  -0.567221  0  2.287423  0  0  -0.596469  0  2.271385  0  0  -0.324286  -0.546617  0  2.297593  0
O  O81  1  0.41970003  0.38774355  0.71182616  1  0  -0.639188  0  2.016007  0  0  -0.56721  0  2.287571  0  0  -0.596451  0  2.271527  0  0  -0.324287  -0.54659  0  2.297716  0
