# generated using pymatgen
data_AlH12C16(NO3)5
_symmetry_space_group_name_H-M   'P 1'
_cell_length_a   7.06907897
_cell_length_b   20.44251807
_cell_length_c   23.39151758
_cell_angle_alpha   89.99997879
_cell_angle_beta   90.00087460
_cell_angle_gamma   89.99950536
_symmetry_Int_Tables_number   1
_chemical_formula_structural   AlH12C16(NO3)5
_chemical_formula_sum   'Al4 H48 C64 N20 O60'
_cell_volume   3380.30292971
_cell_formula_units_Z   4
loop_
 _symmetry_equiv_pos_site_id
 _symmetry_equiv_pos_as_xyz
  1  'x, y, z'
loop_
 _atom_site_type_symbol
 _atom_site_label
 _atom_site_symmetry_multiplicity
 _atom_site_fract_x
 _atom_site_fract_y
 _atom_site_fract_z
 _atom_site_occupancy
 _atom_site_pbe_bader_charge
 _atom_site_pbe_bader_spin_density
 _atom_site_pbe_cm5_charge
 _atom_site_pbe_ddec_charge
 _atom_site_pbe_ddec_spin_density
 _atom_site_pbe_ddec_sum_bond_order
 _atom_site_pbe_magmom
Al  Al0  1  0.02234308  0.75049601  0.50006494  1  2.510012  0  0.423275  1.645008  0  2.533898  0
Al  Al1  1  0.47767209  0.24949925  0.00006449  1  2.509882  0  0.423203  1.645096  0  2.533753  0
Al  Al2  1  0.52234459  0.74950019  0.49993115  1  2.510003  0  0.423165  1.645031  0  2.533946  0
Al  Al3  1  0.97767081  0.25050006  0.99993081  1  2.510052  0  0.423222  1.644859  0  2.534149  0
H  H4  1  0.58545556  0.60982656  0.76896214  1  0.208171  0  0.143595  0.130037  0  0.996775  0
H  H5  1  0.91452703  0.39017524  0.26896528  1  0.208104  0  0.143607  0.130047  0  0.996743  0
H  H6  1  0.08547487  0.89017946  0.23103331  1  0.20819  0  0.143631  0.130111  0  0.99665  0
H  H7  1  0.41452926  0.10982109  0.73103195  1  0.208145  0  0.143617  0.130053  0  0.99674  0
H  H8  1  0.43298998  0.47685855  0.78257025  1  0.12624  0  0.134906  0.112192  0  1.019479  0
H  H9  1  0.06699897  0.52314149  0.28257211  1  0.126348  0  0.134919  0.112184  0  1.019533  0
H  H10  1  0.93300040  0.02314709  0.21742319  1  0.125841  0  0.134929  0.112255  0  1.019474  0
H  H11  1  0.56699736  0.97685474  0.71742413  1  0.126325  0  0.134933  0.112241  0  1.019555  0
H  H12  1  0.92312291  0.47075037  0.67926871  1  0.114937  0  0.114614  0.095196  0  0.98143  0
H  H13  1  0.57685833  0.52925392  0.17927189  1  0.114755  0  0.114598  0.095223  0  0.981474  0
H  H14  1  0.42312940  0.02925624  0.32072982  1  0.114841  0  0.114557  0.095213  0  0.981436  0
H  H15  1  0.07687184  0.97074525  0.82072567  1  0.114915  0  0.114626  0.095284  0  0.981391  0
H  H16  1  0.05126062  0.54340603  0.72788650  1  0.145989  0  0.131121  0.113504  0  1.037571  0
H  H17  1  0.44872492  0.45659110  0.22788802  1  0.14591  0  0.131129  0.113473  0  1.037472  0
H  H18  1  0.55127051  0.95659508  0.27211397  1  0.146008  0  0.131129  0.113402  0  1.037634  0
H  H19  1  0.94873491  0.04340721  0.77211147  1  0.145793  0  0.131131  0.113481  0  1.037598  0
H  H20  1  0.57180168  0.41223594  0.73001171  1  0.103646  0  0.136143  0.117036  0  0.951517  0
H  H21  1  0.92819262  0.58776148  0.23001568  1  0.103625  0  0.136145  0.117085  0  0.951593  0
H  H22  1  0.07179897  0.08776313  0.26998388  1  0.1036  0  0.136158  0.117117  0  0.951602  0
H  H23  1  0.42819768  0.91223398  0.76998227  1  0.103512  0  0.136151  0.117081  0  0.951594  0
H  H24  1  0.12561790  0.44080273  0.76241156  1  0.108504  0  0.099791  0.152039  0  1.029129  0
H  H25  1  0.20536018  0.48676382  0.82295115  1  0.04757  0  0.099155  0.132457  0  1.06255  0
H  H26  1  0.06514614  0.41682669  0.83357528  1  0.102924  0  0.108838  0.168711  0  0.979061  0
H  H27  1  0.37437969  0.55919781  0.26241235  1  0.108467  0  0.099792  0.152053  0  1.029105  0
H  H28  1  0.29463129  0.51322985  0.32294783  1  0.047352  0  0.099182  0.132428  0  1.062411  0
H  H29  1  0.43484175  0.58316844  0.33357842  1  0.102989  0  0.10883  0.168739  0  0.979101  0
H  H30  1  0.62561771  0.05919832  0.23758935  1  0.108467  0  0.099761  0.151993  0  1.029153  0
H  H31  1  0.70536863  0.01322751  0.17705645  1  0.047313  0  0.099179  0.132406  0  1.062447  0
H  H32  1  0.56516707  0.08316748  0.16642285  1  0.103045  0  0.108843  0.168777  0  0.97911  0
H  H33  1  0.87438414  0.94080251  0.73758583  1  0.108553  0  0.099773  0.152039  0  1.02927  0
H  H34  1  0.79462945  0.98677385  0.67705477  1  0.047553  0  0.099184  0.132379  0  1.062491  0
H  H35  1  0.93482327  0.91683338  0.66642040  1  0.103059  0  0.108867  0.168817  0  0.979079  0
H  H36  1  0.70719061  0.41306662  0.61758273  1  0.035289  0  0.104337  0.147911  0  0.968908  0
H  H37  1  0.51396942  0.46449614  0.63601043  1  0.04728  0  0.092659  0.134796  0  1.020746  0
H  H38  1  0.71137637  0.49663314  0.59791491  1  0.069057  0  0.099153  0.143804  0  0.99346  0
H  H39  1  0.79278535  0.58693671  0.11758537  1  0.035317  0  0.104322  0.147916  0  0.968902  0
H  H40  1  0.98601053  0.53550914  0.13601718  1  0.047408  0  0.092663  0.134853  0  1.020664  0
H  H41  1  0.78861393  0.50336971  0.09791927  1  0.06916  0  0.099129  0.143813  0  0.993461  0
H  H42  1  0.20719921  0.08693449  0.38241846  1  0.035173  0  0.104315  0.147891  0  0.96909  0
H  H43  1  0.01397685  0.03551220  0.36398239  1  0.047324  0  0.092631  0.134813  0  1.020696  0
H  H44  1  0.21136814  0.00336650  0.40208117  1  0.069191  0  0.099096  0.143758  0  0.993436  0
H  H45  1  0.29279315  0.91306210  0.88241467  1  0.0353  0  0.104319  0.147895  0  0.96903  0
H  H46  1  0.48602850  0.96448341  0.86398139  1  0.047227  0  0.092648  0.134813  0  1.020624  0
H  H47  1  0.28863817  0.99662959  0.90207775  1  0.069313  0  0.099088  0.143794  0  0.99352  0
H  H48  1  0.27033249  0.66322601  0.49936129  1  0.594165  0  0.347462  0.430723  0  0.849969  0
H  H49  1  0.22969687  0.33677199  0.99936560  1  0.594075  0  0.34747  0.430522  0  0.850218  0
H  H50  1  0.77033210  0.83677033  0.50063867  1  0.594258  0  0.347424  0.430592  0  0.850129  0
H  H51  1  0.72969740  0.16322912  0.00062926  1  0.594082  0  0.347463  0.430587  0  0.850135  0
C  C52  1  0.27347524  0.82331097  0.57788203  1  1.697113  0  0.288853  0.730695  0  4.123327  0
C  C53  1  0.22652781  0.17669257  0.07788245  1  1.696969  0  0.288861  0.730709  0  4.123507  0
C  C54  1  0.77349569  0.67669173  0.42211280  1  1.696793  0  0.288895  0.730723  0  4.123309  0
C  C55  1  0.72651344  0.32331002  0.92211198  1  1.697069  0  0.288859  0.730588  0  4.12342  0
C  C56  1  0.27338266  0.82743182  0.42531904  1  1.69817  0  0.287871  0.732678  0  4.130803  0
C  C57  1  0.22661096  0.17256181  0.92532041  1  1.698901  0  0.288141  0.73305  0  4.130596  0
C  C58  1  0.77341144  0.67256159  0.57467751  1  1.698642  0  0.288  0.732992  0  4.130639  0
C  C59  1  0.72662267  0.32743442  0.07467573  1  1.698218  0  0.288017  0.73281  0  4.130827  0
C  C60  1  0.92531134  0.55428165  0.75355546  1  0.19205  0  0.010168  -0.126788  0  3.679455  0
C  C61  1  0.57467170  0.44571380  0.25355823  1  0.19207  0  0.010164  -0.126527  0  3.679484  0
C  C62  1  0.42532149  0.94571430  0.24644419  1  0.19207  0  0.010142  -0.126556  0  3.679437  0
C  C63  1  0.07467793  0.05428282  0.74643993  1  0.19203  0  0.010191  -0.126645  0  3.679524  0
C  C64  1  0.57491884  0.56133988  0.74936871  1  0.192721  0  0.010339  -0.095535  0  3.735955  0
C  C65  1  0.92507243  0.43865900  0.24936930  1  0.1933  0  0.010404  -0.09537  0  3.735678  0
C  C66  1  0.07492256  0.93866369  0.25062842  1  0.193409  0  0.010287  -0.095716  0  3.736283  0
C  C67  1  0.42509127  0.06133783  0.75062540  1  0.193274  0  0.010369  -0.09549  0  3.735886  0
C  C68  1  0.55322438  0.50800397  0.79406437  1  0.162516  0  0.005051  -0.095752  0  3.731143  0
C  C69  1  0.94677675  0.49199538  0.29407014  1  0.162589  0  0.005004  -0.095851  0  3.731089  0
C  C70  1  0.05322098  0.99199763  0.20592798  1  0.162993  0  0.005078  -0.095903  0  3.731326  0
C  C71  1  0.44677592  0.00799755  0.70592762  1  0.162127  0  0.005112  -0.09574  0  3.731045  0
C  C72  1  0.72417520  0.36931903  0.87544291  1  -0.247311  0  -0.011714  -0.124671  0  3.881763  0
C  C73  1  0.77581545  0.63068469  0.37544248  1  -0.247782  0  -0.011698  -0.12473  0  3.881977  0
C  C74  1  0.22419500  0.13068355  0.12455407  1  -0.247861  0  -0.011723  -0.124776  0  3.881782  0
C  C75  1  0.27582086  0.86932046  0.62455023  1  -0.247876  0  -0.011715  -0.124641  0  3.881992  0
C  C76  1  0.75474484  0.54909047  0.71234663  1  0.095619  0  0.016962  0.105434  0  3.843812  0
C  C77  1  0.74523705  0.45091527  0.21234915  1  0.095785  0  0.016928  0.105152  0  3.843673  0
C  C78  1  0.25475586  0.95091614  0.28764942  1  0.095845  0  0.016922  0.105303  0  3.843629  0
C  C79  1  0.24524614  0.04908145  0.78764919  1  0.096095  0  0.016841  0.105158  0  3.843887  0
C  C80  1  0.91770793  0.50271656  0.80283186  1  0.187146  0  0.085027  0.123936  0  3.630255  0
C  C81  1  0.58228244  0.49727985  0.30283122  1  0.187163  0  0.085021  0.12394  0  3.630258  0
C  C82  1  0.41771642  0.99728623  0.19716946  1  0.187077  0  0.08516  0.124114  0  3.630081  0
C  C83  1  0.08227710  0.00271580  0.69716654  1  0.187227  0  0.085132  0.124075  0  3.629973  0
C  C84  1  0.72883699  0.46210752  0.79621718  1  0.123664  0  0.024143  0.079487  0  3.810411  0
C  C85  1  0.77116004  0.53789428  0.29621761  1  0.123747  0  0.024169  0.079543  0  3.810262  0
C  C86  1  0.22883570  0.03789751  0.20378153  1  0.123412  0  0.024119  0.079455  0  3.81023  0
C  C87  1  0.27116814  0.96210060  0.70378063  1  0.124065  0  0.024113  0.07955  0  3.81035  0
C  C88  1  0.71752755  0.42978030  0.73481114  1  0.190648  0  0.017482  -0.065112  0  3.647037  0
C  C89  1  0.78246564  0.57021565  0.23481460  1  0.190666  0  0.017341  -0.06544  0  3.647587  0
C  C90  1  0.21751984  0.07022277  0.26518496  1  0.19046  0  0.017338  -0.06538  0  3.647378  0
C  C91  1  0.28248359  0.92978217  0.76518326  1  0.190501  0  0.017293  -0.06529  0  3.647238  0
C  C92  1  0.77110742  0.47762619  0.68759668  1  -0.009031  0  -0.078717  -0.016223  0  3.813161  0
C  C93  1  0.72887575  0.52237858  0.18759868  1  -0.009054  0  -0.07873  -0.016314  0  3.813831  0
C  C94  1  0.27111518  0.02238180  0.31240175  1  -0.008913  0  -0.078627  -0.016265  0  3.813156  0
C  C95  1  0.22888695  0.97761921  0.81239814  1  -0.008998  0  -0.078569  -0.016256  0  3.813373  0
C  C96  1  0.71555510  0.41238125  0.83997319  1  0.061356  0  -0.035761  -0.060185  0  4.071946  0
C  C97  1  0.78444041  0.58761858  0.33997665  1  0.062116  0  -0.035799  -0.060122  0  4.071937  0
C  C98  1  0.21556533  0.08762182  0.16002418  1  0.062401  0  -0.035767  -0.06006  0  4.071791  0
C  C99  1  0.28443719  0.91238022  0.66001993  1  0.061882  0  -0.035859  -0.06037  0  4.072089  0
C  C100  1  0.77002982  0.59524331  0.66569854  1  0.089745  0  -0.023561  -0.033792  0  4.034447  0
C  C101  1  0.72996330  0.40475511  0.16569888  1  0.090398  0  -0.023534  -0.033625  0  4.034398  0
C  C102  1  0.27003214  0.90475842  0.33430055  1  0.089554  0  -0.023539  -0.0337  0  4.033975  0
C  C103  1  0.22997135  0.09523916  0.83429854  1  0.089635  0  -0.023512  -0.033687  0  4.03397  0
C  C104  1  0.77330946  0.62971803  0.62356746  1  -0.288616  0  -0.019177  -0.152785  0  3.900155  0
C  C105  1  0.72670649  0.37027845  0.12357250  1  -0.289145  0  -0.019251  -0.152863  0  3.900381  0
C  C106  1  0.27329650  0.87027881  0.37642908  1  -0.288209  0  -0.019219  -0.152788  0  3.900063  0
C  C107  1  0.22669831  0.12971582  0.87643175  1  -0.288747  0  -0.019298  -0.152901  0  3.899973  0
C  C108  1  0.08925475  0.45847960  0.80512141  1  -0.10212  0  -0.257092  -0.469103  0  3.921277  0
C  C109  1  0.41074834  0.54151946  0.30512106  1  -0.102088  0  -0.257111  -0.469151  0  3.921296  0
C  C110  1  0.58925427  0.04152046  0.19487937  1  -0.10202  0  -0.257132  -0.469159  0  3.921301  0
C  C111  1  0.91074350  0.95847991  0.69487768  1  -0.102413  0  -0.257133  -0.469149  0  3.921436  0
C  C112  1  0.66812379  0.46254143  0.63163219  1  -0.051593  0  -0.241904  -0.395989  0  3.895358  0
C  C113  1  0.83185447  0.53745994  0.13163455  1  -0.051713  0  -0.241877  -0.396024  0  3.895442  0
C  C114  1  0.16812714  0.03746405  0.36836673  1  -0.05166  0  -0.241785  -0.395879  0  3.895294  0
C  C115  1  0.33187283  0.96253742  0.86836519  1  -0.051725  0  -0.241878  -0.395971  0  3.895303  0
N  N116  1  0.90725488  0.53725975  0.86290276  1  0.495259  0  0.055671  0.471647  0  4.135083  0
N  N117  1  0.59274489  0.46273566  0.36290260  1  0.49514  0  0.05574  0.47158  0  4.135226  0
N  N118  1  0.40726293  0.96273961  0.13709853  1  0.495254  0  0.055668  0.471546  0  4.135052  0
N  N119  1  0.09273392  0.03726049  0.63709392  1  0.49507  0  0.055696  0.471547  0  4.134975  0
N  N120  1  0.96611025  0.62458220  0.77318144  1  0.49145  0  0.049208  0.513168  0  4.198351  0
N  N121  1  0.53390089  0.37541521  0.27317810  1  0.489935  0  0.048995  0.512934  0  4.19891  0
N  N122  1  0.46610323  0.87541720  0.22682220  1  0.489879  0  0.049133  0.513082  0  4.198803  0
N  N123  1  0.03389639  0.12458384  0.72682034  1  0.489978  0  0.049203  0.513283  0  4.198656  0
N  N124  1  0.40194590  0.56603886  0.71105280  1  0.442693  0  0.051637  0.527476  0  4.120951  0
N  N125  1  0.09803576  0.43395876  0.21105566  1  0.442059  0  0.051621  0.527389  0  4.121031  0
N  N126  1  0.90196232  0.93396245  0.28893992  1  0.441872  0  0.051646  0.527458  0  4.121222  0
N  N127  1  0.59804698  0.06603886  0.78894088  1  0.442234  0  0.05155  0.527326  0  4.12127  0
N  N128  1  0.48839661  0.53653173  0.85241574  1  0.491461  0  0.041091  0.492867  0  4.212947  0
N  N129  1  0.01160661  0.46346926  0.35241700  1  0.491168  0  0.041158  0.493081  0  4.212813  0
N  N130  1  0.98840966  0.96347599  0.14757985  1  0.490107  0  0.041365  0.49344  0  4.212226  0
N  N131  1  0.51160071  0.03652586  0.64758051  1  0.490121  0  0.041352  0.493403  0  4.212211  0
N  N132  1  0.83023831  0.36524278  0.72923754  1  0.476292  0  0.055862  0.52237  0  4.129907  0
N  N133  1  0.66977009  0.63476197  0.22924357  1  0.476916  0  0.056119  0.522715  0  4.129751  0
N  N134  1  0.33021609  0.13476475  0.27076067  1  0.477074  0  0.055981  0.522604  0  4.129614  0
N  N135  1  0.16977778  0.86523285  0.77075432  1  0.477403  0  0.055954  0.522244  0  4.129742  0
O  O136  1  0.43553778  0.81090797  0.44408810  1  -1.23015  0  -0.222613  -0.58292  0  2.279579  0
O  O137  1  0.06447823  0.18908320  0.94408889  1  -1.230425  0  -0.222609  -0.582909  0  2.279739  0
O  O138  1  0.93552912  0.68907868  0.55590432  1  -1.230559  0  -0.22261  -0.582916  0  2.280062  0
O  O139  1  0.56447978  0.31091586  0.05590454  1  -1.230276  0  -0.22264  -0.582946  0  2.279589  0
O  O140  1  0.11012569  0.80717300  0.55973714  1  -1.23174  0  -0.222731  -0.581645  0  2.272713  0
O  O141  1  0.38990452  0.19282468  0.05973555  1  -1.231911  0  -0.222791  -0.58181  0  2.272483  0
O  O142  1  0.61010819  0.69282473  0.44026311  1  -1.231504  0  -0.222813  -0.581811  0  2.271994  0
O  O143  1  0.88988368  0.30717359  0.94025987  1  -1.23169  0  -0.222732  -0.581604  0  2.272462  0
O  O144  1  0.11069346  0.81179769  0.44429401  1  -1.224941  0  -0.221958  -0.580538  0  2.275902  0
O  O145  1  0.38931973  0.18819838  0.94429167  1  -1.224855  0  -0.222184  -0.580857  0  2.275585  0
O  O146  1  0.61068908  0.68820492  0.55570453  1  -1.224806  0  -0.222086  -0.580831  0  2.275314  0
O  O147  1  0.88933112  0.31179990  0.05570247  1  -1.224715  0  -0.222004  -0.58057  0  2.275926  0
O  O148  1  0.93538957  0.69411918  0.44033251  1  -1.23178  0  -0.21994  -0.576129  0  2.277939  0
O  O149  1  0.56460372  0.30588061  0.94033369  1  -1.231706  0  -0.220016  -0.576213  0  2.277523  0
O  O150  1  0.43539865  0.80588411  0.55965691  1  -1.231738  0  -0.220022  -0.576283  0  2.277349  0
O  O151  1  0.06461741  0.19412042  0.05965931  1  -1.231624  0  -0.219969  -0.576143  0  2.277693  0
O  O152  1  0.27189856  0.71066831  0.49858579  1  -1.398076  0  -0.451961  -0.988875  0  2.07193  0
O  O153  1  0.22811802  0.28933019  0.99858071  1  -1.397907  0  -0.45201  -0.988638  0  2.072186  0
O  O154  1  0.77189232  0.78932853  0.50141631  1  -1.398119  0  -0.451943  -0.988733  0  2.072072  0
O  O155  1  0.72812025  0.21067142  0.00141372  1  -1.397926  0  -0.451963  -0.988742  0  2.072181  0
O  O156  1  0.99058594  0.51100811  0.90268742  1  -0.403368  0  -0.089645  -0.256448  0  1.938644  0
O  O157  1  0.81155936  0.58771583  0.86575533  1  -0.438129  0  -0.106012  -0.300001  0  2.034641  0
O  O158  1  0.50940924  0.48898387  0.40268738  1  -0.403127  0  -0.089566  -0.256315  0  1.938705  0
O  O159  1  0.68845049  0.41228349  0.36575295  1  -0.438276  0  -0.106148  -0.300089  0  2.034785  0
O  O160  1  0.49059148  0.98898934  0.09731374  1  -0.403273  0  -0.089632  -0.256396  0  1.93874  0
O  O161  1  0.31156576  0.91228690  0.13424392  1  -0.43815  0  -0.106036  -0.299983  0  2.03452  0
O  O162  1  0.00940288  0.01101321  0.59731055  1  -0.403173  0  -0.089633  -0.256368  0  1.938737  0
O  O163  1  0.18843798  0.08771565  0.63424347  1  -0.438198  0  -0.106084  -0.300064  0  2.034508  0
O  O164  1  0.11772878  0.63101070  0.79854982  1  -0.43445  0  -0.116294  -0.302777  0  2.001611  0
O  O165  1  0.85577743  0.66853957  0.76007477  1  -0.421546  0  -0.09054  -0.269852  0  1.954746  0
O  O166  1  0.38228805  0.36897857  0.29854943  1  -0.434268  0  -0.116173  -0.302667  0  2.001581  0
O  O167  1  0.64423572  0.33146175  0.26006928  1  -0.420344  0  -0.090415  -0.269731  0  1.955205  0
O  O168  1  0.61772632  0.86898409  0.20145344  1  -0.434316  0  -0.116209  -0.302679  0  2.00151  0
O  O169  1  0.35577081  0.83146368  0.23992890  1  -0.420144  0  -0.090519  -0.269857  0  1.955067  0
O  O170  1  0.88227610  0.13101725  0.70145068  1  -0.434393  0  -0.11622  -0.302724  0  2.001585  0
O  O171  1  0.14423246  0.16853736  0.73992785  1  -0.42017  0  -0.090585  -0.269975  0  1.955023  0
O  O172  1  0.36240401  0.62001704  0.69185388  1  -0.381376  0  -0.076397  -0.253302  0  1.911519  0
O  O173  1  0.31374596  0.51440479  0.70065145  1  -0.509139  0  -0.127194  -0.341748  0  2.004764  0
O  O174  1  0.13758352  0.37997863  0.19186289  1  -0.38126  0  -0.076363  -0.253264  0  1.911914  0
O  O175  1  0.18623221  0.48559284  0.20065118  1  -0.508888  0  -0.127247  -0.34177  0  2.004378  0
O  O176  1  0.86241469  0.87998229  0.30813400  1  -0.381175  0  -0.076416  -0.253378  0  1.911966  0
O  O177  1  0.81375879  0.98559403  0.29934652  1  -0.509001  0  -0.127204  -0.341613  0  2.004576  0
O  O178  1  0.63759863  0.12002145  0.80813123  1  -0.381368  0  -0.076349  -0.253304  0  1.911917  0
O  O179  1  0.68625257  0.01440679  0.79934567  1  -0.509052  0  -0.127207  -0.341651  0  2.004592  0
O  O180  1  0.42598242  0.59248568  0.85241049  1  -0.396347  0  -0.092371  -0.260735  0  2.003465  0
O  O181  1  0.49235418  0.49861370  0.89331947  1  -0.440359  0  -0.109566  -0.290776  0  1.955825  0
O  O182  1  0.07403918  0.40751482  0.35240814  1  -0.396413  0  -0.092469  -0.260846  0  2.003303  0
O  O183  1  0.00764452  0.50138386  0.39332070  1  -0.440427  0  -0.109523  -0.290789  0  1.955754  0
O  O184  1  0.92596176  0.90752298  0.14758702  1  -0.395988  0  -0.092578  -0.261006  0  2.002814  0
O  O185  1  0.99238576  0.00138611  0.10667460  1  -0.439818  0  -0.109635  -0.290957  0  1.955615  0
O  O186  1  0.57404013  0.09247985  0.64758660  1  -0.396147  0  -0.09259  -0.261025  0  2.002982  0
O  O187  1  0.50762631  0.99861576  0.60667490  1  -0.439707  0  -0.109656  -0.290999  0  1.955577  0
O  O188  1  0.98627766  0.36649072  0.70535565  1  -0.454173  0  -0.117461  -0.310433  0  1.918108  0
O  O189  1  0.75098947  0.31644984  0.74845506  1  -0.407705  0  -0.101645  -0.290926  0  1.902306  0
O  O190  1  0.51372925  0.63351796  0.20535985  1  -0.454717  0  -0.117543  -0.310543  0  1.917916  0
O  O191  1  0.74903428  0.68354952  0.24846605  1  -0.407796  0  -0.101705  -0.291018  0  1.902477  0
O  O192  1  0.48626549  0.13352033  0.29463798  1  -0.454542  0  -0.117432  -0.310432  0  1.917728  0
O  O193  1  0.25093650  0.18355471  0.25154074  1  -0.408007  0  -0.101723  -0.291086  0  1.902447  0
O  O194  1  0.01373694  0.86647971  0.79463664  1  -0.454609  0  -0.117462  -0.310382  0  1.917868  0
O  O195  1  0.24904910  0.81644534  0.75153297  1  -0.40819  0  -0.101602  -0.290788  0  1.902453  0
