# generated using pymatgen
data_SmH16C16N10ClO6
_symmetry_space_group_name_H-M   'P 1'
_cell_length_a   8.72456926
_cell_length_b   11.09678790
_cell_length_c   13.00278749
_cell_angle_alpha   115.22113353
_cell_angle_beta   105.61187531
_cell_angle_gamma   90.01749391
_symmetry_Int_Tables_number   1
_chemical_formula_structural   SmH16C16N10ClO6
_chemical_formula_sum   'Sm2 H32 C32 N20 Cl2 O12'
_cell_volume   1087.24508782
_cell_formula_units_Z   2
loop_
 _symmetry_equiv_pos_site_id
 _symmetry_equiv_pos_as_xyz
  1  'x, y, z'
loop_
 _atom_site_type_symbol
 _atom_site_label
 _atom_site_symmetry_multiplicity
 _atom_site_fract_x
 _atom_site_fract_y
 _atom_site_fract_z
 _atom_site_occupancy
 _atom_site_hle17_bader_spin_density
 _atom_site_hle17_ddec_charge
 _atom_site_hle17_ddec_spin_density
 _atom_site_hle17_ddec_sum_bond_order
 _atom_site_hle17_magmom
 _atom_site_hse06_10hf_bader_spin_density
 _atom_site_hse06_10hf_ddec_charge
 _atom_site_hse06_10hf_ddec_spin_density
 _atom_site_hse06_10hf_ddec_sum_bond_order
 _atom_site_hse06_10hf_magmom
 _atom_site_hse06_bader_spin_density
 _atom_site_hse06_ddec_charge
 _atom_site_hse06_ddec_spin_density
 _atom_site_hse06_ddec_sum_bond_order
 _atom_site_hse06_magmom
 _atom_site_pbe_bader_spin_density
 _atom_site_pbe_cm5_charge
 _atom_site_pbe_ddec_charge
 _atom_site_pbe_ddec_spin_density
 _atom_site_pbe_ddec_sum_bond_order
 _atom_site_pbe_magmom
Sm  Sm0  1  0.74991830  0.55413629  0.00000737  1  0  2.290978  0  1.573217  0  0  2.146299  0  2.019627  0  0  2.250256  0  1.865572  0  0  1.394609  2.112022  0  2.052523  0
Sm  Sm1  1  0.25008225  0.44586361  0.99999228  1  0  2.290975  0  1.57322  0  0  2.146294  0  2.019634  0  0  2.250255  0  1.865574  0  0  1.394608  2.112018  0  2.052528  0
H  H2  1  0.02806391  0.46639256  0.69361969  1  0  0.140762  0  0.88804  0  0  0.154905  0  0.941192  0  0  0.157508  0  0.939325  0  0  0.14024  0.15307  0  0.942521  0
H  H3  1  0.47195444  0.77288131  0.30631293  1  0  0.141868  0  0.888162  0  0  0.155642  0  0.941324  0  0  0.158248  0  0.93945  0  0  0.140344  0.153798  0  0.942589  0
H  H4  1  0.97193529  0.53360633  0.30638011  1  0  0.140762  0  0.887996  0  0  0.154908  0  0.941151  0  0  0.157511  0  0.939283  0  0  0.140256  0.153064  0  0.942476  0
H  H5  1  0.52804508  0.22711960  0.69368690  1  0  0.141869  0  0.888182  0  0  0.15564  0  0.94135  0  0  0.158247  0  0.939476  0  0  0.140342  0.153796  0  0.942616  0
H  H6  1  0.97185386  0.29485083  0.65342150  1  0  0.149257  0  0.91017  0  0  0.155225  0  0.97656  0  0  0.15889  0  0.973157  0  0  0.134229  0.152719  0  0.978863  0
H  H7  1  0.52835251  0.64170081  0.34669450  1  0  0.149733  0  0.910123  0  0  0.155669  0  0.97627  0  0  0.159249  0  0.972967  0  0  0.134262  0.15315  0  0.978543  0
H  H8  1  0.02814653  0.70514806  0.34657851  1  0  0.14924  0  0.910193  0  0  0.155211  0  0.976577  0  0  0.158874  0  0.973176  0  0  0.134221  0.152697  0  0.978877  0
H  H9  1  0.47164581  0.35830010  0.65330588  1  0  0.149735  0  0.910126  0  0  0.155682  0  0.976248  0  0  0.159262  0  0.972945  0  0  0.134257  0.153163  0  0.978527  0
H  H10  1  0.38277990  0.37030030  0.26216718  1  0  0.097352  0  0.949868  0  0  0.101722  0  1.020718  0  0  0.105435  0  1.017012  0  0  0.121635  0.098986  0  1.023593  0
H  H11  1  0.11743464  0.10833552  0.73793335  1  0  0.098344  0  0.949375  0  0  0.102294  0  1.020654  0  0  0.106003  0  1.016963  0  0  0.121767  0.099568  0  1.023483  0
H  H12  1  0.61721962  0.62970060  0.73783342  1  0  0.097356  0  0.949897  0  0  0.101704  0  1.020747  0  0  0.105416  0  1.01704  0  0  0.121631  0.098968  0  1.023619  0
H  H13  1  0.88256607  0.89166539  0.26206747  1  0  0.098344  0  0.949376  0  0  0.102293  0  1.020663  0  0  0.106002  0  1.016971  0  0  0.121769  0.099568  0  1.02349  0
H  H14  1  0.09977407  0.99953488  0.07277792  1  0  0.07299  0  0.939171  0  0  0.082675  0  1.003158  0  0  0.085383  0  1.000585  0  0  0.111909  0.080691  0  1.005004  0
H  H15  1  0.40030432  0.92666936  0.92722180  1  0  0.073414  0  0.938915  0  0  0.083256  0  1.002606  0  0  0.085994  0  1.00001  0  0  0.111883  0.081245  0  1.004483  0
H  H16  1  0.90022649  0.00046503  0.92722097  1  0  0.073037  0  0.939187  0  0  0.082724  0  1.003157  0  0  0.085431  0  1.000585  0  0  0.111931  0.080738  0  1.005008  0
H  H17  1  0.59969504  0.07333055  0.07277764  1  0  0.073406  0  0.938923  0  0  0.083249  0  1.002615  0  0  0.085987  0  1.000018  0  0  0.111873  0.081238  0  1.004492  0
H  H18  1  0.49580136  0.06319595  0.38113949  1  0  0.101584  0  0.966361  0  0  0.100403  0  1.048964  0  0  0.104004  0  1.045382  0  0  0.105572  0.097673  0  1.051722  0
H  H19  1  0.00424474  0.68233419  0.61881114  1  0  0.101309  0  0.965833  0  0  0.100289  0  1.048361  0  0  0.103901  0  1.044745  0  0  0.105471  0.097569  0  1.051113  0
H  H20  1  0.50419920  0.93680395  0.61886016  1  0  0.101599  0  0.966358  0  0  0.100411  0  1.048951  0  0  0.104011  0  1.04537  0  0  0.105591  0.097681  0  1.051708  0
H  H21  1  0.99575597  0.31766672  0.38118814  1  0  0.101325  0  0.965813  0  0  0.100307  0  1.048336  0  0  0.103919  0  1.04472  0  0  0.105491  0.097586  0  1.051089  0
H  H22  1  0.01816282  0.72123014  0.00280412  1  0  0.416074  0  0.891862  0  0  0.389259  0  0.950505  0  0  0.399323  0  0.936128  0  0  0.269559  0.382163  0  0.960772  0
H  H23  1  0.48179888  0.71842090  0.99714122  1  0  0.415692  0  0.892509  0  0  0.38867  0  0.951488  0  0  0.39873  0  0.937126  0  0  0.269439  0.381558  0  0.96178  0
H  H24  1  0.98183638  0.27876876  0.99719491  1  0  0.416078  0  0.891857  0  0  0.389262  0  0.950502  0  0  0.399325  0  0.936125  0  0  0.269559  0.382165  0  0.96077  0
H  H25  1  0.51820048  0.28157899  0.00285898  1  0  0.415703  0  0.892499  0  0  0.388698  0  0.95146  0  0  0.398758  0  0.937098  0  0  0.269441  0.381585  0  0.961755  0
H  H26  1  0.85483549  0.76357974  0.93711337  1  0  0.387453  0  0.937195  0  0  0.343813  0  1.021395  0  0  0.35596  0  1.004652  0  0  0.280588  0.335261  0  1.033305  0
H  H27  1  0.64511678  0.82641455  0.06279506  1  0  0.387351  0  0.937272  0  0  0.343862  0  1.021217  0  0  0.356025  0  1.004456  0  0  0.280716  0.335303  0  1.033132  0
H  H28  1  0.14516506  0.23642016  0.06288628  1  0  0.387487  0  0.937142  0  0  0.343821  0  1.021385  0  0  0.355967  0  1.004643  0  0  0.280586  0.335268  0  1.033296  0
H  H29  1  0.35488377  0.17358534  0.93720536  1  0  0.38735  0  0.937273  0  0  0.34386  0  1.021219  0  0  0.356023  0  1.004458  0  0  0.280715  0.335301  0  1.033136  0
H  H30  1  0.25752813  0.91236552  0.21048977  1  0  0.111243  0  0.950697  0  0  0.121184  0  1.007201  0  0  0.12462  0  1.005695  0  0  0.102701  0.118832  0  1.008128  0
H  H31  1  0.24248912  0.70191359  0.78941233  1  0  0.110809  0  0.951331  0  0  0.121125  0  1.007398  0  0  0.124547  0  1.005903  0  0  0.102836  0.118778  0  1.008341  0
H  H32  1  0.74247361  0.08763438  0.78950934  1  0  0.11127  0  0.950668  0  0  0.121233  0  1.007133  0  0  0.12467  0  1.005624  0  0  0.102713  0.118881  0  1.008062  0
H  H33  1  0.75751144  0.29808631  0.21058656  1  0  0.110803  0  0.95136  0  0  0.121113  0  1.00743  0  0  0.124535  0  1.005934  0  0  0.102838  0.118766  0  1.008373  0
C  C34  1  0.28976808  0.01470263  0.22610355  1  0  -0.11663  0  3.751344  0  0  -0.127505  0  4.005678  0  0  -0.134876  0  4.028023  0  0  -0.088006  -0.12281  0  3.990319  0
C  C35  1  0.21029185  0.78868399  0.77384974  1  0  -0.114098  0  3.751075  0  0  -0.12531  0  4.005279  0  0  -0.132659  0  4.027619  0  0  -0.087163  -0.120623  0  3.989925  0
C  C36  1  0.71023486  0.98529728  0.77389500  1  0  -0.116613  0  3.751312  0  0  -0.127504  0  4.00563  0  0  -0.134874  0  4.027974  0  0  -0.087983  -0.12281  0  3.990273  0
C  C37  1  0.78970767  0.21131691  0.22615086  1  0  -0.114086  0  3.751065  0  0  -0.125285  0  4.005256  0  0  -0.132635  0  4.027598  0  0  -0.087154  -0.120597  0  3.989902  0
C  C38  1  0.87609266  0.43470604  0.78809287  1  0  0.730674  0  3.847048  0  0  0.685633  0  4.14404  0  0  0.719276  0  4.13989  0  0  0.226374  0.662662  0  4.150296  0
C  C39  1  0.62411968  0.64693868  0.21198074  1  0  0.730749  0  3.850149  0  0  0.686478  0  4.145326  0  0  0.720136  0  4.141188  0  0  0.226122  0.663439  0  4.151603  0
C  C40  1  0.12390756  0.56529184  0.21190675  1  0  0.730744  0  3.846864  0  0  0.685667  0  4.143932  0  0  0.719309  0  4.139783  0  0  0.226338  0.662686  0  4.150186  0
C  C41  1  0.37587968  0.35306122  0.78801870  1  0  0.730868  0  3.849949  0  0  0.686598  0  4.145122  0  0  0.720258  0  4.140983  0  0  0.226155  0.663561  0  4.151405  0
C  C42  1  0.92874982  0.39300557  0.67631140  1  0  -0.203233  0  3.579185  0  0  -0.259578  0  3.827515  0  0  -0.260847  0  3.830238  0  0  -0.032735  -0.258513  0  3.825072  0
C  C43  1  0.57138524  0.71696717  0.32370363  1  0  -0.206198  0  3.583402  0  0  -0.262107  0  3.831113  0  0  -0.263255  0  3.833692  0  0  -0.032783  -0.260948  0  3.828577  0
C  C44  1  0.07125057  0.60699333  0.32368785  1  0  -0.203206  0  3.579114  0  0  -0.259542  0  3.827458  0  0  -0.26081  0  3.83018  0  0  -0.03274  -0.258438  0  3.824968  0
C  C45  1  0.42861310  0.28303374  0.67629599  1  0  -0.206256  0  3.583419  0  0  -0.262178  0  3.831164  0  0  -0.263329  0  3.833746  0  0  -0.032789  -0.261005  0  3.828591  0
C  C46  1  0.59517236  0.31700534  0.43074689  1  0  0.253046  0  3.809015  0  0  0.232531  0  4.086273  0  0  0.240614  0  4.104017  0  0  0.220746  0.227269  0  4.074177  0
C  C47  1  0.90486079  0.88667094  0.56928381  1  0  0.252755  0  3.80767  0  0  0.232976  0  4.08409  0  0  0.240992  0  4.101933  0  0  0.221108  0.22777  0  4.07189  0
C  C48  1  0.40482565  0.68299356  0.56925193  1  0  0.253026  0  3.809057  0  0  0.232527  0  4.086301  0  0  0.24061  0  4.104046  0  0  0.220769  0.227264  0  4.074203  0
C  C49  1  0.09513873  0.11332997  0.43071679  1  0  0.252752  0  3.807664  0  0  0.232971  0  4.084097  0  0  0.240989  0  4.101938  0  0  0.22108  0.227765  0  4.071901  0
C  C50  1  0.45604825  0.22877351  0.33522845  1  0  -0.040637  0  3.788162  0  0  -0.017297  0  4.020179  0  0  -0.023786  0  4.044962  0  0  0.000826  -0.0133  0  4.003406  0
C  C51  1  0.04397843  0.89383411  0.66481641  1  0  -0.038895  0  3.785795  0  0  -0.015686  0  4.017462  0  0  -0.022114  0  4.042233  0  0  0.000696  -0.011721  0  4.000697  0
C  C52  1  0.54395111  0.77122640  0.66477099  1  0  -0.040581  0  3.788233  0  0  -0.017262  0  4.020234  0  0  -0.023751  0  4.045018  0  0  0.000822  -0.013266  0  4.003459  0
C  C53  1  0.95602228  0.10616680  0.33518441  1  0  -0.038948  0  3.785826  0  0  -0.015748  0  4.017511  0  0  -0.022176  0  4.04228  0  0  0.000718  -0.011784  0  4.000748  0
C  C54  1  0.35940373  0.26968189  0.25407660  1  0  0.108971  0  3.647807  0  0  0.065062  0  3.904383  0  0  0.07127  0  3.920269  0  0  0.057198  0.061214  0  3.89344  0
C  C55  1  0.14069615  0.01577199  0.74598409  1  0  0.107267  0  3.648447  0  0  0.063639  0  3.904951  0  0  0.069814  0  3.920843  0  0  0.057173  0.059799  0  3.894012  0
C  C56  1  0.64059444  0.73031802  0.74592185  1  0  0.108902  0  3.647864  0  0  0.065049  0  3.904432  0  0  0.071258  0  3.920319  0  0  0.057196  0.061201  0  3.893491  0
C  C57  1  0.85930440  0.98422791  0.25401556  1  0  0.107301  0  3.648438  0  0  0.063673  0  3.904949  0  0  0.069849  0  3.92084  0  0  0.057171  0.059833  0  3.894012  0
C  C58  1  0.20105052  0.06321322  0.14878296  1  0  0.125416  0  3.71276  0  0  0.089476  0  3.972882  0  0  0.096053  0  3.99052  0  0  0.047407  0.085399  0  3.960577  0
C  C59  1  0.29902668  0.91441984  0.85121821  1  0  0.122702  0  3.713542  0  0  0.086844  0  3.973752  0  0  0.093368  0  3.991454  0  0  0.046102  0.082801  0  3.961399  0
C  C60  1  0.79895241  0.93678667  0.85121713  1  0  0.125296  0  3.71283  0  0  0.089366  0  3.972971  0  0  0.095942  0  3.99061  0  0  0.047348  0.085287  0  3.960666  0
C  C61  1  0.70097388  0.08558007  0.14878067  1  0  0.12272  0  3.713523  0  0  0.086859  0  3.973735  0  0  0.093384  0  3.991438  0  0  0.046118  0.082817  0  3.961381  0
C  C62  1  0.42004518  0.09797399  0.32025057  1  0  -0.031504  0  3.67688  0  0  -0.061683  0  3.926584  0  0  -0.059136  0  3.946281  0  0  -0.065466  -0.062849  0  3.913016  0
C  C63  1  0.08001276  0.77794429  0.67971937  1  0  -0.031796  0  3.675291  0  0  -0.062369  0  3.925464  0  0  -0.059862  0  3.94522  0  0  -0.06505  -0.063514  0  3.91185  0
C  C64  1  0.57995640  0.90202490  0.67974890  1  0  -0.031548  0  3.676883  0  0  -0.06171  0  3.926596  0  0  -0.059163  0  3.946293  0  0  -0.065495  -0.062876  0  3.913026  0
C  C65  1  0.91998780  0.22205562  0.32027951  1  0  -0.031781  0  3.675274  0  0  -0.06235  0  3.925442  0  0  -0.059845  0  3.945205  0  0  -0.065063  -0.063494  0  3.911828  0
N  N66  1  0.68483341  0.28233320  0.51288649  1  0  -0.285827  0  2.813904  0  0  -0.27555  0  3.083173  0  0  -0.282053  0  3.095888  0  0  -0.189266  -0.27125  0  3.07512  0
N  N67  1  0.81528215  0.76986022  0.48718552  1  0  -0.285904  0  2.812394  0  0  -0.275888  0  3.081808  0  0  -0.282392  0  3.094552  0  0  -0.189367  -0.271598  0  3.073771  0
N  N68  1  0.31516714  0.71766669  0.48711393  1  0  -0.285825  0  2.813899  0  0  -0.275552  0  3.083157  0  0  -0.282055  0  3.095873  0  0  -0.189276  -0.271252  0  3.075108  0
N  N69  1  0.18471841  0.23013968  0.51281337  1  0  -0.28589  0  2.812325  0  0  -0.275877  0  3.081751  0  0  -0.282382  0  3.094494  0  0  -0.18936  -0.271589  0  3.073715  0
N  N70  1  0.80099796  0.38517635  0.57517481  1  0  0.242929  0  3.560438  0  0  0.291212  0  3.839477  0  0  0.287707  0  3.861032  0  0  -0.005234  0.293536  0  3.824633  0
N  N71  1  0.69907031  0.81032751  0.42482575  1  0  0.243932  0  3.559611  0  0  0.291918  0  3.838859  0  0  0.288429  0  3.860415  0  0  -0.005005  0.294159  0  3.824047  0
N  N72  1  0.19900259  0.61482355  0.42482485  1  0  0.242903  0  3.560282  0  0  0.29119  0  3.839323  0  0  0.287682  0  3.860882  0  0  -0.005253  0.293504  0  3.824474  0
N  N73  1  0.30092921  0.18967339  0.57517485  1  0  0.243971  0  3.559466  0  0  0.291959  0  3.838712  0  0  0.28847  0  3.860268  0  0  -0.004991  0.294202  0  3.823905  0
N  N74  1  0.78686544  0.48079358  0.53724653  1  0  -0.100746  0  2.844837  0  0  -0.097861  0  3.137183  0  0  -0.094391  0  3.145711  0  0  -0.065072  -0.099935  0  3.131759  0
N  N75  1  0.71308410  0.94381079  0.46267554  1  0  -0.100944  0  2.846567  0  0  -0.097985  0  3.139186  0  0  -0.094538  0  3.147759  0  0  -0.065409  -0.100055  0  3.133781  0
N  N76  1  0.21313646  0.51920731  0.46275527  1  0  -0.100698  0  2.844712  0  0  -0.097807  0  3.137045  0  0  -0.094337  0  3.145573  0  0  -0.065015  -0.099882  0  3.131625  0
N  N77  1  0.28691526  0.05618911  0.53732466  1  0  -0.100929  0  2.846537  0  0  -0.097962  0  3.139137  0  0  -0.094515  0  3.147712  0  0  -0.065381  -0.100035  0  3.133734  0
N  N78  1  0.65638458  0.43854020  0.44521355  1  0  -0.260571  0  2.911927  0  0  -0.251458  0  3.208073  0  0  -0.258356  0  3.217747  0  0  -0.195979  -0.246824  0  3.201874  0
N  N79  1  0.84354731  0.99364406  0.55472628  1  0  -0.260958  0  2.91382  0  0  -0.252094  0  3.210015  0  0  -0.258975  0  3.219743  0  0  -0.196002  -0.24747  0  3.203769  0
N  N80  1  0.34361612  0.56146070  0.55478726  1  0  -0.260588  0  2.911978  0  0  -0.251486  0  3.208125  0  0  -0.258384  0  3.2178  0  0  -0.196013  -0.246853  0  3.201927  0
N  N81  1  0.15645340  0.00635685  0.44527377  1  0  -0.26097  0  2.913838  0  0  -0.252105  0  3.210028  0  0  -0.258986  0  3.219756  0  0  -0.196016  -0.247481  0  3.203784  0
N  N82  1  0.23502115  0.18815754  0.16251008  1  0  -0.300555  0  3.195372  0  0  -0.232184  0  3.44306  0  0  -0.246592  0  3.4588  0  0  -0.302818  -0.222321  0  3.431971  0
N  N83  1  0.26508773  0.02567784  0.83752949  1  0  -0.299658  0  3.195468  0  0  -0.231611  0  3.443209  0  0  -0.246026  0  3.458987  0  0  -0.302716  -0.221736  0  3.432088  0
N  N84  1  0.76497821  0.81184237  0.83748936  1  0  -0.300441  0  3.195359  0  0  -0.232118  0  3.443045  0  0  -0.246527  0  3.458787  0  0  -0.302791  -0.222254  0  3.431956  0
N  N85  1  0.73491044  0.97432206  0.16247050  1  0  -0.299707  0  3.195461  0  0  -0.231659  0  3.443213  0  0  -0.246073  0  3.45899  0  0  -0.302755  -0.221784  0  3.432092  0
Cl  Cl86  1  0.75002841  0.30568322  0.00006829  1  0  -0.683192  0  0.867895  0  0  -0.638184  0  1.096877  0  0  -0.660266  0  1.068082  0  0  -0.286664  -0.627984  0  1.109885  0
Cl  Cl87  1  0.24997214  0.69431668  0.99993136  1  0  -0.683184  0  0.8679  0  0  -0.638168  0  1.096873  0  0  -0.660251  0  1.068078  0  0  -0.28666  -0.627968  0  1.109879  0
O  O88  1  0.97484011  0.43399128  0.87980287  1  0  -0.798438  0  2.126213  0  0  -0.743311  0  2.383649  0  0  -0.781605  0  2.374255  0  0  -0.397338  -0.724683  0  2.389373  0
O  O89  1  0.52539714  0.55450608  0.12027859  1  0  -0.798584  0  2.124388  0  0  -0.743926  0  2.381708  0  0  -0.782258  0  2.372275  0  0  -0.397562  -0.725276  0  2.387427  0
O  O90  1  0.02515893  0.56600660  0.12019653  1  0  -0.79848  0  2.126121  0  0  -0.743347  0  2.383594  0  0  -0.781643  0  2.3742  0  0  -0.397299  -0.72472  0  2.389324  0
O  O91  1  0.47460237  0.44549482  0.87972277  1  0  -0.798619  0  2.124298  0  0  -0.743964  0  2.381626  0  0  -0.782288  0  2.372171  0  0  -0.397557  -0.725314  0  2.387343  0
O  O92  1  0.73818856  0.47000810  0.78776017  1  0  -0.69182  0  2.004303  0  0  -0.644604  0  2.250574  0  0  -0.675291  0  2.240716  0  0  -0.365551  -0.627625  0  2.256389  0
O  O93  1  0.76207357  0.68249117  0.21233593  1  0  -0.691215  0  2.007955  0  0  -0.644241  0  2.253958  0  0  -0.674881  0  2.244048  0  0  -0.364967  -0.627306  0  2.259879  0
O  O94  1  0.26181182  0.52999079  0.21223985  1  0  -0.691848  0  2.004232  0  0  -0.644627  0  2.250539  0  0  -0.67531  0  2.240676  0  0  -0.365556  -0.627647  0  2.256359  0
O  O95  1  0.23792460  0.31750873  0.78766329  1  0  -0.691274  0  2.00787  0  0  -0.6443  0  2.253875  0  0  -0.674941  0  2.243964  0  0  -0.364998  -0.627367  0  2.259796  0
O  O96  1  0.90477219  0.73087365  0.00095310  1  0  -0.911741  0  1.92115  0  0  -0.855962  0  2.123549  0  0  -0.883951  0  2.089019  0  0  -0.66576  -0.841184  0  2.144758  0
O  O97  1  0.59519479  0.72992251  0.99897075  1  0  -0.911552  0  1.921561  0  0  -0.855701  0  2.124158  0  0  -0.883661  0  2.089529  0  0  -0.665621  -0.840942  0  2.145491  0
O  O98  1  0.09522835  0.26912625  0.99904732  1  0  -0.91174  0  1.921131  0  0  -0.855952  0  2.123549  0  0  -0.883942  0  2.089024  0  0  -0.665747  -0.841173  0  2.144759  0
O  O99  1  0.40480575  0.27007738  0.00102967  1  0  -0.911567  0  1.921587  0  0  -0.855734  0  2.124145  0  0  -0.883694  0  2.089515  0  0  -0.665621  -0.840975  0  2.145479  0
