# generated using pymatgen
data_ZnH7C15(NO2)2
_symmetry_space_group_name_H-M   'P 1'
_cell_length_a   9.78731958
_cell_length_b   11.02355357
_cell_length_c   16.10456599
_cell_angle_alpha   92.44995747
_cell_angle_beta   89.91795164
_cell_angle_gamma   88.91351795
_symmetry_Int_Tables_number   1
_chemical_formula_structural   ZnH7C15(NO2)2
_chemical_formula_sum   'Zn2 H14 C30 N4 O8'
_cell_volume   1735.63370917
_cell_formula_units_Z   2
loop_
 _symmetry_equiv_pos_site_id
 _symmetry_equiv_pos_as_xyz
  1  'x, y, z'
loop_
 _atom_site_type_symbol
 _atom_site_label
 _atom_site_symmetry_multiplicity
 _atom_site_fract_x
 _atom_site_fract_y
 _atom_site_fract_z
 _atom_site_occupancy
 _atom_site_pbe_bader_charge
 _atom_site_pbe_bader_spin_density
 _atom_site_pbe_cm5_charge
 _atom_site_pbe_ddec_charge
 _atom_site_pbe_ddec_spin_density
 _atom_site_pbe_ddec_sum_bond_order
 _atom_site_pbe_magmom
Zn  Zn0  1  0.63625912  0.48964445  0.49227449  1  1.288405  0  0.670137  0.825479  0  2.41226  0
Zn  Zn1  1  0.35218105  0.49640127  0.49650507  1  1.293587  0  0.670195  0.817021  0  2.436209  0
H  H2  1  0.72513409  0.53804851  0.92607683  1  0.081123  0  0.107873  0.109937  0  0.986389  0
H  H3  1  0.83570224  0.09441368  0.51633600  1  0.073786  0  0.10486  0.121796  0  0.974287  0
H  H4  1  0.84778656  0.47546034  0.68108179  1  0.122234  0  0.11343  0.142016  0  0.97444  0
H  H5  1  0.11884548  0.32842348  0.64849488  1  0.087686  0  0.117108  0.140538  0  0.955518  0
H  H6  1  0.71771070  0.51342714  0.07927504  1  0.09496  0  0.114566  0.12224  0  0.978707  0
H  H7  1  0.28871513  0.49336333  0.91369829  1  0.075897  0  0.108588  0.110891  0  0.986275  0
H  H8  1  0.29106434  0.88816639  0.44421668  1  0.078269  0  0.109555  0.11993  0  0.991476  0
H  H9  1  0.76743650  0.09162212  0.61968515  1  0.067582  0  0.10101  0.110809  0  0.985091  0
H  H10  1  0.13248918  0.56006080  0.37473690  1  0.203968  0  0.146234  0.140957  0  0.958947  0
H  H11  1  0.85922295  0.32324315  0.63931939  1  0.098407  0  0.112295  0.134384  0  0.97463  0
H  H12  1  0.10860488  0.48086254  0.69009389  1  0.090113  0  0.116305  0.142108  0  0.960892  0
H  H13  1  0.28146457  0.46879666  0.06671113  1  0.092054  0  0.112728  0.117059  0  0.978666  0
H  H14  1  0.29543113  0.11362575  0.45617524  1  0.129005  0  0.106115  0.112659  0  0.994477  0
H  H15  1  0.75322362  0.86845880  0.60987427  1  0.106513  0  0.125104  0.116384  0  0.928546  0
C  C16  1  0.50123901  0.25916004  0.50843402  1  1.525251  0  0.214869  0.599009  0  4.178647  0
C  C17  1  0.62842454  0.52247016  0.95716775  1  -0.046597  0  -0.078093  -0.119173  0  3.960034  0
C  C18  1  0.49443402  0.47352552  0.16949494  1  -0.384597  0  -0.025552  -0.043974  0  4.082608  0
C  C19  1  0.50961632  0.52590428  0.82218159  1  -0.352114  0  -0.034932  -0.053475  0  4.11638  0
C  C20  1  0.50504907  0.53020480  0.74665654  1  0.106693  0  -0.05443  -0.201212  0  3.987907  0
C  C21  1  0.48843174  0.46235250  0.24431998  1  0.146344  0  -0.040103  -0.172594  0  3.951379  0
C  C22  1  0.61484884  0.05177670  0.52034536  1  -0.048187  0  -0.003588  0.064562  0  3.910545  0
C  C23  1  0.50150925  0.12376372  0.50128831  1  0.102453  0  -0.011625  -0.069843  0  3.959909  0
C  C24  1  0.38566519  0.06044983  0.47257670  1  -0.062632  0  -0.078393  -0.08986  0  3.963906  0
C  C25  1  0.38361416  0.93375801  0.46505383  1  -0.004277  0  -0.077403  -0.095207  0  3.952688  0
C  C26  1  0.49878620  0.86193333  0.48457442  1  0.039415  0  -0.004539  -0.048111  0  3.963656  0
C  C27  1  0.49946622  0.52603368  0.65697587  1  1.612554  0  0.216434  0.663658  0  4.252968  0
C  C28  1  0.61295297  0.92570077  0.51142349  1  -0.080536  0  -0.001212  0.018644  0  3.879954  0
C  C29  1  0.75535501  0.90966196  0.54878948  1  0.065417  0  -0.044454  -0.044055  0  3.907774  0
C  C30  1  0.75814073  0.05453305  0.55558820  1  0.014274  0  -0.136266  -0.219624  0  3.840858  0
C  C31  1  0.06242870  0.46300884  0.55643288  1  0.550367  0  0.154305  0.205625  0  3.853029  0
C  C32  1  0.07197114  0.53120136  0.42688174  1  0.535783  0  0.093822  0.04833  0  3.77683  0
C  C33  1  0.92841646  0.52866873  0.42191108  1  0.619915  0  0.159564  0.177199  0  3.985854  0
C  C34  1  0.92023519  0.46036770  0.55152622  1  0.58799  0  0.148764  0.202304  0  3.870071  0
C  C35  1  0.90430814  0.41354469  0.63772764  1  -0.062122  0  -0.137005  -0.22811  0  3.812167  0
C  C36  1  0.06660088  0.41676594  0.64321366  1  -0.020608  0  -0.134067  -0.228688  0  3.819863  0
C  C37  1  0.49633740  0.72665448  0.48097730  1  1.584437  0  0.218805  0.600529  0  4.177142  0
C  C38  1  0.48215130  0.46152993  0.33370009  1  1.643627  0  0.221698  0.67151  0  4.23099  0
C  C39  1  0.62459013  0.50843149  0.04236387  1  0.0448  0  -0.071564  -0.110978  0  3.931666  0
C  C40  1  0.49937339  0.48803958  0.08269769  1  0.029055  0  0.009136  0.138088  0  4.094935  0
C  C41  1  0.37810371  0.48349297  0.03535517  1  0.02553  0  -0.075815  -0.117472  0  3.954031  0
C  C42  1  0.38220139  0.49727850  0.95028312  1  -0.02109  0  -0.078078  -0.117481  0  3.962446  0
C  C43  1  0.50749442  0.51624807  0.90957502  1  0.029819  0  0.000164  0.126879  0  4.112951  0
C  C44  1  0.86743219  0.56610399  0.34637057  1  0.850495  0  0.194493  0.218553  0  3.964802  0
C  C45  1  0.86311715  0.85008110  0.49935275  1  0.858059  0  0.181748  0.278949  0  3.971971  0
N  N46  1  0.14137212  0.49741436  0.49492399  1  -1.223774  0  -0.281432  -0.167944  0  3.456459  0
N  N47  1  0.84879427  0.49185118  0.48565648  1  -1.17932  0  -0.271067  -0.212225  0  3.396735  0
N  N48  1  0.82975673  0.59692089  0.28175215  1  -1.040025  0  -0.268519  -0.287936  0  2.650153  0
N  N49  1  0.95385036  0.80526916  0.46144435  1  -1.17608  0  -0.326651  -0.407456  0  2.778543  0
O  O50  1  0.61600646  0.30981725  0.52129766  1  -1.163593  0  -0.318549  -0.545857  0  2.281202  0
O  O51  1  0.38645560  0.31375418  0.49994299  1  -1.171928  0  -0.318791  -0.5518  0  2.335656  0
O  O52  1  0.61288607  0.53459890  0.61868224  1  -1.157533  0  -0.314385  -0.551076  0  2.275803  0
O  O53  1  0.38180028  0.51248631  0.62433359  1  -1.142923  0  -0.31314  -0.542668  0  2.256065  0
O  O54  1  0.61165017  0.67144618  0.47339876  1  -1.158164  0  -0.312733  -0.544565  0  2.320974  0
O  O55  1  0.38044261  0.67783922  0.48789353  1  -1.156257  0  -0.312274  -0.534251  0  2.320491  0
O  O56  1  0.59430955  0.44186184  0.37153107  1  -1.14414  0  -0.312814  -0.545548  0  2.296155  0
O  O57  1  0.36561092  0.48222779  0.36729725  1  -1.159371  0  -0.312432  -0.546863  0  2.263227  0
