# generated using pymatgen
data_AgH7C16(NO)4
_symmetry_space_group_name_H-M   'P 1'
_cell_length_a   7.59642314
_cell_length_b   9.48688920
_cell_length_c   10.38682371
_cell_angle_alpha   63.52951313
_cell_angle_beta   80.33590960
_cell_angle_gamma   89.41131908
_symmetry_Int_Tables_number   1
_chemical_formula_structural   AgH7C16(NO)4
_chemical_formula_sum   'Ag2 H14 C32 N8 O8'
_cell_volume   658.78854525
_cell_formula_units_Z   2
loop_
 _symmetry_equiv_pos_site_id
 _symmetry_equiv_pos_as_xyz
  1  'x, y, z'
loop_
 _atom_site_type_symbol
 _atom_site_label
 _atom_site_symmetry_multiplicity
 _atom_site_fract_x
 _atom_site_fract_y
 _atom_site_fract_z
 _atom_site_occupancy
 _atom_site_pbe_bader_charge
 _atom_site_pbe_bader_spin_density
 _atom_site_pbe_cm5_charge
 _atom_site_pbe_ddec_charge
 _atom_site_pbe_ddec_spin_density
 _atom_site_pbe_ddec_sum_bond_order
 _atom_site_pbe_magmom
Ag  Ag0  1  0.45423926  0.31978263  0.38656993  1  0.623532  0  0.45129  0.423778  0  1.663861  0
Ag  Ag1  1  0.54576403  0.68022905  0.61342832  1  0.623482  0  0.451285  0.423773  0  1.663842  0
H  H2  1  0.95326663  0.77458448  0.37860110  1  0.658793  0  0.296633  0.346785  0  1.003115  0
H  H3  1  0.04673499  0.22540596  0.62139687  1  0.658852  0  0.296614  0.346792  0  1.003121  0
H  H4  1  0.57813001  0.00282089  0.37485726  1  0.144169  0  0.11717  0.092445  0  1.028435  0
H  H5  1  0.42186925  0.99718366  0.62514811  1  0.144435  0  0.117157  0.092466  0  1.028394  0
H  H6  1  0.76950101  0.91360145  0.21077320  1  0.079713  0  0.1109  0.121394  0  1.020097  0
H  H7  1  0.23049478  0.08639993  0.78923054  1  0.079671  0  0.110895  0.121366  0  1.020127  0
H  H8  1  0.92522573  0.12082299  0.96077101  1  0.120424  0  0.113355  0.115203  0  1.007284  0
H  H9  1  0.07476620  0.87917822  0.03923170  1  0.120313  0  0.113382  0.115262  0  1.007258  0
H  H10  1  0.80727380  0.88982682  0.78679658  1  0.179224  0  0.11181  0.119703  0  1.041208  0
H  H11  1  0.19272957  0.11016867  0.21320472  1  0.179228  0  0.111811  0.119686  0  1.041248  0
H  H12  1  0.61747687  0.95148888  0.97410395  1  0.060468  0  0.105702  0.107515  0  1.024282  0
H  H13  1  0.38253451  0.04851229  0.02589170  1  0.060507  0  0.105681  0.107437  0  1.024239  0
H  H14  1  0.47157840  0.72459342  0.21458527  1  0.160339  0  0.120424  0.109928  0  0.999043  0
H  H15  1  0.52843938  0.27541200  0.78542047  1  0.160237  0  0.12043  0.109971  0  0.999058  0
C  C16  1  0.64783827  0.08877088  0.26794966  1  0.532407  0  0.065202  0.126866  0  3.893888  0
C  C17  1  0.35215179  0.91122907  0.73205908  1  0.532399  0  0.06528  0.12693  0  3.893802  0
C  C18  1  0.75567716  0.03932920  0.17445138  1  0.008602  0  -0.077109  -0.112151  0  3.931013  0
C  C19  1  0.24431624  0.96067340  0.82554876  1  0.008529  0  -0.077117  -0.112179  0  3.931083  0
C  C20  1  0.84082524  0.15179534  0.03870525  1  -0.066731  0  -0.060095  -0.058041  0  3.922468  0
C  C21  1  0.15916789  0.84820670  0.96129783  1  -0.066727  0  -0.060148  -0.058072  0  3.922455  0
C  C22  1  0.81778753  0.31228775  0.99860763  1  0.024859  0  -0.000908  -0.026177  0  3.972731  0
C  C23  1  0.18221253  0.68771369  0.00139368  1  0.024902  0  -0.00088  -0.026128  0  3.972559  0
C  C24  1  0.70587022  0.35248150  0.09916009  1  0.469935  0  0.11799  0.125458  0  3.96038  0
C  C25  1  0.29412824  0.64752019  0.90084336  1  0.46996  0  0.117972  0.125457  0  3.960249  0
C  C26  1  0.68120994  0.51863109  0.06157171  1  0.519103  0  0.115184  0.125669  0  3.993634  0
C  C27  1  0.31879304  0.48136929  0.93842827  1  0.519228  0  0.115198  0.125641  0  3.993769  0
C  C28  1  0.76749295  0.63793364  0.92466850  1  0.019453  0  -0.003943  -0.037241  0  3.992542  0
C  C29  1  0.23250750  0.36206577  0.07533126  1  0.019008  0  -0.00395  -0.037267  0  3.992508  0
C  C30  1  0.74296231  0.79662545  0.89207004  1  -0.010093  0  -0.057765  -0.041842  0  3.89928  0
C  C31  1  0.25703760  0.20336974  0.10792677  1  -0.009644  0  -0.057756  -0.041791  0  3.899367  0
C  C32  1  0.63728855  0.82979551  0.99564732  1  -0.066357  0  -0.082967  -0.125429  0  3.967245  0
C  C33  1  0.36271031  0.17020797  0.00435076  1  -0.066469  0  -0.082939  -0.125334  0  3.967372  0
C  C34  1  0.55628685  0.70473740  0.12916827  1  0.487865  0  0.055089  0.10568  0  3.931696  0
C  C35  1  0.44371987  0.29526384  0.87083326  1  0.488006  0  0.055102  0.105656  0  3.931659  0
C  C36  1  0.90800247  0.43570892  0.85903188  1  0.497428  0  0.121821  0.123576  0  4.000363  0
C  C37  1  0.09199797  0.56428953  0.14096884  1  0.497303  0  0.121789  0.123497  0  4.000417  0
C  C38  1  0.88133658  0.59614145  0.82241369  1  0.554713  0  0.122195  0.122108  0  4.036235  0
C  C39  1  0.11866641  0.40385893  0.17758629  1  0.554704  0  0.12219  0.122154  0  4.036247  0
C  C40  1  0.10168028  0.51190110  0.64071119  1  0.555915  0  0.11981  0.043219  0  3.970916  0
C  C41  1  0.89831417  0.48809607  0.35928482  1  0.556217  0  0.11986  0.0433  0  3.971152  0
C  C42  1  0.07080976  0.67281085  0.60281762  1  0.589736  0  0.133016  0.054831  0  3.963115  0
C  C43  1  0.92919456  0.32719064  0.39718127  1  0.589728  0  0.13301  0.054894  0  3.963181  0
C  C44  1  0.23310825  0.47203973  0.53789476  1  1.58786  0  0.197653  0.524562  0  4.236451  0
C  C45  1  0.76688620  0.52795649  0.46210220  1  1.586967  0  0.197704  0.524584  0  4.236417  0
C  C46  1  0.15478205  0.81046438  0.45908404  1  1.611951  0  0.23769  0.584268  0  4.11614  0
C  C47  1  0.84521386  0.18953036  0.54091320  1  1.611973  0  0.237657  0.58409  0  4.116512  0
N  N48  1  0.62217080  0.24045010  0.23129834  1  -1.191896  0  -0.323608  -0.237015  0  3.542777  0
N  N49  1  0.37782513  0.75955157  0.76870394  1  -1.191907  0  -0.323633  -0.237076  0  3.542722  0
N  N50  1  0.57731700  0.55374095  0.16079105  1  -1.209815  0  -0.32463  -0.272237  0  3.510241  0
N  N51  1  0.42268799  0.44626313  0.83921123  1  -1.209898  0  -0.324658  -0.272246  0  3.510355  0
N  N52  1  0.01927975  0.39616069  0.76667556  1  -1.170279  0  -0.282746  -0.23834  0  3.306996  0
N  N53  1  0.98071044  0.60383643  0.23332287  1  -1.17023  0  -0.282822  -0.23845  0  3.307123  0
N  N54  1  0.96256130  0.71319625  0.69326337  1  -1.178724  0  -0.287926  -0.254979  0  3.306971  0
N  N55  1  0.03744981  0.28680436  0.30673522  1  -1.178665  0  -0.287874  -0.254996  0  3.306828  0
O  O56  1  0.33553858  0.58285806  0.43862178  1  -1.14663  0  -0.290802  -0.502313  0  2.241271  0
O  O57  1  0.66445200  0.41713798  0.56137415  1  -1.146204  0  -0.290821  -0.502352  0  2.241265  0
O  O58  1  0.23108767  0.32679029  0.55864555  1  -1.137885  0  -0.318669  -0.518955  0  2.376309  0
O  O59  1  0.76891290  0.67320462  0.44135751  1  -1.137813  0  -0.318695  -0.518963  0  2.376291  0
O  O60  1  0.28624274  0.89110574  0.44916412  1  -1.138738  0  -0.277862  -0.483615  0  2.197415  0
O  O61  1  0.71376360  0.10889824  0.55082632  1  -1.138784  0  -0.277805  -0.483486  0  2.197735  0
O  O62  1  0.06884022  0.84588028  0.34828467  1  -1.169334  0  -0.3239  -0.464636  0  2.327895  0
O  O63  1  0.93115808  0.15411420  0.65171522  1  -1.169315  0  -0.323925  -0.464634  0  2.327922  0
