# generated using pymatgen
data_HgH11C9SBr2
_symmetry_space_group_name_H-M   'P 1'
_cell_length_a   7.81120188
_cell_length_b   8.74765195
_cell_length_c   9.62284235
_cell_angle_alpha   68.98401434
_cell_angle_beta   74.21429395
_cell_angle_gamma   89.48874075
_symmetry_Int_Tables_number   1
_chemical_formula_structural   HgH11C9SBr2
_chemical_formula_sum   'Hg2 H22 C18 S2 Br4'
_cell_volume   587.75635482
_cell_formula_units_Z   2
loop_
 _symmetry_equiv_pos_site_id
 _symmetry_equiv_pos_as_xyz
  1  'x, y, z'
loop_
 _atom_site_type_symbol
 _atom_site_label
 _atom_site_symmetry_multiplicity
 _atom_site_fract_x
 _atom_site_fract_y
 _atom_site_fract_z
 _atom_site_occupancy
 _atom_site_hle17_bader_spin_density
 _atom_site_hle17_ddec_charge
 _atom_site_hle17_ddec_spin_density
 _atom_site_hle17_ddec_sum_bond_order
 _atom_site_hle17_magmom
 _atom_site_hse06_10hf_bader_spin_density
 _atom_site_hse06_10hf_ddec_charge
 _atom_site_hse06_10hf_ddec_spin_density
 _atom_site_hse06_10hf_ddec_sum_bond_order
 _atom_site_hse06_10hf_magmom
 _atom_site_hse06_bader_spin_density
 _atom_site_hse06_ddec_charge
 _atom_site_hse06_ddec_spin_density
 _atom_site_hse06_ddec_sum_bond_order
 _atom_site_hse06_magmom
 _atom_site_pbe_bader_spin_density
 _atom_site_pbe_cm5_charge
 _atom_site_pbe_ddec_charge
 _atom_site_pbe_ddec_spin_density
 _atom_site_pbe_ddec_sum_bond_order
 _atom_site_pbe_magmom
Hg  Hg0  1  0.72501519  0.98334452  0.55424459  1  0  0.527921  0  2.192256  0  0  0.405656  0  2.694773  0  0  0.448568  0  2.666987  0  0  0.374998  0.376829  0  2.713431  0
Hg  Hg1  1  0.27498277  0.01665564  0.44574800  1  0  0.527893  0  2.192361  0  0  0.405635  0  2.694899  0  0  0.448541  0  2.667124  0  0  0.374977  0.376802  0  2.713574  0
H  H2  1  0.45293112  0.32886612  0.56244230  1  0  0.088667  0  0.970549  0  0  0.095437  0  1.041884  0  0  0.097797  0  1.041866  0  0  0.08822  0.093614  0  1.042256  0
H  H3  1  0.54706159  0.67112156  0.43756683  1  0  0.088862  0  0.970594  0  0  0.095562  0  1.042004  0  0  0.09792  0  1.041985  0  0  0.088297  0.093739  0  1.042377  0
H  H4  1  0.14422591  0.40392704  0.63649367  1  0  0.08079  0  0.977216  0  0  0.089175  0  1.044906  0  0  0.092118  0  1.043447  0  0  0.085016  0.086467  0  1.047145  0
H  H5  1  0.85577333  0.59604588  0.36353022  1  0  0.080726  0  0.976915  0  0  0.089052  0  1.044683  0  0  0.091997  0  1.043226  0  0  0.084931  0.086345  0  1.046917  0
H  H6  1  0.02555854  0.44918071  0.88547579  1  0  0.079068  0  0.96599  0  0  0.090212  0  1.030769  0  0  0.092641  0  1.02951  0  0  0.09233  0.08853  0  1.031586  0
H  H7  1  0.97443842  0.55082539  0.11453382  1  0  0.079144  0  0.966157  0  0  0.090299  0  1.030877  0  0  0.09272  0  1.029635  0  0  0.092361  0.088615  0  1.031697  0
H  H8  1  0.21694149  0.41055226  0.06374124  1  0  0.078203  0  0.984475  0  0  0.085126  0  1.055401  0  0  0.088281  0  1.05329  0  0  0.084751  0.08218  0  1.058187  0
H  H9  1  0.78307042  0.58947132  0.93625336  1  0  0.078182  0  0.984497  0  0  0.085182  0  1.055337  0  0  0.088336  0  1.053228  0  0  0.084802  0.082232  0  1.058125  0
H  H10  1  0.52624304  0.33813080  0.98794815  1  0  0.090543  0  0.95615  0  0  0.101715  0  1.019698  0  0  0.104292  0  1.019138  0  0  0.092078  0.099238  0  1.021251  0
H  H11  1  0.47376394  0.66186924  0.01206854  1  0  0.090611  0  0.956452  0  0  0.101812  0  1.019944  0  0  0.104377  0  1.019402  0  0  0.092135  0.099383  0  1.021445  0
H  H12  1  0.78080923  0.32126662  0.78642877  1  0  0.11188  0  0.927008  0  0  0.130388  0  0.983574  0  0  0.131603  0  0.982973  0  0  0.10419  0.129672  0  0.983755  0
H  H13  1  0.21920319  0.67873245  0.21356834  1  0  0.111918  0  0.927046  0  0  0.130434  0  0.983556  0  0  0.131648  0  0.982956  0  0  0.104214  0.129726  0  0.983731  0
H  H14  1  0.76353429  0.33204398  0.60214156  1  0  0.104542  0  0.958777  0  0  0.116715  0  1.027325  0  0  0.117956  0  1.026861  0  0  0.090056  0.115613  0  1.027964  0
H  H15  1  0.23646396  0.66795983  0.39785396  1  0  0.104483  0  0.95883  0  0  0.116632  0  1.027387  0  0  0.117873  0  1.026921  0  0  0.090033  0.115535  0  1.028028  0
H  H16  1  0.93018032  0.89692786  0.82397930  1  0  0.093374  0  0.961126  0  0  0.10756  0  1.028884  0  0  0.108072  0  1.029958  0  0  0.088074  0.107359  0  1.028069  0
H  H17  1  0.06981472  0.10306863  0.17600886  1  0  0.093445  0  0.961139  0  0  0.107586  0  1.028933  0  0  0.108096  0  1.030006  0  0  0.088094  0.107382  0  1.028121  0
H  H18  1  0.00702193  0.10928210  0.73121717  1  0  0.087194  0  0.976879  0  0  0.101337  0  1.045684  0  0  0.101633  0  1.047018  0  0  0.083335  0.100868  0  1.045078  0
H  H19  1  0.99297127  0.89070827  0.26876918  1  0  0.087244  0  0.976855  0  0  0.101356  0  1.045674  0  0  0.101652  0  1.047014  0  0  0.083344  0.100881  0  1.045078  0
H  H20  1  0.80126358  0.93587165  0.07892130  1  0  0.071405  0  0.959622  0  0  0.08641  0  1.025601  0  0  0.08636  0  1.028403  0  0  0.08356  0.086093  0  1.024281  0
H  H21  1  0.19874408  0.06413237  0.92106487  1  0  0.071424  0  0.959449  0  0  0.086392  0  1.025479  0  0  0.086353  0  1.028286  0  0  0.083559  0.086071  0  1.024143  0
H  H22  1  0.88586671  0.14494649  0.98959463  1  0  0.063312  0  0.948511  0  0  0.080296  0  1.013589  0  0  0.081001  0  1.013863  0  0  0.080922  0.078924  0  1.014889  0
H  H23  1  0.11414181  0.85505148  0.01038601  1  0  0.063336  0  0.948435  0  0  0.080244  0  1.013614  0  0  0.080959  0  1.013896  0  0  0.08091  0.078863  0  1.01491  0
C  C24  1  0.40148025  0.34748937  0.67209175  1  0  -0.120268  0  3.729137  0  0  -0.135474  0  3.967567  0  0  -0.138773  0  3.990379  0  0  -0.095173  -0.13275  0  3.952006  0
C  C25  1  0.59851021  0.65250430  0.32792843  1  0  -0.120367  0  3.729139  0  0  -0.135568  0  3.967572  0  0  -0.138863  0  3.990386  0  0  -0.095222  -0.132837  0  3.952015  0
C  C26  1  0.22723733  0.38971395  0.71418340  1  0  -0.071394  0  3.776622  0  0  -0.082043  0  4.023056  0  0  -0.084239  0  4.044782  0  0  -0.099398  -0.080095  0  4.008596  0
C  C27  1  0.77274624  0.61027602  0.28583112  1  0  -0.071329  0  3.776243  0  0  -0.081894  0  4.022674  0  0  -0.084066  0  4.044343  0  0  -0.099303  -0.079941  0  4.008201  0
C  C28  1  0.16063973  0.41368956  0.85419096  1  0  -0.061565  0  3.764424  0  0  -0.076834  0  4.01274  0  0  -0.077978  0  4.033466  0  0  -0.096762  -0.076112  0  3.998157  0
C  C29  1  0.83937250  0.58630822  0.14581285  1  0  -0.061764  0  3.764496  0  0  -0.077046  0  4.012813  0  0  -0.078189  0  4.033541  0  0  -0.096822  -0.076322  0  3.99823  0
C  C30  1  0.26809078  0.39446825  0.95294648  1  0  -0.073974  0  3.784419  0  0  -0.083423  0  4.031512  0  0  -0.085464  0  4.052602  0  0  -0.100416  -0.081451  0  4.017244  0
C  C31  1  0.73190808  0.60554404  0.04705971  1  0  -0.073802  0  3.784377  0  0  -0.0833  0  4.031473  0  0  -0.085342  0  4.052562  0  0  -0.100412  -0.081327  0  4.017216  0
C  C32  1  0.44226595  0.35302210  0.91071112  1  0  -0.116813  0  3.73595  0  0  -0.138022  0  3.982074  0  0  -0.14071  0  4.004176  0  0  -0.096411  -0.135618  0  3.966593  0
C  C33  1  0.55771901  0.64698269  0.08929317  1  0  -0.117033  0  3.736299  0  0  -0.13833  0  3.982475  0  0  -0.141012  0  4.004581  0  0  -0.096545  -0.135953  0  3.966976  0
C  C34  1  0.51088154  0.33032059  0.76959202  1  0  0.089702  0  3.784874  0  0  0.112834  0  4.019133  0  0  0.112126  0  4.043926  0  0  -0.022326  0.113067  0  4.00184  0
C  C35  1  0.48911791  0.66968313  0.23041366  1  0  0.08973  0  3.784797  0  0  0.112946  0  4.018894  0  0  0.112237  0  4.043682  0  0  -0.022261  0.113155  0  4.001651  0
C  C36  1  0.69719824  0.28245643  0.72764033  1  0  -0.190078  0  3.634986  0  0  -0.235099  0  3.882852  0  0  -0.232942  0  3.892573  0  0  -0.143224  -0.236401  0  3.875954  0
C  C37  1  0.30280074  0.71754122  0.27236012  1  0  -0.189991  0  3.635076  0  0  -0.234968  0  3.882856  0  0  -0.232809  0  3.892573  0  0  -0.143199  -0.236282  0  3.87598  0
C  C38  1  0.90658999  0.01893343  0.82953680  1  0  -0.157709  0  3.649639  0  0  -0.194539  0  3.902037  0  0  -0.193697  0  3.915567  0  0  -0.157876  -0.194873  0  3.891989  0
C  C39  1  0.09341019  0.98106071  0.17044788  1  0  -0.157799  0  3.649312  0  0  -0.194674  0  3.902  0  0  -0.193816  0  3.915549  0  0  -0.157881  -0.195007  0  3.891929  0
C  C40  1  0.90985903  0.02225625  0.98557275  1  0  -0.099869  0  3.694738  0  0  -0.132921  0  3.940799  0  0  -0.134642  0  3.955953  0  0  -0.173992  -0.131857  0  3.93089  0
C  C41  1  0.09014295  0.97774286  0.01440789  1  0  -0.09979  0  3.694376  0  0  -0.132825  0  3.940479  0  0  -0.134617  0  3.955695  0  0  -0.173998  -0.131715  0  3.930521  0
S  S42  1  0.68859049  0.05641948  0.79823563  1  0  0.099952  0  2.595305  0  0  0.13509  0  2.985762  0  0  0.125622  0  2.988408  0  0  0.047256  0.14155  0  2.985925  0
S  S43  1  0.31141207  0.94357332  0.20176352  1  0  0.09983  0  2.595275  0  0  0.134973  0  2.9857  0  0  0.125504  0  2.98834  0  0  0.047175  0.141439  0  2.985866  0
Br  Br44  1  0.64777971  0.17262924  0.30690849  1  0  -0.363301  0  1.168782  0  0  -0.305684  0  1.490691  0  0  -0.326751  0  1.475846  0  0  -0.194816  -0.290301  0  1.501668  0
Br  Br45  1  0.35219350  0.82737898  0.69310554  1  0  -0.363323  0  1.168569  0  0  -0.305736  0  1.490482  0  0  -0.3268  0  1.475639  0  0  -0.194868  -0.290351  0  1.501465  0
Br  Br46  1  0.91119189  0.73036920  0.59563920  1  0  -0.411612  0  1.039438  0  0  -0.353824  0  1.343257  0  0  -0.372773  0  1.325528  0  0  -0.214351  -0.340478  0  1.356292  0
Br  Br47  1  0.08882875  0.26964834  0.40435857  1  0  -0.411599  0  1.039324  0  0  -0.353851  0  1.343187  0  0  -0.372797  0  1.325458  0  0  -0.214362  -0.340502  0  1.356217  0
