# generated using pymatgen
data_ZnH12C15(NO)6
_symmetry_space_group_name_H-M   'P 1'
_cell_length_a   6.97759295
_cell_length_b   16.04120948
_cell_length_c   17.33455994
_cell_angle_alpha   89.99962790
_cell_angle_beta   92.41275166
_cell_angle_gamma   89.99994092
_symmetry_Int_Tables_number   1
_chemical_formula_structural   ZnH12C15(NO)6
_chemical_formula_sum   'Zn4 H48 C60 N24 O24'
_cell_volume   1938.52043049
_cell_formula_units_Z   4
loop_
 _symmetry_equiv_pos_site_id
 _symmetry_equiv_pos_as_xyz
  1  'x, y, z'
loop_
 _atom_site_type_symbol
 _atom_site_label
 _atom_site_symmetry_multiplicity
 _atom_site_fract_x
 _atom_site_fract_y
 _atom_site_fract_z
 _atom_site_occupancy
 _atom_site_pbe_bader_charge
 _atom_site_pbe_bader_spin_density
 _atom_site_pbe_cm5_charge
 _atom_site_pbe_ddec_charge
 _atom_site_pbe_ddec_spin_density
 _atom_site_pbe_ddec_sum_bond_order
 _atom_site_pbe_magmom
Zn  Zn0  1  0.83620233  0.32341541  0.75912811  1  1.266398  0  0.698163  0.796462  0  2.404395  0
Zn  Zn1  1  0.66380305  0.82341459  0.74087193  1  1.266391  0  0.698186  0.796486  0  2.404338  0
Zn  Zn2  1  0.16379944  0.67658526  0.24087194  1  1.266389  0  0.69816  0.796463  0  2.404353  0
Zn  Zn3  1  0.33619725  0.17658358  0.25912924  1  1.266425  0  0.698177  0.79648  0  2.404332  0
H  H4  1  0.34676842  0.56521138  0.61519198  1  0.086931  0  0.127104  0.11386  0  0.955863  0
H  H5  1  0.15323846  0.06521140  0.88480719  1  0.086928  0  0.127103  0.11386  0  0.955881  0
H  H6  1  0.65323057  0.43478866  0.38480512  1  0.087011  0  0.127119  0.113906  0  0.955896  0
H  H7  1  0.84676334  0.93479052  0.11519171  1  0.086892  0  0.127109  0.113866  0  0.955852  0
H  H8  1  0.47934539  0.65635089  0.64371712  1  0.117117  0  0.122811  0.114183  0  0.991468  0
H  H9  1  0.02065546  0.15635054  0.85628195  1  0.117165  0  0.122821  0.114187  0  0.991486  0
H  H10  1  0.52065215  0.34364791  0.35628053  1  0.116933  0  0.122824  0.114211  0  0.991432  0
H  H11  1  0.97934203  0.84365013  0.14371743  1  0.117158  0  0.122829  0.114208  0  0.991465  0
H  H12  1  0.22724228  0.55370494  0.75006777  1  0.127515  0  0.118237  0.114031  0  0.993289  0
H  H13  1  0.27276037  0.05370772  0.74993022  1  0.127516  0  0.118241  0.114098  0  0.993228  0
H  H14  1  0.77275812  0.44629261  0.24992994  1  0.127512  0  0.118239  0.114062  0  0.993248  0
H  H15  1  0.72723717  0.94629482  0.25006743  1  0.127472  0  0.11821  0.114027  0  0.993368  0
H  H16  1  0.35836589  0.64654196  0.77596545  1  0.120589  0  0.123738  0.11535  0  1.003509  0
H  H17  1  0.14163639  0.14654561  0.72403486  1  0.120719  0  0.123723  0.115354  0  1.003513  0
H  H18  1  0.64163591  0.35345497  0.22403345  1  0.120588  0  0.123741  0.115379  0  1.003505  0
H  H19  1  0.85836110  0.85345693  0.27596452  1  0.12057  0  0.123753  0.115374  0  1.003492  0
H  H20  1  0.93823722  0.51514017  0.80550548  1  0.151891  0  0.140449  0.115562  0  1.000423  0
H  H21  1  0.56177066  0.01514031  0.69449242  1  0.151958  0  0.140418  0.115541  0  1.000462  0
H  H22  1  0.06176034  0.48485863  0.19449159  1  0.151833  0  0.140444  0.115585  0  1.000476  0
H  H23  1  0.43822820  0.98485849  0.30550871  1  0.15202  0  0.140437  0.115588  0  1.000397  0
H  H24  1  0.50260902  0.42014733  0.65582530  1  0.189805  0  0.155091  0.139978  0  0.964824  0
H  H25  1  0.99739747  0.92014751  0.84417534  1  0.189749  0  0.155079  0.139974  0  0.964804  0
H  H26  1  0.49738856  0.57985085  0.34417119  1  0.189894  0  0.1551  0.140033  0  0.964836  0
H  H27  1  0.00260429  0.07985316  0.15582529  1  0.189759  0  0.155091  0.139973  0  0.964804  0
H  H28  1  0.78773337  0.72021965  0.58492562  1  0.160373  0  0.141682  0.113044  0  0.962748  0
H  H29  1  0.71227096  0.22021943  0.91507271  1  0.160371  0  0.14168  0.113048  0  0.962724  0
H  H30  1  0.21227132  0.27978102  0.41507276  1  0.16038  0  0.141684  0.113055  0  0.962726  0
H  H31  1  0.28772797  0.77978186  0.08492612  1  0.160629  0  0.141708  0.112992  0  0.962787  0
H  H32  1  0.07628229  0.74429267  0.80159053  1  0.223455  0  0.152021  0.1396  0  0.977834  0
H  H33  1  0.42372261  0.24429512  0.69840752  1  0.223351  0  0.152026  0.139588  0  0.977856  0
H  H34  1  0.92371950  0.25570488  0.19840894  1  0.223384  0  0.152019  0.139592  0  0.97785  0
H  H35  1  0.57627776  0.75570679  0.30159135  1  0.223458  0  0.152013  0.139557  0  0.977904  0
H  H36  1  0.60866595  0.22965230  0.48226782  1  0.123391  0  0.105584  0.110686  0  1.013344  0
H  H37  1  0.89133282  0.72965295  0.01773266  1  0.123253  0  0.105582  0.110709  0  1.013324  0
H  H38  1  0.39133436  0.77034712  0.51773278  1  0.12325  0  0.105586  0.110719  0  1.013311  0
H  H39  1  0.10866897  0.27034709  0.98226681  1  0.123415  0  0.105581  0.110709  0  1.013318  0
H  H40  1  0.99833623  0.05929012  0.37824785  1  0.113457  0  0.107643  0.113338  0  1.013893  0
H  H41  1  0.50166724  0.55929083  0.12175779  1  0.113239  0  0.107705  0.113406  0  1.013892  0
H  H42  1  0.00166411  0.94071180  0.62175217  1  0.113431  0  0.107644  0.11334  0  1.013896  0
H  H43  1  0.49833437  0.44071296  0.87824745  1  0.113452  0  0.10764  0.113332  0  1.01382  0
H  H44  1  0.14142849  0.16769282  0.60078028  1  0.106577  0  0.106799  0.108494  0  1.0323  0
H  H45  1  0.35857080  0.66768894  0.89922157  1  0.106638  0  0.106747  0.108479  0  1.032198  0
H  H46  1  0.85857183  0.83230785  0.39922032  1  0.106599  0  0.106809  0.108529  0  1.032259  0
H  H47  1  0.64142518  0.33230799  0.10078008  1  0.106739  0  0.106831  0.108552  0  1.032304  0
H  H48  1  0.50532852  0.03710736  0.55510856  1  0.659048  0  0.302288  0.354244  0  0.990662  0
H  H49  1  0.99467338  0.53710622  0.94489485  1  0.659013  0  0.30222  0.354168  0  0.990816  0
H  H50  1  0.49466891  0.96289331  0.44489255  1  0.65901  0  0.302252  0.354174  0  0.990756  0
H  H51  1  0.00533112  0.46289134  0.05510987  1  0.659054  0  0.302301  0.35424  0  0.990683  0
C  C52  1  0.41883281  0.59751362  0.66396000  1  0.305955  0  -0.035373  -0.105088  0  3.869296  0
C  C53  1  0.08117110  0.09751401  0.83603891  1  0.305973  0  -0.035347  -0.105033  0  3.869433  0
C  C54  1  0.58116618  0.40248518  0.33603711  1  0.306191  0  -0.035404  -0.105146  0  3.869433  0
C  C55  1  0.91882640  0.90248728  0.16395989  1  0.305986  0  -0.035376  -0.105092  0  3.869414  0
C  C56  1  0.28129278  0.61350100  0.72867358  1  0.2911  0  -0.039463  -0.116733  0  3.845217  0
C  C57  1  0.21871109  0.11350427  0.77132523  1  0.290974  0  -0.039463  -0.116882  0  3.845341  0
C  C58  1  0.71870906  0.38649593  0.27132417  1  0.291065  0  -0.039433  -0.116819  0  3.845357  0
C  C59  1  0.78128642  0.88649827  0.22867357  1  0.291174  0  -0.039504  -0.11682  0  3.845408  0
C  C60  1  0.81289359  0.51246847  0.76669862  1  1.007559  0  0.154128  0.154324  0  3.968638  0
C  C61  1  0.68711572  0.01246766  0.73329991  1  1.007137  0  0.154112  0.154172  0  3.968735  0
C  C62  1  0.18710542  0.48753033  0.23329791  1  1.007677  0  0.154081  0.154176  0  3.968742  0
C  C63  1  0.31288315  0.98753052  0.26670123  1  1.007266  0  0.154074  0.154103  0  3.968774  0
C  C64  1  0.59290543  0.46195077  0.69049490  1  1.043642  0  0.178039  0.100909  0  3.86234  0
C  C65  1  0.90710240  0.96194999  0.80950436  1  1.043738  0  0.178041  0.100867  0  3.862311  0
C  C66  1  0.40709502  0.53804803  0.30950166  1  1.043356  0  0.178136  0.100945  0  3.862321  0
C  C67  1  0.09289792  0.03805006  0.19049623  1  1.043682  0  0.178048  0.100906  0  3.862291  0
C  C68  1  0.88934986  0.71046708  0.63315385  1  0.962897  0  0.149489  0.140269  0  4.016929  0
C  C69  1  0.61065449  0.21046724  0.86684511  1  0.962875  0  0.149523  0.140269  0  4.016984  0
C  C70  1  0.11065338  0.28953297  0.36684507  1  0.962885  0  0.149504  0.140258  0  4.016913  0
C  C71  1  0.38934443  0.78953405  0.13315430  1  0.962596  0  0.149508  0.140404  0  4.016911  0
C  C72  1  0.03495622  0.72530304  0.74317467  1  0.989257  0  0.175295  0.099906  0  3.860313  0
C  C73  1  0.46504728  0.22530444  0.75682403  1  0.989288  0  0.175276  0.099913  0  3.860241  0
C  C74  1  0.96504556  0.27469576  0.25682480  1  0.989305  0  0.175284  0.099857  0  3.860342  0
C  C75  1  0.53495309  0.77469685  0.24317483  1  0.989251  0  0.175311  0.099941  0  3.860289  0
C  C76  1  0.86851226  0.20363278  0.54882894  1  -0.036347  0  -0.015156  -0.028478  0  3.961181  0
C  C77  1  0.63148199  0.70363175  0.95117215  1  -0.036913  0  -0.015188  -0.028455  0  3.96098  0
C  C78  1  0.13148377  0.79636789  0.45117099  1  -0.036561  0  -0.015141  -0.028424  0  3.961036  0
C  C79  1  0.36851257  0.29636830  0.04882889  1  -0.036389  0  -0.015186  -0.028393  0  3.960953  0
C  C80  1  0.74363306  0.19560683  0.48405154  1  -0.045879  0  -0.064962  -0.074717  0  3.899329  0
C  C81  1  0.75636575  0.69560630  0.01595145  1  -0.045138  0  -0.064987  -0.074862  0  3.899397  0
C  C82  1  0.25636581  0.80439446  0.51594960  1  -0.045387  0  -0.064982  -0.074831  0  3.89939  0
C  C83  1  0.24363165  0.30439499  0.98405081  1  -0.045858  0  -0.06496  -0.074809  0  3.89932  0
C  C84  1  0.79048648  0.14444194  0.42215713  1  0.025033  0  -0.022471  -0.04804  0  3.972585  0
C  C85  1  0.70951104  0.64444225  0.07784614  1  0.024538  0  -0.022456  -0.047873  0  3.972696  0
C  C86  1  0.20951240  0.85555935  0.57784343  1  0.025066  0  -0.022423  -0.047924  0  3.972667  0
C  C87  1  0.29048635  0.35555904  0.92215612  1  0.025028  0  -0.022439  -0.047962  0  3.972649  0
C  C88  1  0.96273258  0.09993091  0.42584407  1  -0.025136  0  -0.068658  -0.08581  0  3.922261  0
C  C89  1  0.53726793  0.59992945  0.07416011  1  -0.024258  0  -0.068716  -0.08597  0  3.922575  0
C  C90  1  0.03726776  0.90007038  0.57415595  1  -0.025164  0  -0.068653  -0.085822  0  3.922393  0
C  C91  1  0.46273224  0.40006935  0.92584510  1  -0.025137  0  -0.068622  -0.085765  0  3.922159  0
C  C92  1  0.08921335  0.10828249  0.49023009  1  -0.061865  0  -0.023229  -0.068301  0  4.022261  0
C  C93  1  0.41078923  0.60828132  0.00977336  1  -0.062514  0  -0.023251  -0.06839  0  4.022301  0
C  C94  1  0.91078697  0.89171880  0.50977051  1  -0.061882  0  -0.023234  -0.068338  0  4.022247  0
C  C95  1  0.58920955  0.39172122  0.99023066  1  -0.06191  0  -0.023265  -0.068284  0  4.022322  0
C  C96  1  0.04243342  0.16061126  0.55118341  1  0.009395  0  -0.067682  -0.082303  0  3.90881  0
C  C97  1  0.45756443  0.66061010  0.94881960  1  0.009507  0  -0.067609  -0.082241  0  3.908686  0
C  C98  1  0.95756260  0.83939003  0.44881709  1  0.009387  0  -0.067728  -0.082374  0  3.908824  0
C  C99  1  0.54243290  0.33939119  0.05118496  1  0.009324  0  -0.067683  -0.082422  0  3.908765  0
C  C100  1  0.81349971  0.25671272  0.61569120  1  1.570753  0  0.198916  0.572751  0  4.215427  0
C  C101  1  0.68649729  0.75671089  0.88430848  1  1.570833  0  0.198982  0.572854  0  4.215421  0
C  C102  1  0.18649918  0.74328733  0.38430936  1  1.570777  0  0.198893  0.57274  0  4.215545  0
C  C103  1  0.31349874  0.24328854  0.11569145  1  1.570866  0  0.19896  0.572823  0  4.215371  0
C  C104  1  0.65880207  0.13767403  0.35148029  1  1.563868  0  0.194825  0.567185  0  4.22882  0
C  C105  1  0.84119835  0.63767378  0.14852308  1  1.563863  0  0.194833  0.567213  0  4.22869  0
C  C106  1  0.34119825  0.86232789  0.64852030  1  1.563902  0  0.194792  0.567144  0  4.228747  0
C  C107  1  0.15880477  0.36232502  0.85147988  1  1.563861  0  0.194848  0.567172  0  4.228741  0
C  C108  1  0.27149335  0.06118437  0.49369108  1  1.516591  0  0.239668  0.591383  0  4.100348  0
C  C109  1  0.22850633  0.56117893  0.00631836  1  1.51703  0  0.239468  0.59137  0  4.101181  0
C  C110  1  0.72850550  0.93881755  0.50631063  1  1.516659  0  0.239695  0.591562  0  4.100616  0
C  C111  1  0.77149216  0.43881363  0.99369489  1  1.516467  0  0.239605  0.591299  0  4.100354  0
N  N112  1  0.57339047  0.54503988  0.69498678  1  -0.842952  0  -0.130787  0.167494  0  3.734157  0
N  N113  1  0.92661440  0.04503971  0.80501261  1  -0.842982  0  -0.130825  0.167485  0  3.734173  0
N  N114  1  0.42661000  0.45495892  0.30500921  1  -0.842923  0  -0.130809  0.167456  0  3.734196  0
N  N115  1  0.07338452  0.95496096  0.19498680  1  -0.842963  0  -0.130766  0.167543  0  3.734154  0
N  N116  1  0.71149551  0.57823231  0.74403111  1  -0.678553  0  -0.215742  -0.247947  0  3.102217  0
N  N117  1  0.78851360  0.07823255  0.75596701  1  -0.67805  0  -0.215696  -0.24785  0  3.102111  0
N  N118  1  0.28850497  0.42176649  0.25596429  1  -0.678563  0  -0.215718  -0.24785  0  3.102152  0
N  N119  1  0.21148675  0.92176687  0.24403243  1  -0.678063  0  -0.215743  -0.247912  0  3.10216  0
N  N120  1  0.74500963  0.43947659  0.73523152  1  -1.244159  0  -0.34677  -0.309752  0  3.581178  0
N  N121  1  0.75499825  0.93947743  0.76476845  1  -1.244244  0  -0.346729  -0.30961  0  3.581178  0
N  N122  1  0.25498934  0.56052159  0.26476615  1  -1.244032  0  -0.3468  -0.309755  0  3.581176  0
N  N123  1  0.24500349  0.06052261  0.23523275  1  -1.244422  0  -0.346736  -0.309625  0  3.581208  0
N  N124  1  0.12183622  0.66610127  0.70263941  1  -0.835308  0  -0.128654  0.180165  0  3.733105  0
N  N125  1  0.37816891  0.16610243  0.79735969  1  -0.8353  0  -0.128557  0.180283  0  3.732959  0
N  N126  1  0.87816416  0.33389753  0.29735945  1  -0.835304  0  -0.128646  0.180225  0  3.73302  0
N  N127  1  0.62183003  0.83389949  0.20263914  1  -0.835302  0  -0.128579  0.180239  0  3.733091  0
N  N128  1  0.03078686  0.65539225  0.63213069  1  -0.678658  0  -0.227758  -0.275257  0  3.082899  0
N  N129  1  0.46921687  0.15539287  0.86786844  1  -0.678597  0  -0.227786  -0.275241  0  3.082847  0
N  N130  1  0.96921495  0.34460780  0.36786821  1  -0.678628  0  -0.227743  -0.275217  0  3.08276  0
N  N131  1  0.53078064  0.84460905  0.13213036  1  -0.678659  0  -0.2278  -0.275301  0  3.082887  0
N  N132  1  0.88594130  0.75476276  0.70049573  1  -1.229356  0  -0.347411  -0.325478  0  3.58031  0
N  N133  1  0.61406292  0.25476214  0.79950296  1  -1.2294  0  -0.347458  -0.325541  0  3.580333  0
N  N134  1  0.11406049  0.24523791  0.29950374  1  -1.229406  0  -0.347434  -0.325483  0  3.580356  0
N  N135  1  0.38593744  0.74523853  0.20049648  1  -1.229379  0  -0.347449  -0.325518  0  3.580224  0
O  O136  1  0.94259350  0.26288846  0.67173981  1  -1.159283  0  -0.339401  -0.566008  0  2.317276  0
O  O137  1  0.55740495  0.76288708  0.82825871  1  -1.159318  0  -0.339401  -0.566035  0  2.317298  0
O  O138  1  0.05740540  0.73711158  0.32826018  1  -1.159286  0  -0.339369  -0.565988  0  2.317314  0
O  O139  1  0.44259399  0.23711047  0.17174012  1  -1.1593  0  -0.339409  -0.566039  0  2.31719  0
O  O140  1  0.65143407  0.29052629  0.61545311  1  -1.187628  0  -0.334826  -0.575767  0  2.116293  0
O  O141  1  0.84856424  0.79052376  0.88454697  1  -1.187681  0  -0.334862  -0.57582  0  2.116257  0
O  O142  1  0.34856625  0.70947563  0.38454748  1  -1.187744  0  -0.334838  -0.575788  0  2.116345  0
O  O143  1  0.15143176  0.20947566  0.11545411  1  -1.187761  0  -0.334864  -0.57584  0  2.116259  0
O  O144  1  0.51081899  0.18728254  0.35088517  1  -1.174936  0  -0.342161  -0.565487  0  2.31745  0
O  O145  1  0.98918276  0.68728409  0.14911621  1  -1.174918  0  -0.342132  -0.565482  0  2.317348  0
O  O146  1  0.48918134  0.81271875  0.64911485  1  -1.174895  0  -0.342149  -0.565494  0  2.317475  0
O  O147  1  0.01082475  0.31271533  0.85088397  1  -1.174933  0  -0.342136  -0.565457  0  2.317458  0
O  O148  1  0.69456475  0.08765927  0.29863063  1  -1.185768  0  -0.33474  -0.57158  0  2.123115  0
O  O149  1  0.80543729  0.58765992  0.20137193  1  -1.185852  0  -0.334723  -0.571575  0  2.123212  0
O  O150  1  0.30543417  0.91234327  0.70136878  1  -1.185827  0  -0.334704  -0.571539  0  2.123059  0
O  O151  1  0.19457169  0.41233826  0.79862713  1  -1.185788  0  -0.334763  -0.571562  0  2.122981  0
O  O152  1  0.31516860  0.01363514  0.44000875  1  -1.168914  0  -0.284138  -0.505989  0  2.251513  0
O  O153  1  0.18483579  0.51363247  0.05999242  1  -1.169142  0  -0.283885  -0.505759  0  2.252302  0
O  O154  1  0.68483174  0.98636553  0.55999127  1  -1.168974  0  -0.284093  -0.506015  0  2.251705  0
O  O155  1  0.81517030  0.48636696  0.94000714  1  -1.168673  0  -0.284122  -0.506016  0  2.251295  0
O  O156  1  0.38084901  0.07311589  0.55668057  1  -1.177891  0  -0.322639  -0.470525  0  2.308083  0
O  O157  1  0.11915191  0.57311430  0.94332476  1  -1.177734  0  -0.322691  -0.470703  0  2.308373  0
O  O158  1  0.61914695  0.92688540  0.44332165  1  -1.177893  0  -0.3227  -0.470639  0  2.308324  0
O  O159  1  0.88084971  0.42688388  0.05667990  1  -1.177986  0  -0.322595  -0.470435  0  2.308295  0
